@<TRIPOS>MOLECULE
*****
 52 56 0 0 0
SMALL
GASTEIGER

@<TRIPOS>ATOM
      1 C           1.0619    2.6089   28.7911 C.3     1  UNL1        0.1205
      2 N           1.5673    2.9910   30.1507 N.am    1  UNL1       -0.2737
      3 C           0.8346    2.5367   31.3783 C.2     1  UNL1        0.2506
      4 O          -0.4036    1.7004   31.2461 O.2     1  UNL1       -0.2699
      5 C           2.8055    3.8273   30.2829 C.3     1  UNL1        0.0939
      6 C           3.5383    4.2816   29.0554 C.3     1  UNL1        0.0257
      7 C           3.0328    3.8995   27.6958 C.3     1  UNL1        0.0525
      8 C           1.7947    3.0632   27.5637 C.3     1  UNL1        0.2170
      9 C           2.1389    3.2495   26.1157 C.2     1  UNL1        0.2636
     10 O           2.1575    4.0264   25.5118 O.2     1  UNL1       -0.2711
     11 N           2.5650    2.0729   25.2886 N.am    1  UNL1       -0.2732
     12 C           2.6469    0.7099   25.9096 C.3     1  UNL1        0.1149
     13 C           3.0729   -0.4667   25.0827 C.3     1  UNL1        0.1124
     14 N           3.4172   -0.2805   23.6347 N.pl3   1  UNL1       -0.3017
     15 C           3.3354    1.0825   23.0136 C.3     1  UNL1        0.1124
     16 C           2.9093    2.2591   23.8406 C.3     1  UNL1        0.1149
     17 C           3.8433   -1.4571   22.8076 C.ar    1  UNL1        0.0824
     18 C           4.6389   -2.5645   23.4327 C.ar    1  UNL1        0.0176
     19 C           5.0650   -3.7411   22.6058 C.ar    1  UNL1        0.0015
     20 C           4.6956   -3.8103   21.1536 C.ar    1  UNL1        0.0032
     21 C           3.9001   -2.7029   20.5285 C.ar    1  UNL1        0.0382
     22 C           3.4740   -1.5263   21.3554 C.ar    1  UNL1        0.1517
     23 O           2.6784   -0.4189   20.7303 O.3     1  UNL1       -0.4742
     24 C           2.6349   -0.2769   19.2377 C.3     1  UNL1        0.2059
     25 C           3.2711    0.9109   18.5785 C.3     1  UNL1        0.0532
     26 C           4.6421    0.7925   17.9815 C.3     1  UNL1        0.0455
     27 C           4.9877   -0.3899   17.1257 C.2     1  UNL1        0.0505
     28 O           6.3780   -0.9524   17.1499 O.co2   1  UNL1       -0.5492
     29 O           3.9430   -1.0098   16.2457 O.co2   1  UNL1       -0.5492
     30 C           1.3400    2.9188   32.7379 C.ar    1  UNL1        0.0766
     31 C           2.2197    1.9754   33.5034 C.ar    1  UNL1        0.1033
     32 N           2.7251    2.3575   34.8631 N.ar    1  UNL1       -0.2422
     33 C           2.3508    3.6831   35.4571 C.ar    1  UNL1        0.0988
     34 C           1.4712    4.6265   34.6915 C.ar    1  UNL1        0.0247
     35 C           0.9657    4.2444   33.3319 C.ar    1  UNL1        0.0788
     36 C           0.0861    5.1879   32.5664 C.3     1  UNL1        0.4188
     37 F          -0.7936    6.1313   31.8008 F       1  UNL1       -0.1659
     38 F           1.2985    5.9312   32.0893 F       1  UNL1       -0.1659
     39 F          -1.1263    4.4445   33.0434 F       1  UNL1       -0.1659
     40 C          -0.1763    1.7726   28.6590 C.3     1  UNL1        0.0239
     41 C          -1.3173   -0.5610   28.7059 C.3     1  UNL1        0.0001
     42 C          -0.0737    0.2761   28.6554 C.3     1  UNL1        0.0018
     43 O           0.6761    2.2916   26.9286 O.3     1  UNL1       -0.4718
     44 C          -0.4750    3.0195   26.3000 C.ar    1  UNL1        0.1459
     45 C          -0.9778    4.3779   26.6899 C.ar    1  UNL1        0.0722
     46 S          -2.1389    4.7147   25.8021 S.2     1  UNL1       -0.0794
     47 C          -2.3538    3.5645   24.8636 C.ar    1  UNL1        0.1041
     48 C          -1.3255    2.5167   25.1713 C.ar    1  UNL1        0.0478
     49 C          -3.4114    3.4773   23.8034 C.3     1  UNL1        0.4242
     50 F          -4.4689    3.3901   22.7432 F       1  UNL1       -0.1654
     51 F          -4.4506    3.2426   24.8593 F       1  UNL1       -0.1654
     52 F          -2.3722    3.7119   22.7475 F       1  UNL1       -0.1654
@<TRIPOS>UNITY_ATOM_ATTR
28 1
charge -1
@<TRIPOS>BOND
     1    41    42    1
     2    42    40    1
     3     1    40    1
     4     1     2    1
     5     2     3   am
     6     3     4    2
     7     3    30    1
     8    30    31   ar
     9    31    32   ar
    10    32    33   ar
    11    33    34   ar
    12    34    35   ar
    13    35    36    1
    14    36    37    1
    15    36    38    1
    16    36    39    1
    17     2     5    1
    18     5     6    1
    19     6     7    1
    20     7     8    1
    21     8    43    1
    22    43    44    1
    23    44    45   ar
    24    45    46   ar
    25    46    47   ar
    26    47    49    1
    27    49    50    1
    28    49    51    1
    29    49    52    1
    30    47    48   ar
    31     8     9    1
    32     9    10    2
    33     9    11   am
    34    11    12    1
    35    12    13    1
    36    13    14    1
    37    14    17    1
    38    17    18   ar
    39    18    19   ar
    40    19    20   ar
    41    20    21   ar
    42    21    22   ar
    43    22    23    1
    44    23    24    1
    45    24    25    1
    46    25    26    1
    47    26    27    1
    48    27    28   ar
    49    27    29   ar
    50    14    15    1
    51    15    16    1
    52     8     1    1
    53    48    44   ar
    54    16    11    1
    55    35    30   ar
    56    22    17   ar
@<TRIPOS>MOLECULE
*****
 52 56 0 0 0
SMALL
GASTEIGER

@<TRIPOS>ATOM
      1 C           1.1730    2.5338   28.6464 C.3     1  UNL1        0.1205
      2 N           1.6914    2.8603   30.0156 N.am    1  UNL1       -0.2737
      3 C           0.9273    2.4242   31.2305 C.2     1  UNL1        0.2506
      4 O          -0.3551    1.6616   31.0763 O.2     1  UNL1       -0.2699
      5 C           2.9738    3.6230   30.1698 C.3     1  UNL1        0.0939
      6 C           3.7379    4.0591   28.9550 C.3     1  UNL1        0.0257
      7 C           3.2195    3.7325   27.5858 C.3     1  UNL1        0.0525
      8 C           1.9371    2.9699   27.4315 C.3     1  UNL1        0.2170
      9 C           2.2995    3.1646   25.9891 C.2     1  UNL1        0.2636
     10 O           2.3474    3.9486   25.3959 O.2     1  UNL1       -0.2711
     11 N           2.6961    1.9864   25.1497 N.am    1  UNL1       -0.2732
     12 C           2.7302    0.6134   25.7528 C.3     1  UNL1        0.1149
     13 C           3.1268   -0.5648   24.9135 C.3     1  UNL1        0.1124
     14 N           3.4892   -0.3701   23.4710 N.pl3   1  UNL1       -0.3017
     15 C           3.4551    1.0029   22.8679 C.3     1  UNL1        0.1124
     16 C           3.0585    2.1811   23.7072 C.3     1  UNL1        0.1149
     17 C           3.8858   -1.5483   22.6316 C.ar    1  UNL1        0.0824
     18 C           4.6177   -2.7002   23.2541 C.ar    1  UNL1        0.0176
     19 C           5.0143   -3.8784   22.4148 C.ar    1  UNL1        0.0015
     20 C           4.6790   -3.9048   20.9530 C.ar    1  UNL1        0.0032
     21 C           3.9470   -2.7529   20.3305 C.ar    1  UNL1        0.0382
     22 C           3.5504   -1.5747   21.1698 C.ar    1  UNL1        0.1517
     23 O           2.8185   -0.4228   20.5474 O.3     1  UNL1       -0.4742
     24 C           1.4266   -0.6144   20.0220 C.3     1  UNL1        0.2059
     25 C           0.2964    0.2003   20.5778 C.3     1  UNL1        0.0532
     26 C           0.1896    1.6592   20.2459 C.3     1  UNL1        0.0455
     27 C          -0.7302    2.5425   21.0357 C.2     1  UNL1        0.0505
     28 O          -0.2094    3.2970   22.2229 O.co2   1  UNL1       -0.5492
     29 O          -2.1709    2.6714   20.6381 O.co2   1  UNL1       -0.5492
     30 C           1.4456    2.7508   32.5997 C.ar    1  UNL1        0.0766
     31 C           2.3114    1.7662   33.3284 C.ar    1  UNL1        0.1033
     32 N           2.8298    2.0929   34.6977 N.ar    1  UNL1       -0.2422
     33 C           2.4823    3.4040   35.3381 C.ar    1  UNL1        0.0988
     34 C           1.6166    4.3886   34.6093 C.ar    1  UNL1        0.0247
     35 C           1.0982    4.0620   33.2402 C.ar    1  UNL1        0.0788
     36 C           0.2324    5.0466   32.5115 C.3     1  UNL1        0.4188
     37 F          -0.6333    6.0311   31.7827 F       1  UNL1       -0.1659
     38 F          -0.9908    4.3043   32.9618 F       1  UNL1       -0.1659
     39 F           1.4556    5.7888   32.0611 F       1  UNL1       -0.1659
     40 C          -0.1094    1.7711   28.4921 C.3     1  UNL1        0.0239
     41 C          -1.3621   -0.4933   28.7224 C.3     1  UNL1        0.0001
     42 C          -0.0937    0.2713   28.4843 C.3     1  UNL1        0.0018
     43 O           0.7806    2.2749   26.7762 O.3     1  UNL1       -0.4718
     44 C          -0.4147    3.0644   26.3315 C.ar    1  UNL1        0.1459
     45 C          -0.6426    4.5279   26.5687 C.ar    1  UNL1        0.0722
     46 S          -1.9608    4.8970   25.9553 S.2     1  UNL1       -0.0794
     47 C          -2.5475    3.6617   25.3392 C.ar    1  UNL1        0.1041
     48 C          -1.5920    2.5290   25.5717 C.ar    1  UNL1        0.0478
     49 C          -3.8595    3.5743   24.6172 C.3     1  UNL1        0.4242
     50 F          -5.1715    3.4869   23.8953 F       1  UNL1       -0.1654
     51 F          -3.1392    3.6216   23.3024 F       1  UNL1       -0.1654
     52 F          -4.5798    3.5269   25.9321 F       1  UNL1       -0.1654
@<TRIPOS>UNITY_ATOM_ATTR
28 1
charge -1
@<TRIPOS>BOND
     1    41    42    1
     2    42    40    1
     3     1    40    1
     4     1     2    1
     5     2     3   am
     6     3     4    2
     7     3    30    1
     8    30    31   ar
     9    31    32   ar
    10    32    33   ar
    11    33    34   ar
    12    34    35   ar
    13    35    36    1
    14    36    37    1
    15    36    38    1
    16    36    39    1
    17     2     5    1
    18     5     6    1
    19     6     7    1
    20     7     8    1
    21     8    43    1
    22    43    44    1
    23    44    45   ar
    24    45    46   ar
    25    46    47   ar
    26    47    49    1
    27    49    50    1
    28    49    51    1
    29    49    52    1
    30    47    48   ar
    31     8     9    1
    32     9    10    2
    33     9    11   am
    34    11    12    1
    35    12    13    1
    36    13    14    1
    37    14    17    1
    38    17    18   ar
    39    18    19   ar
    40    19    20   ar
    41    20    21   ar
    42    21    22   ar
    43    22    23    1
    44    23    24    1
    45    24    25    1
    46    25    26    1
    47    26    27    1
    48    27    28   ar
    49    27    29   ar
    50    14    15    1
    51    15    16    1
    52     8     1    1
    53    48    44   ar
    54    16    11    1
    55    35    30   ar
    56    22    17   ar
@<TRIPOS>MOLECULE
*****
 52 56 0 0 0
SMALL
GASTEIGER

@<TRIPOS>ATOM
      1 C           1.6464    2.3283   28.7214 C.3     1  UNL1        0.1205
      2 N           2.5775    2.5817   29.8697 N.am    1  UNL1       -0.2737
      3 C           2.1982    2.1445   31.2535 C.2     1  UNL1        0.2506
      4 O           0.8877    1.4539   31.4890 O.2     1  UNL1       -0.2699
      5 C           3.8881    3.2724   29.6342 C.3     1  UNL1        0.0939
      6 C           4.2674    3.7096   28.2504 C.3     1  UNL1        0.0257
      7 C           3.3363    3.4562   27.1021 C.3     1  UNL1        0.0525
      8 C           2.0257    2.7655   27.3376 C.3     1  UNL1        0.2170
      9 C           1.9396    2.9899   25.8570 C.2     1  UNL1        0.2636
     10 O           1.6788    3.7551   25.2955 O.2     1  UNL1       -0.2711
     11 N           2.3028    1.8860   24.9086 N.am    1  UNL1       -0.2732
     12 C           2.7522    0.5576   25.4409 C.3     1  UNL1        0.1149
     13 C           3.1155   -0.5464   24.4926 C.3     1  UNL1        0.1124
     14 N           3.0293   -0.3220   23.0120 N.pl3   1  UNL1       -0.3017
     15 C           2.5799    1.0065   22.4797 C.3     1  UNL1        0.1124
     16 C           2.2166    2.1104   23.4280 C.3     1  UNL1        0.1149
     17 C           3.3925   -1.4259   22.0637 C.ar    1  UNL1        0.0824
     18 C           4.2775   -2.5471   22.5216 C.ar    1  UNL1        0.0176
     19 C           4.6408   -3.6511   21.5733 C.ar    1  UNL1        0.0015
     20 C           4.1191   -3.6338   20.1671 C.ar    1  UNL1        0.0032
     21 C           3.2342   -2.5125   19.7091 C.ar    1  UNL1        0.0382
     22 C           2.8709   -1.4086   20.6574 C.ar    1  UNL1        0.1517
     23 O           1.9860   -0.2873   20.1994 O.3     1  UNL1       -0.4742
     24 C           2.0342    0.1711   18.7720 C.3     1  UNL1        0.2059
     25 C           3.1339    1.0825   18.3137 C.3     1  UNL1        0.0532
     26 C           4.5495    0.5880   18.2722 C.3     1  UNL1        0.0455
     27 C           5.0156   -0.2559   17.1231 C.2     1  UNL1        0.0505
     28 O           6.4807   -0.3713   16.8231 O.co2   1  UNL1       -0.5492
     29 O           4.0165   -0.9845   16.2739 O.co2   1  UNL1       -0.5492
     30 C           3.1294    2.3980   32.4018 C.ar    1  UNL1        0.0766
     31 C           3.0115    3.6640   33.1977 C.ar    1  UNL1        0.1033
     32 N           3.9428    3.9174   34.3460 N.ar    1  UNL1       -0.2422
     33 C           4.9918    2.9049   34.6985 C.ar    1  UNL1        0.0988
     34 C           5.1097    1.6389   33.9026 C.ar    1  UNL1        0.0247
     35 C           4.1785    1.3854   32.7543 C.ar    1  UNL1        0.0788
     36 C           4.2963    0.1194   31.9585 C.3     1  UNL1        0.4188
     37 F           4.4142   -1.1466   31.1627 F       1  UNL1       -0.1659
     38 F           5.2992    0.7785   31.0586 F       1  UNL1       -0.1659
     39 F           3.2934   -0.5396   32.8584 F       1  UNL1       -0.1659
     40 C           0.3358    1.6376   28.9569 C.3     1  UNL1        0.0239
     41 C          -1.0973   -0.5274   28.8641 C.3     1  UNL1        0.0001
     42 C           0.2434    0.1449   28.8417 C.3     1  UNL1        0.0018
     43 O           0.6853    2.1528   27.0588 O.3     1  UNL1       -0.4718
     44 C          -0.5233    3.0286   26.9093 C.ar    1  UNL1        0.1459
     45 C          -0.6382    4.4561   27.3552 C.ar    1  UNL1        0.0722
     46 S          -2.0151    4.9404   27.0091 S.2     1  UNL1       -0.0794
     47 C          -2.7510    3.8121   26.3493 C.ar    1  UNL1        0.1041
     48 C          -1.8291    2.6305   26.2876 C.ar    1  UNL1        0.0478
     49 C          -4.1614    3.8574   25.8404 C.3     1  UNL1        0.4242
     50 F          -5.5717    3.9027   25.3316 F       1  UNL1       -0.1654
     51 F          -4.5986    4.5232   27.1114 F       1  UNL1       -0.1654
     52 F          -3.7242    3.1916   24.5694 F       1  UNL1       -0.1654
@<TRIPOS>UNITY_ATOM_ATTR
28 1
charge -1
@<TRIPOS>BOND
     1    41    42    1
     2    42    40    1
     3     1    40    1
     4     1     2    1
     5     2     3   am
     6     3     4    2
     7     3    30    1
     8    30    31   ar
     9    31    32   ar
    10    32    33   ar
    11    33    34   ar
    12    34    35   ar
    13    35    36    1
    14    36    37    1
    15    36    38    1
    16    36    39    1
    17     2     5    1
    18     5     6    1
    19     6     7    1
    20     7     8    1
    21     8    43    1
    22    43    44    1
    23    44    45   ar
    24    45    46   ar
    25    46    47   ar
    26    47    49    1
    27    49    50    1
    28    49    51    1
    29    49    52    1
    30    47    48   ar
    31     8     9    1
    32     9    10    2
    33     9    11   am
    34    11    12    1
    35    12    13    1
    36    13    14    1
    37    14    17    1
    38    17    18   ar
    39    18    19   ar
    40    19    20   ar
    41    20    21   ar
    42    21    22   ar
    43    22    23    1
    44    23    24    1
    45    24    25    1
    46    25    26    1
    47    26    27    1
    48    27    28   ar
    49    27    29   ar
    50    14    15    1
    51    15    16    1
    52     8     1    1
    53    48    44   ar
    54    16    11    1
    55    35    30   ar
    56    22    17   ar
@<TRIPOS>MOLECULE
*****
 52 56 0 0 0
SMALL
GASTEIGER

@<TRIPOS>ATOM
      1 C           0.9634    2.3918   28.4809 C.3     1  UNL1        0.1205
      2 N           1.5991    2.6544   29.8139 N.am    1  UNL1       -0.2737
      3 C           1.7520    1.5387   30.8048 C.2     1  UNL1        0.2506
      4 O           1.2692    0.1603   30.4626 O.2     1  UNL1       -0.2699
      5 C           2.0820    4.0327   30.1560 C.3     1  UNL1        0.0939
      6 C           1.9291    5.1484   29.1651 C.3     1  UNL1        0.0257
      7 C           1.2934    4.8858   27.8322 C.3     1  UNL1        0.0525
      8 C           0.8106    3.5075   27.4901 C.3     1  UNL1        0.2170
      9 C           0.4460    4.2319   26.2282 C.2     1  UNL1        0.2636
     10 O           0.9659    4.6768   25.5207 O.2     1  UNL1       -0.2711
     11 N          -0.9948    4.3837   25.8399 N.am    1  UNL1       -0.2732
     12 C          -2.0713    3.8110   26.7136 C.3     1  UNL1        0.1149
     13 C          -3.5122    3.9627   26.3255 C.3     1  UNL1        0.1124
     14 N          -3.8767    4.6871   25.0636 N.pl3   1  UNL1       -0.3017
     15 C          -2.8003    5.2598   24.1899 C.3     1  UNL1        0.1124
     16 C          -1.3594    5.1081   24.5781 C.3     1  UNL1        0.1149
     17 C          -5.3176    4.8389   24.6753 C.ar    1  UNL1        0.0824
     18 C          -6.1906    5.8195   25.4010 C.ar    1  UNL1        0.0176
     19 C          -7.6314    5.9714   25.0128 C.ar    1  UNL1        0.0015
     20 C          -8.1995    5.1427   23.8990 C.ar    1  UNL1        0.0032
     21 C          -7.3265    4.1621   23.1733 C.ar    1  UNL1        0.0382
     22 C          -5.8856    4.0103   23.5615 C.ar    1  UNL1        0.1517
     23 O          -5.0127    3.0297   22.8359 O.3     1  UNL1       -0.4742
     24 C          -4.6049    3.2954   21.4170 C.3     1  UNL1        0.2059
     25 C          -4.6033    4.6989   20.8874 C.3     1  UNL1        0.0532
     26 C          -5.0157    4.9661   19.4702 C.3     1  UNL1        0.0455
     27 C          -5.4906    3.8388   18.6021 C.2     1  UNL1        0.0505
     28 O          -6.8537    3.2505   18.8157 O.co2   1  UNL1       -0.5492
     29 O          -4.6021    3.2998   17.5202 O.co2   1  UNL1       -0.5492
     30 C           2.3877    1.8013   32.1377 C.ar    1  UNL1        0.0766
     31 C           1.5530    2.2926   33.2831 C.ar    1  UNL1        0.1033
     32 N           2.1888    2.5552   34.6161 N.ar    1  UNL1       -0.2422
     33 C           3.6593    2.3266   34.8037 C.ar    1  UNL1        0.0988
     34 C           4.4941    1.8353   33.6584 C.ar    1  UNL1        0.0247
     35 C           3.8583    1.5726   32.3254 C.ar    1  UNL1        0.0788
     36 C           4.6931    1.0813   31.1801 C.3     1  UNL1        0.4188
     37 F           5.5279    0.5900   30.0348 F       1  UNL1       -0.1659
     38 F           4.9667    2.4985   30.7716 F       1  UNL1       -0.1659
     39 F           4.4195   -0.3358   31.5886 F       1  UNL1       -0.1659
     40 C           0.4806    1.0134   28.1388 C.3     1  UNL1        0.0239
     41 C          -1.3258   -0.7889   28.6271 C.3     1  UNL1        0.0001
     42 C          -0.9537    0.6417   28.3724 C.3     1  UNL1        0.0018
     43 O           0.2011    2.3808   26.7096 O.3     1  UNL1       -0.4718
     44 C           0.9216    1.8153   25.5217 C.ar    1  UNL1        0.1459
     45 C           2.3972    1.5651   25.4225 C.ar    1  UNL1        0.0722
     46 S           2.6806    0.9959   24.0640 S.2     1  UNL1       -0.0794
     47 C           1.3800    0.8942   23.3236 C.ar    1  UNL1        0.1041
     48 C           0.2929    1.4007   24.2245 C.ar    1  UNL1        0.0478
     49 C           1.1984    0.3770   21.9273 C.3     1  UNL1        0.4242
     50 F           1.0168   -0.1403   20.5310 F       1  UNL1       -0.1654
     51 F           0.0268    1.2946   21.7397 F       1  UNL1       -0.1654
     52 F           2.3700   -0.5407   22.1149 F       1  UNL1       -0.1654
@<TRIPOS>UNITY_ATOM_ATTR
28 1
charge -1
@<TRIPOS>BOND
     1    41    42    1
     2    42    40    1
     3     1    40    1
     4     1     2    1
     5     2     3   am
     6     3     4    2
     7     3    30    1
     8    30    31   ar
     9    31    32   ar
    10    32    33   ar
    11    33    34   ar
    12    34    35   ar
    13    35    36    1
    14    36    37    1
    15    36    38    1
    16    36    39    1
    17     2     5    1
    18     5     6    1
    19     6     7    1
    20     7     8    1
    21     8    43    1
    22    43    44    1
    23    44    45   ar
    24    45    46   ar
    25    46    47   ar
    26    47    49    1
    27    49    50    1
    28    49    51    1
    29    49    52    1
    30    47    48   ar
    31     8     9    1
    32     9    10    2
    33     9    11   am
    34    11    12    1
    35    12    13    1
    36    13    14    1
    37    14    17    1
    38    17    18   ar
    39    18    19   ar
    40    19    20   ar
    41    20    21   ar
    42    21    22   ar
    43    22    23    1
    44    23    24    1
    45    24    25    1
    46    25    26    1
    47    26    27    1
    48    27    28   ar
    49    27    29   ar
    50    14    15    1
    51    15    16    1
    52     8     1    1
    53    48    44   ar
    54    16    11    1
    55    35    30   ar
    56    22    17   ar
@<TRIPOS>MOLECULE
*****
 52 56 0 0 0
SMALL
GASTEIGER

@<TRIPOS>ATOM
      1 C           2.9492    1.1289   21.6825 C.3     1  UNL1        0.1205
      2 N           4.2668    0.7753   21.0590 N.am    1  UNL1       -0.2737
      3 C           4.6685   -0.6632   20.9191 C.2     1  UNL1        0.2506
      4 O           3.7524   -1.7480   21.4027 O.2     1  UNL1       -0.2699
      5 C           5.1829    1.8602   20.5754 C.3     1  UNL1        0.0939
      6 C           4.7813    3.2986   20.7153 C.3     1  UNL1        0.0257
      7 C           3.4637    3.6522   21.3388 C.3     1  UNL1        0.0525
      8 C           2.5477    2.5673   21.8224 C.3     1  UNL1        0.2170
      9 C           1.7292    3.7746   22.1725 C.2     1  UNL1        0.2636
     10 O           1.8717    4.5497   22.7622 O.2     1  UNL1       -0.2711
     11 N           0.3741    3.9660   21.5585 N.am    1  UNL1       -0.2732
     12 C          -0.1626    2.9499   20.5943 C.3     1  UNL1        0.1149
     13 C          -1.5176    3.1412   19.9802 C.3     1  UNL1        0.1124
     14 N          -2.3361    4.3485   20.3303 N.pl3   1  UNL1       -0.3017
     15 C          -1.7994    5.3646   21.2945 C.3     1  UNL1        0.1124
     16 C          -0.4443    5.1733   21.9086 C.3     1  UNL1        0.1149
     17 C          -3.6912    4.5399   19.7163 C.ar    1  UNL1        0.0824
     18 C          -3.8899    5.5697   18.6438 C.ar    1  UNL1        0.0176
     19 C          -5.2450    5.7611   18.0297 C.ar    1  UNL1        0.0015
     20 C          -6.4013    4.9228   18.4881 C.ar    1  UNL1        0.0032
     21 C          -6.2026    3.8931   19.5606 C.ar    1  UNL1        0.0382
     22 C          -4.8475    3.7017   20.1747 C.ar    1  UNL1        0.1517
     23 O          -4.6488    2.6719   21.2472 O.3     1  UNL1       -0.4742
     24 C          -4.7694    3.0600   22.6911 C.3     1  UNL1        0.2059
     25 C          -5.9116    3.9207   23.1434 C.3     1  UNL1        0.0532
     26 C          -5.6654    5.0552   24.0933 C.3     1  UNL1        0.0455
     27 C          -5.6340    4.8023   25.5714 C.2     1  UNL1        0.0505
     28 O          -4.7762    3.7041   26.1264 O.co2   1  UNL1       -0.5492
     29 O          -6.4606    5.6477   26.4947 O.co2   1  UNL1       -0.5492
     30 C           5.9861   -1.0167   20.2955 C.ar    1  UNL1        0.0766
     31 C           7.2249   -1.0704   21.1396 C.ar    1  UNL1        0.1033
     32 N           8.5426   -1.4240   20.5160 N.ar    1  UNL1       -0.2422
     33 C           8.6214   -1.7238   19.0484 C.ar    1  UNL1        0.0988
     34 C           7.3826   -1.6701   18.2044 C.ar    1  UNL1        0.0247
     35 C           6.0650   -1.3166   18.8279 C.ar    1  UNL1        0.0788
     36 C           4.8261   -1.2629   17.9838 C.3     1  UNL1        0.4188
     37 F           3.5873   -1.2091   17.1398 F       1  UNL1       -0.1659
     38 F           5.0835    0.1871   17.6984 F       1  UNL1       -0.1659
     39 F           4.5688   -2.7128   18.2692 F       1  UNL1       -0.1659
     40 C           2.0332    0.0440   22.1661 C.3     1  UNL1        0.0239
     41 C           1.1346   -0.3919   19.7677 C.3     1  UNL1        0.0001
     42 C           0.9769   -0.5073   21.2549 C.3     1  UNL1        0.0018
     43 O           1.3473    1.9018   22.4276 O.3     1  UNL1       -0.4718
     44 C           1.1995    1.8338   23.9188 C.ar    1  UNL1        0.1459
     45 C           2.2999    2.0100   24.9228 C.ar    1  UNL1        0.0722
     46 S           1.7058    1.8628   26.2922 S.2     1  UNL1       -0.0794
     47 C           0.2382    1.5958   26.1345 C.ar    1  UNL1        0.1041
     48 C          -0.0747    1.5778   24.6677 C.ar    1  UNL1        0.0478
     49 C          -0.7441    1.3838   27.2483 C.3     1  UNL1        0.4242
     50 F          -1.7263    1.1719   28.3619 F       1  UNL1       -0.1654
     51 F           0.1520    0.3361   27.8392 F       1  UNL1       -0.1654
     52 F          -1.6401    2.4315   26.6572 F       1  UNL1       -0.1654
@<TRIPOS>UNITY_ATOM_ATTR
28 1
charge -1
@<TRIPOS>BOND
     1    41    42    1
     2    42    40    1
     3     1    40    1
     4     1     2    1
     5     2     3   am
     6     3     4    2
     7     3    30    1
     8    30    31   ar
     9    31    32   ar
    10    32    33   ar
    11    33    34   ar
    12    34    35   ar
    13    35    36    1
    14    36    37    1
    15    36    38    1
    16    36    39    1
    17     2     5    1
    18     5     6    1
    19     6     7    1
    20     7     8    1
    21     8    43    1
    22    43    44    1
    23    44    45   ar
    24    45    46   ar
    25    46    47   ar
    26    47    49    1
    27    49    50    1
    28    49    51    1
    29    49    52    1
    30    47    48   ar
    31     8     9    1
    32     9    10    2
    33     9    11   am
    34    11    12    1
    35    12    13    1
    36    13    14    1
    37    14    17    1
    38    17    18   ar
    39    18    19   ar
    40    19    20   ar
    41    20    21   ar
    42    21    22   ar
    43    22    23    1
    44    23    24    1
    45    24    25    1
    46    25    26    1
    47    26    27    1
    48    27    28   ar
    49    27    29   ar
    50    14    15    1
    51    15    16    1
    52     8     1    1
    53    48    44   ar
    54    16    11    1
    55    35    30   ar
    56    22    17   ar
@<TRIPOS>MOLECULE
*****
 52 56 0 0 0
SMALL
GASTEIGER

@<TRIPOS>ATOM
      1 C           0.7219    2.5716   28.3873 C.3     1  UNL1        0.1205
      2 N           1.3668    2.8567   29.7112 N.am    1  UNL1       -0.2737
      3 C           0.7758    2.2944   30.9700 C.2     1  UNL1        0.2506
      4 O          -0.4601    1.4469   30.9049 O.2     1  UNL1       -0.2699
      5 C           2.6027    3.7042   29.7763 C.3     1  UNL1        0.0939
      6 C           3.1937    4.2666   28.5176 C.3     1  UNL1        0.0257
      7 C           2.5488    3.9814   27.1937 C.3     1  UNL1        0.0525
      8 C           1.3129    3.1339   27.1286 C.3     1  UNL1        0.2170
      9 C           1.4968    3.4387   25.6714 C.2     1  UNL1        0.2636
     10 O           1.3925    4.2500   25.1241 O.2     1  UNL1       -0.2711
     11 N           1.9342    2.3573   24.7283 N.am    1  UNL1       -0.2732
     12 C           2.1876    0.9711   25.2425 C.3     1  UNL1        0.1149
     13 C           2.6249   -0.1103   24.2995 C.3     1  UNL1        0.1124
     14 N           2.8089    0.1945   22.8423 N.pl3   1  UNL1       -0.3017
     15 C           2.5555    1.5807   22.3282 C.3     1  UNL1        0.1124
     16 C           2.1181    2.6621   23.2712 C.3     1  UNL1        0.1149
     17 C           3.2462   -0.8868   21.8992 C.ar    1  UNL1        0.0824
     18 C           2.5139   -1.0962   20.6069 C.ar    1  UNL1        0.0176
     19 C           2.9512   -2.1775   19.6638 C.ar    1  UNL1        0.0015
     20 C           4.1208   -3.0494   20.0129 C.ar    1  UNL1        0.0032
     21 C           4.8531   -2.8400   21.3052 C.ar    1  UNL1        0.0382
     22 C           4.4158   -1.7587   22.2483 C.ar    1  UNL1        0.1517
     23 O           5.1481   -1.5493   23.5406 O.3     1  UNL1       -0.4742
     24 C           5.5023   -2.7258   24.4010 C.3     1  UNL1        0.2059
     25 C           6.2335   -2.5162   25.6940 C.3     1  UNL1        0.0532
     26 C           5.5285   -1.8918   26.8615 C.3     1  UNL1        0.0455
     27 C           5.7761   -2.4052   28.2490 C.2     1  UNL1        0.0505
     28 O           6.3598   -3.7723   28.4499 O.co2   1  UNL1       -0.5492
     29 O           5.4399   -1.5514   29.4357 O.co2   1  UNL1       -0.5492
     30 C           1.4207    2.5796   32.2939 C.ar    1  UNL1        0.0766
     31 C           2.3449    1.5718   32.9106 C.ar    1  UNL1        0.1033
     32 N           2.9899    1.8570   34.2345 N.ar    1  UNL1       -0.2422
     33 C           2.7106    3.1500   34.9417 C.ar    1  UNL1        0.0988
     34 C           1.7864    4.1578   34.3251 C.ar    1  UNL1        0.0247
     35 C           1.1415    3.8726   33.0012 C.ar    1  UNL1        0.0788
     36 C           0.2173    4.8804   32.3845 C.3     1  UNL1        0.4188
     37 F          -0.7068    5.8882   31.7679 F       1  UNL1       -0.1659
     38 F          -0.9641    4.0880   32.8601 F       1  UNL1       -0.1659
     39 F           1.3988    5.6729   31.9090 F       1  UNL1       -0.1659
     40 C          -0.5140    1.7241   28.3222 C.3     1  UNL1        0.0239
     41 C          -1.4854   -0.6530   28.7170 C.3     1  UNL1        0.0001
     42 C          -0.3959    0.2344   28.1920 C.3     1  UNL1        0.0018
     43 O           0.1409    2.3922   26.5573 O.3     1  UNL1       -0.4718
     44 C          -1.0392    3.1500   26.0250 C.ar    1  UNL1        0.1459
     45 C          -1.6802    4.3460   26.6642 C.ar    1  UNL1        0.0722
     46 S          -2.8225    4.7799   25.7943 S.2     1  UNL1       -0.0794
     47 C          -2.8874    3.8521   24.6174 C.ar    1  UNL1        0.1041
     48 C          -1.7852    2.8447   24.7600 C.ar    1  UNL1        0.0478
     49 C          -3.8802    3.9198   23.4950 C.3     1  UNL1        0.4242
     50 F          -4.8730    3.9874   22.3726 F       1  UNL1       -0.1654
     51 F          -3.2553    5.1977   23.0193 F       1  UNL1       -0.1654
     52 F          -4.5051    2.6418   23.9707 F       1  UNL1       -0.1654
@<TRIPOS>UNITY_ATOM_ATTR
28 1
charge -1
@<TRIPOS>BOND
     1    41    42    1
     2    42    40    1
     3     1    40    1
     4     1     2    1
     5     2     3   am
     6     3     4    2
     7     3    30    1
     8    30    31   ar
     9    31    32   ar
    10    32    33   ar
    11    33    34   ar
    12    34    35   ar
    13    35    36    1
    14    36    37    1
    15    36    38    1
    16    36    39    1
    17     2     5    1
    18     5     6    1
    19     6     7    1
    20     7     8    1
    21     8    43    1
    22    43    44    1
    23    44    45   ar
    24    45    46   ar
    25    46    47   ar
    26    47    49    1
    27    49    50    1
    28    49    51    1
    29    49    52    1
    30    47    48   ar
    31     8     9    1
    32     9    10    2
    33     9    11   am
    34    11    12    1
    35    12    13    1
    36    13    14    1
    37    14    17    1
    38    17    18   ar
    39    18    19   ar
    40    19    20   ar
    41    20    21   ar
    42    21    22   ar
    43    22    23    1
    44    23    24    1
    45    24    25    1
    46    25    26    1
    47    26    27    1
    48    27    28   ar
    49    27    29   ar
    50    14    15    1
    51    15    16    1
    52     8     1    1
    53    48    44   ar
    54    16    11    1
    55    35    30   ar
    56    22    17   ar
@<TRIPOS>MOLECULE
*****
 52 56 0 0 0
SMALL
GASTEIGER

@<TRIPOS>ATOM
      1 C           0.9395    2.8086   28.7550 C.3     1  UNL1        0.1205
      2 N           1.6512    3.1128   30.0399 N.am    1  UNL1       -0.2737
      3 C           1.1950    2.4757   31.3190 C.2     1  UNL1        0.2506
      4 O           0.0272    1.5343   31.3131 O.2     1  UNL1       -0.2699
      5 C           2.8190    4.0542   30.0458 C.3     1  UNL1        0.0939
      6 C           3.2752    4.6914   28.7668 C.3     1  UNL1        0.0257
      7 C           2.5635    4.3872   27.4819 C.3     1  UNL1        0.0525
      8 C           1.3957    3.4458   27.4760 C.3     1  UNL1        0.2170
      9 C           1.4532    3.7986   26.0193 C.2     1  UNL1        0.2636
     10 O           1.2979    4.6262   25.5095 O.2     1  UNL1       -0.2711
     11 N           1.8150    2.7518   25.0077 N.am    1  UNL1       -0.2732
     12 C           2.1194    1.3521   25.4530 C.3     1  UNL1        0.1149
     13 C           2.4812    0.3053   24.4415 C.3     1  UNL1        0.1124
     14 N           2.5387    0.6581   22.9847 N.pl3   1  UNL1       -0.3017
     15 C           2.2344    2.0578   22.5394 C.3     1  UNL1        0.1124
     16 C           1.8726    3.1047   23.5509 C.3     1  UNL1        0.1149
     17 C           2.9006   -0.3887   21.9731 C.ar    1  UNL1        0.0824
     18 C           2.0194   -0.6154   20.7805 C.ar    1  UNL1        0.0176
     19 C           2.3812   -1.6622   19.7689 C.ar    1  UNL1        0.0015
     20 C           3.6240   -2.4822   19.9498 C.ar    1  UNL1        0.0032
     21 C           4.5052   -2.2555   21.1424 C.ar    1  UNL1        0.0382
     22 C           4.1434   -1.2087   22.1540 C.ar    1  UNL1        0.1517
     23 O           5.0246   -0.9820   23.3466 O.3     1  UNL1       -0.4742
     24 C           5.6506   -2.1499   24.0495 C.3     1  UNL1        0.2059
     25 C           5.7244   -2.1721   25.5476 C.3     1  UNL1        0.0532
     26 C           4.9275   -1.1885   26.3523 C.3     1  UNL1        0.0455
     27 C           4.5161   -1.5256   27.7548 C.2     1  UNL1        0.0505
     28 O           3.0929   -1.3304   28.1864 O.co2   1  UNL1       -0.5492
     29 O           5.5280   -2.0581   28.7257 O.co2   1  UNL1       -0.5492
     30 C           1.9067    2.7798   32.6039 C.ar    1  UNL1        0.0766
     31 C           1.3655    3.8273   33.5312 C.ar    1  UNL1        0.1033
     32 N           2.0773    4.1315   34.8162 N.ar    1  UNL1       -0.2422
     33 C           3.3301    3.3882   35.1737 C.ar    1  UNL1        0.0988
     34 C           3.8713    2.3408   34.2463 C.ar    1  UNL1        0.0247
     35 C           3.1596    2.0366   32.9615 C.ar    1  UNL1        0.0788
     36 C           3.7008    0.9891   32.0341 C.3     1  UNL1        0.4188
     37 F           4.2420   -0.0583   31.1068 F       1  UNL1       -0.1659
     38 F           4.5984    2.0118   31.4029 F       1  UNL1       -0.1659
     39 F           2.8032   -0.0335   32.6654 F       1  UNL1       -0.1659
     40 C          -0.2283    1.8673   28.7492 C.3     1  UNL1        0.0239
     41 C          -1.1562   -0.5580   28.6671 C.3     1  UNL1        0.0001
     42 C          -0.0057    0.3973   28.5500 C.3     1  UNL1        0.0018
     43 O           0.2479    2.6270   26.9642 O.3     1  UNL1       -0.4718
     44 C          -1.0360    3.2970   26.5732 C.ar    1  UNL1        0.1459
     45 C          -1.5727    4.5758   27.1447 C.ar    1  UNL1        0.0722
     46 S          -2.8769    4.8750   26.4668 S.2     1  UNL1       -0.0794
     47 C          -3.1462    3.7811   25.4764 C.ar    1  UNL1        0.1041
     48 C          -2.0084    2.8058   25.5422 C.ar    1  UNL1        0.0478
     49 C          -4.3432    3.6802   24.5780 C.3     1  UNL1        0.4242
     50 F          -5.5401    3.5792   23.6795 F       1  UNL1       -0.1654
     51 F          -5.2419    3.9745   25.7422 F       1  UNL1       -0.1654
     52 F          -3.4444    3.3858   23.4137 F       1  UNL1       -0.1654
@<TRIPOS>UNITY_ATOM_ATTR
28 1
charge -1
@<TRIPOS>BOND
     1    41    42    1
     2    42    40    1
     3     1    40    1
     4     1     2    1
     5     2     3   am
     6     3     4    2
     7     3    30    1
     8    30    31   ar
     9    31    32   ar
    10    32    33   ar
    11    33    34   ar
    12    34    35   ar
    13    35    36    1
    14    36    37    1
    15    36    38    1
    16    36    39    1
    17     2     5    1
    18     5     6    1
    19     6     7    1
    20     7     8    1
    21     8    43    1
    22    43    44    1
    23    44    45   ar
    24    45    46   ar
    25    46    47   ar
    26    47    49    1
    27    49    50    1
    28    49    51    1
    29    49    52    1
    30    47    48   ar
    31     8     9    1
    32     9    10    2
    33     9    11   am
    34    11    12    1
    35    12    13    1
    36    13    14    1
    37    14    17    1
    38    17    18   ar
    39    18    19   ar
    40    19    20   ar
    41    20    21   ar
    42    21    22   ar
    43    22    23    1
    44    23    24    1
    45    24    25    1
    46    25    26    1
    47    26    27    1
    48    27    28   ar
    49    27    29   ar
    50    14    15    1
    51    15    16    1
    52     8     1    1
    53    48    44   ar
    54    16    11    1
    55    35    30   ar
    56    22    17   ar
@<TRIPOS>MOLECULE
*****
 52 56 0 0 0
SMALL
GASTEIGER

@<TRIPOS>ATOM
      1 C           3.8421    0.4409   29.0307 C.3     1  UNL1        0.1205
      2 N           4.0087    0.8869   30.4531 N.am    1  UNL1       -0.2737
      3 C           3.3032    0.1549   31.5561 C.2     1  UNL1        0.2506
      4 O           2.4311   -1.0230   31.2367 O.2     1  UNL1       -0.2699
      5 C           4.8807    2.0648   30.7726 C.3     1  UNL1        0.0939
      6 C           5.5861    2.7968   29.6696 C.3     1  UNL1        0.0257
      7 C           5.4196    2.3508   28.2472 C.3     1  UNL1        0.0525
      8 C           4.5476    1.1728   27.9277 C.3     1  UNL1        0.2170
      9 C           5.0054    1.5400   26.5473 C.2     1  UNL1        0.2636
     10 O           5.8818    1.5573   26.0996 O.2     1  UNL1       -0.2711
     11 N           4.0094    1.9989   25.5239 N.am    1  UNL1       -0.2732
     12 C           2.5553    2.0906   25.8810 C.3     1  UNL1        0.1149
     13 C           1.5593    2.5495   24.8577 C.3     1  UNL1        0.1124
     14 N           2.0171    2.9166   23.4773 N.pl3   1  UNL1       -0.3017
     15 C           3.4711    2.8249   23.1202 C.3     1  UNL1        0.1124
     16 C           4.4672    2.3660   24.1435 C.3     1  UNL1        0.1149
     17 C           1.0211    3.3755   22.4539 C.ar    1  UNL1        0.0824
     18 C           0.7824    4.8415   22.2444 C.ar    1  UNL1        0.0176
     19 C          -0.2136    5.3005   21.2211 C.ar    1  UNL1        0.0015
     20 C          -0.9710    4.2935   20.4072 C.ar    1  UNL1        0.0032
     21 C          -0.7323    2.8274   20.6168 C.ar    1  UNL1        0.0382
     22 C           0.2637    2.3685   21.6401 C.ar    1  UNL1        0.1517
     23 O           0.5024    0.9025   21.8497 O.3     1  UNL1       -0.4742
     24 C           0.4430   -0.0410   20.6851 C.3     1  UNL1        0.2059
     25 C           1.6921   -0.3714   19.9231 C.3     1  UNL1        0.0532
     26 C           2.9610   -0.6807   20.6608 C.3     1  UNL1        0.0455
     27 C           3.8852   -1.7458   20.1495 C.2     1  UNL1        0.0505
     28 O           3.3360   -2.9066   19.3744 O.co2   1  UNL1       -0.5492
     29 O           5.3588   -1.6500   20.4133 O.co2   1  UNL1       -0.5492
     30 C           3.4697    0.6009   32.9785 C.ar    1  UNL1        0.0766
     31 C           2.6856    1.7710   33.4944 C.ar    1  UNL1        0.1033
     32 N           2.8522    2.2169   34.9169 N.ar    1  UNL1       -0.2422
     33 C           3.8029    1.4929   35.8235 C.ar    1  UNL1        0.0988
     34 C           4.5871    0.3229   35.3076 C.ar    1  UNL1        0.0247
     35 C           4.4205   -0.1231   33.8852 C.ar    1  UNL1        0.0788
     36 C           5.2047   -1.2931   33.3693 C.3     1  UNL1        0.4188
     37 F           5.9888   -2.4631   32.8534 F       1  UNL1       -0.1659
     38 F           6.2628   -0.3596   32.8604 F       1  UNL1       -0.1659
     39 F           4.1466   -2.2267   33.8782 F       1  UNL1       -0.1659
     40 C           2.9701   -0.7370   28.7112 C.3     1  UNL1        0.0239
     41 C           0.8395    0.7463   28.8127 C.3     1  UNL1        0.0001
     42 C           1.5135   -0.5338   28.4163 C.3     1  UNL1        0.0018
     43 O           3.8346    0.1225   27.1288 O.3     1  UNL1       -0.4718
     44 C           4.6177   -0.9515   26.4337 C.ar    1  UNL1        0.1459
     45 C           5.8415   -1.6356   26.9669 C.ar    1  UNL1        0.0722
     46 S           6.2947   -2.6369   25.9461 S.2     1  UNL1       -0.0794
     47 C           5.3510   -2.5715   24.7820 C.ar    1  UNL1        0.1041
     48 C           4.3145   -1.5299   25.0833 C.ar    1  UNL1        0.0478
     49 C           5.4299   -3.4021   23.5353 C.3     1  UNL1        0.4242
     50 F           5.5087   -4.2325   22.2886 F       1  UNL1       -0.1654
     51 F           6.8046   -3.8576   23.9257 F       1  UNL1       -0.1654
     52 F           4.0551   -2.9465   23.1449 F       1  UNL1       -0.1654
@<TRIPOS>UNITY_ATOM_ATTR
28 1
charge -1
@<TRIPOS>BOND
     1    41    42    1
     2    42    40    1
     3     1    40    1
     4     1     2    1
     5     2     3   am
     6     3     4    2
     7     3    30    1
     8    30    31   ar
     9    31    32   ar
    10    32    33   ar
    11    33    34   ar
    12    34    35   ar
    13    35    36    1
    14    36    37    1
    15    36    38    1
    16    36    39    1
    17     2     5    1
    18     5     6    1
    19     6     7    1
    20     7     8    1
    21     8    43    1
    22    43    44    1
    23    44    45   ar
    24    45    46   ar
    25    46    47   ar
    26    47    49    1
    27    49    50    1
    28    49    51    1
    29    49    52    1
    30    47    48   ar
    31     8     9    1
    32     9    10    2
    33     9    11   am
    34    11    12    1
    35    12    13    1
    36    13    14    1
    37    14    17    1
    38    17    18   ar
    39    18    19   ar
    40    19    20   ar
    41    20    21   ar
    42    21    22   ar
    43    22    23    1
    44    23    24    1
    45    24    25    1
    46    25    26    1
    47    26    27    1
    48    27    28   ar
    49    27    29   ar
    50    14    15    1
    51    15    16    1
    52     8     1    1
    53    48    44   ar
    54    16    11    1
    55    35    30   ar
    56    22    17   ar
@<TRIPOS>MOLECULE
*****
 52 56 0 0 0
SMALL
GASTEIGER

@<TRIPOS>ATOM
      1 C           2.9443    0.6984   28.4643 C.3     1  UNL1        0.1205
      2 N           3.8373    0.7930   29.6657 N.am    1  UNL1       -0.2737
      3 C           3.4976    0.0342   30.9144 C.2     1  UNL1        0.2506
      4 O           2.2649   -0.8191   30.9615 O.2     1  UNL1       -0.2699
      5 C           5.0700    1.6463   29.6186 C.3     1  UNL1        0.0939
      6 C           5.4097    2.4050   28.3701 C.3     1  UNL1        0.0257
      7 C           4.5167    2.3104   27.1687 C.3     1  UNL1        0.0525
      8 C           3.2839    1.4571   27.2158 C.3     1  UNL1        0.2170
      9 C           3.1834    1.9829   25.8146 C.2     1  UNL1        0.2636
     10 O           2.9959    2.8686   25.4284 O.2     1  UNL1       -0.2711
     11 N           3.3930    1.0605   24.6504 N.am    1  UNL1       -0.2732
     12 C           3.7033   -0.3878   24.8875 C.3     1  UNL1        0.1149
     13 C           3.9129   -1.3103   23.7235 C.3     1  UNL1        0.1124
     14 N           3.8123   -0.7845   22.3223 N.pl3   1  UNL1       -0.3017
     15 C           3.5021    0.6638   22.0852 C.3     1  UNL1        0.1124
     16 C           3.2925    1.5863   23.2492 C.3     1  UNL1        0.1149
     17 C           4.0220   -1.7069   21.1581 C.ar    1  UNL1        0.0824
     18 C           4.1577   -3.1833   21.3861 C.ar    1  UNL1        0.0176
     19 C           4.3673   -4.1057   20.2220 C.ar    1  UNL1        0.0015
     20 C           4.4413   -3.5518   18.8300 C.ar    1  UNL1        0.0032
     21 C           4.3056   -2.0754   18.6021 C.ar    1  UNL1        0.0382
     22 C           4.0959   -1.1530   19.7661 C.ar    1  UNL1        0.1517
     23 O           3.9602    0.3234   19.5382 O.3     1  UNL1       -0.4742
     24 C           3.1868    0.8321   18.3579 C.3     1  UNL1        0.2059
     25 C           1.6879    0.7756   18.3626 C.3     1  UNL1        0.0532
     26 C           0.9029    1.7585   19.1798 C.3     1  UNL1        0.0455
     27 C          -0.0405    1.2694   20.2384 C.2     1  UNL1        0.0505
     28 O          -1.1178    2.1739   20.7590 O.co2   1  UNL1       -0.5492
     29 O           0.0935   -0.1245   20.7764 O.co2   1  UNL1       -0.5492
     30 C           4.3907    0.1288   32.1158 C.ar    1  UNL1        0.0766
     31 C           4.1490    1.1897   33.1483 C.ar    1  UNL1        0.1033
     32 N           5.0421    1.2843   34.3498 N.ar    1  UNL1       -0.2422
     33 C           6.1769    0.3180   34.5187 C.ar    1  UNL1        0.0988
     34 C           6.4186   -0.7428   33.4862 C.ar    1  UNL1        0.0247
     35 C           5.5255   -0.8375   32.2848 C.ar    1  UNL1        0.0788
     36 C           5.7673   -1.8983   31.2522 C.3     1  UNL1        0.4188
     37 F           6.0090   -2.9592   30.2197 F       1  UNL1       -0.1659
     38 F           4.8637   -2.8328   32.0008 F       1  UNL1       -0.1659
     39 F           6.6708   -0.9639   30.5037 F       1  UNL1       -0.1659
     40 C           1.7115   -0.1550   28.5114 C.3     1  UNL1        0.0239
     41 C          -0.8396   -0.2730   28.9884 C.3     1  UNL1        0.0001
     42 C           0.5131    0.3009   29.2897 C.3     1  UNL1        0.0018
     43 O           2.0163    0.7864   26.7762 O.3     1  UNL1       -0.4718
     44 C           0.8117    1.6112   26.4320 C.ar    1  UNL1        0.1459
     45 C          -0.1291    1.3642   25.2901 C.ar    1  UNL1        0.0722
     46 S          -1.1859    2.4281   25.3217 S.2     1  UNL1       -0.0794
     47 C          -0.8983    3.3328   26.4831 C.ar    1  UNL1        0.1041
     48 C           0.3363    2.8279   27.1694 C.ar    1  UNL1        0.0478
     49 C          -1.7038    4.5319   26.8874 C.3     1  UNL1        0.4242
     50 F          -2.5094    5.7309   27.2916 F       1  UNL1       -0.1654
     51 F          -0.4453    5.3405   26.9966 F       1  UNL1       -0.1654
     52 F          -2.9624    3.7231   26.7781 F       1  UNL1       -0.1654
@<TRIPOS>UNITY_ATOM_ATTR
28 1
charge -1
@<TRIPOS>BOND
     1    41    42    1
     2    42    40    1
     3     1    40    1
     4     1     2    1
     5     2     3   am
     6     3     4    2
     7     3    30    1
     8    30    31   ar
     9    31    32   ar
    10    32    33   ar
    11    33    34   ar
    12    34    35   ar
    13    35    36    1
    14    36    37    1
    15    36    38    1
    16    36    39    1
    17     2     5    1
    18     5     6    1
    19     6     7    1
    20     7     8    1
    21     8    43    1
    22    43    44    1
    23    44    45   ar
    24    45    46   ar
    25    46    47   ar
    26    47    49    1
    27    49    50    1
    28    49    51    1
    29    49    52    1
    30    47    48   ar
    31     8     9    1
    32     9    10    2
    33     9    11   am
    34    11    12    1
    35    12    13    1
    36    13    14    1
    37    14    17    1
    38    17    18   ar
    39    18    19   ar
    40    19    20   ar
    41    20    21   ar
    42    21    22   ar
    43    22    23    1
    44    23    24    1
    45    24    25    1
    46    25    26    1
    47    26    27    1
    48    27    28   ar
    49    27    29   ar
    50    14    15    1
    51    15    16    1
    52     8     1    1
    53    48    44   ar
    54    16    11    1
    55    35    30   ar
    56    22    17   ar
