@<TRIPOS>MOLECULE
*****
 39 43 0 0 0
SMALL
GASTEIGER

@<TRIPOS>ATOM
      1 O           6.7597   -2.5402   31.2049 O.2     1  UNL1       -0.2525
      2 C           6.1818   -3.6372   32.0492 C.2     1  UNL1        0.3045
      3 N           6.7201   -5.0327   31.9369 N.am    1  UNL1       -0.2887
      4 N           5.0656   -3.3385   33.0058 N.am    1  UNL1       -0.2682
      5 H           6.3408   -5.7527   32.4910 H       1  UNL1        0.1510
      6 H           4.6863   -4.0584   33.5599 H       1  UNL1        0.1564
      7 C           4.5274   -1.9429   33.1181 C.ar    1  UNL1        0.0546
      8 C           3.7316   -1.3531   31.9917 C.ar    1  UNL1        0.0339
      9 C           3.1933    0.0425   32.1039 C.ar    1  UNL1        0.0856
     10 C           3.4508    0.8483   33.3427 C.ar    1  UNL1        0.0384
     11 C           4.2467    0.2584   34.4691 C.ar    1  UNL1        0.0856
     12 C           4.7849   -1.1372   34.3568 C.ar    1  UNL1        0.0339
     13 N           2.3976    0.6323   30.9775 N.ar    1  UNL1       -0.2281
     14 C           2.4686    2.0512   30.4962 C.ar    1  UNL1        0.1020
     15 C           1.5060    2.2026   29.3559 C.ar    1  UNL1        0.0431
     16 C           0.8400    0.8772   29.1323 C.ar    1  UNL1        0.1221
     17 N           1.3910   -0.0933   30.1346 N.ar    1  UNL1       -0.1635
     18 N           4.5042    1.0642   35.7078 N.ar    1  UNL1       -0.2281
     19 C           4.6292    0.5233   37.1013 C.ar    1  UNL1        0.1020
     20 C           4.8842    1.6772   38.0253 C.ar    1  UNL1        0.0431
     21 C           4.9167    2.9311   37.2028 C.ar    1  UNL1        0.1221
     22 N           4.6818    2.5524   35.7705 N.ar    1  UNL1       -0.1635
     23 C           7.8362   -5.3313   30.9803 C.3     1  UNL1        0.0924
     24 C           7.5641   -6.1176   29.7322 C.3     1  UNL1        0.0386
     25 C           6.8783   -5.4646   28.5690 C.3     1  UNL1        0.0738
     26 N           7.2558   -5.8423   27.1672 N.3     1  UNL1       -0.2726
     27 C           7.5135   -7.2789   26.8211 C.3     1  UNL1        0.0721
     28 C           7.8910   -7.6565   25.4194 C.3     1  UNL1        0.0174
     29 C           8.0109   -6.5975   24.3638 C.3     1  UNL1        0.0031
     30 C           7.7532   -5.1609   24.7099 C.3     1  UNL1        0.0204
     31 C           7.3757   -4.7833   26.1116 C.3     1  UNL1        0.0724
     32 C           7.8731   -4.1020   23.6543 C.3     1  UNL1        0.0277
     33 C           6.7880   -3.9357   22.6321 C.ar    1  UNL1       -0.0220
     34 C           7.1121   -4.0373   21.1710 C.ar    1  UNL1       -0.0020
     35 C           6.0270   -3.8711   20.1488 C.ar    1  UNL1        0.0293
     36 C           4.6179   -3.6032   20.5876 C.ar    1  UNL1        0.1401
     37 F           3.5328   -3.4370   19.5653 F       1  UNL1       -0.2042
     38 C           4.2938   -3.5017   22.0486 C.ar    1  UNL1        0.0293
     39 C           5.3788   -3.6679   23.0709 C.ar    1  UNL1       -0.0020
@<TRIPOS>BOND
     1     1     2    2
     2     2     3   am
     3     3    23    1
     4    23    24    1
     5    24    25    1
     6    25    26    1
     7    26    27    1
     8    27    28    1
     9    28    29    1
    10    29    30    1
    11    30    32    1
    12    32    33    1
    13    33    34   ar
    14    34    35   ar
    15    35    36   ar
    16    36    37    1
    17    36    38   ar
    18    38    39   ar
    19    30    31    1
    20     2     4   am
    21     4     7    1
    22     7     8   ar
    23     8     9   ar
    24     9    13    1
    25    13    14   ar
    26    14    15   ar
    27    15    16   ar
    28    16    17   ar
    29     9    10   ar
    30    10    11   ar
    31    11    18    1
    32    18    19   ar
    33    19    20   ar
    34    20    21   ar
    35    21    22   ar
    36    11    12   ar
    37    31    26    1
    38    12     7   ar
    39    39    33   ar
    40    17    13   ar
    41    22    18   ar
    42     3     5    1
    43     4     6    1
@<TRIPOS>MOLECULE
*****
 39 43 0 0 0
SMALL
GASTEIGER

@<TRIPOS>ATOM
      1 O           7.0267   -2.7018   31.0459 O.2     1  UNL1       -0.2525
      2 C           6.5366   -3.8198   31.9176 C.2     1  UNL1        0.3045
      3 N           7.1705   -5.1761   31.8250 N.am    1  UNL1       -0.2887
      4 N           5.4125   -3.5814   32.8819 N.am    1  UNL1       -0.2682
      5 H           6.8488   -5.9099   32.3972 H       1  UNL1        0.1510
      6 H           5.0909   -4.3152   33.4540 H       1  UNL1        0.1564
      7 C           4.7786   -2.2252   32.9744 C.ar    1  UNL1        0.0546
      8 C           5.0314   -1.3594   34.1730 C.ar    1  UNL1        0.0339
      9 C           4.3975   -0.0030   34.2655 C.ar    1  UNL1        0.0856
     10 C           3.5108    0.4875   33.1595 C.ar    1  UNL1        0.0384
     11 C           3.2581   -0.3783   31.9609 C.ar    1  UNL1        0.0856
     12 C           3.8920   -1.7346   31.8684 C.ar    1  UNL1        0.0339
     13 N           4.6502    0.8627   35.4641 N.ar    1  UNL1       -0.2281
     14 C           4.5964    0.4223   36.8969 C.ar    1  UNL1        0.1020
     15 C           4.9141    1.6082   37.7587 C.ar    1  UNL1        0.0431
     16 C           5.1642    2.7817   36.8583 C.ar    1  UNL1        0.1221
     17 N           5.0011    2.3209   35.4402 N.ar    1  UNL1       -0.1635
     18 N           2.3715    0.1122   30.8549 N.ar    1  UNL1       -0.2281
     19 C           2.3506   -0.4043   29.4468 C.ar    1  UNL1        0.1020
     20 C           1.3163    0.3697   28.6844 C.ar    1  UNL1        0.0431
     21 C           0.6979    1.3645   29.6214 C.ar    1  UNL1        0.1221
     22 N           1.3500    1.2054   30.9629 N.ar    1  UNL1       -0.1635
     23 C           8.2945   -5.4144   30.8608 C.3     1  UNL1        0.0924
     24 C           8.0638   -6.2386   29.6289 C.3     1  UNL1        0.0386
     25 C           7.1333   -5.7462   28.5605 C.3     1  UNL1        0.0738
     26 N           7.4360   -6.0208   27.1172 N.3     1  UNL1       -0.2726
     27 C           7.6863   -7.4266   26.6577 C.3     1  UNL1        0.0721
     28 C           7.9890   -7.7012   25.2145 C.3     1  UNL1        0.0174
     29 C           8.0415   -6.5700   24.2308 C.3     1  UNL1        0.0031
     30 C           7.7913   -5.1642   24.6903 C.3     1  UNL1        0.0204
     31 C           7.4886   -4.8897   26.1335 C.3     1  UNL1        0.0724
     32 C           7.8438   -4.0331   23.7065 C.3     1  UNL1        0.0277
     33 C           6.7679   -3.8887   22.6715 C.ar    1  UNL1       -0.0220
     34 C           7.1090   -3.9977   21.2148 C.ar    1  UNL1       -0.0020
     35 C           6.0330   -3.8533   20.1797 C.ar    1  UNL1        0.0293
     36 C           4.6159   -3.5999   20.6013 C.ar    1  UNL1        0.1401
     37 F           3.5399   -3.4556   19.5661 F       1  UNL1       -0.2042
     38 C           4.2748   -3.4910   22.0579 C.ar    1  UNL1        0.0293
     39 C           5.3508   -3.6353   23.0930 C.ar    1  UNL1       -0.0020
@<TRIPOS>BOND
     1     1     2    2
     2     2     3   am
     3     3    23    1
     4    23    24    1
     5    24    25    1
     6    25    26    1
     7    26    27    1
     8    27    28    1
     9    28    29    1
    10    29    30    1
    11    30    32    1
    12    32    33    1
    13    33    34   ar
    14    34    35   ar
    15    35    36   ar
    16    36    37    1
    17    36    38   ar
    18    38    39   ar
    19    30    31    1
    20     2     4   am
    21     4     7    1
    22     7     8   ar
    23     8     9   ar
    24     9    13    1
    25    13    14   ar
    26    14    15   ar
    27    15    16   ar
    28    16    17   ar
    29     9    10   ar
    30    10    11   ar
    31    11    18    1
    32    18    19   ar
    33    19    20   ar
    34    20    21   ar
    35    21    22   ar
    36    11    12   ar
    37    31    26    1
    38    12     7   ar
    39    39    33   ar
    40    17    13   ar
    41    22    18   ar
    42     3     5    1
    43     4     6    1
@<TRIPOS>MOLECULE
*****
 39 43 0 0 0
SMALL
GASTEIGER

@<TRIPOS>ATOM
      1 O           3.5723    2.6860   21.9241 O.2     1  UNL1       -0.2525
      2 C           2.0921    2.5188   22.1002 C.2     1  UNL1        0.3045
      3 N           1.1728    3.6804   21.8641 N.am    1  UNL1       -0.2887
      4 N           1.5311    1.1901   22.5123 N.am    1  UNL1       -0.2682
      5 H           0.2013    3.5707   21.9797 H       1  UNL1        0.1510
      6 H           0.5596    1.0803   22.6279 H       1  UNL1        0.1564
      7 C           2.4504    0.0285   22.7483 C.ar    1  UNL1        0.0546
      8 C           3.0451   -0.1931   24.1074 C.ar    1  UNL1        0.0339
      9 C           3.9644   -1.3546   24.3435 C.ar    1  UNL1        0.0856
     10 C           4.2889   -2.2946   23.2205 C.ar    1  UNL1        0.0384
     11 C           3.6941   -2.0730   21.8613 C.ar    1  UNL1        0.0856
     12 C           2.7748   -0.9115   21.6253 C.ar    1  UNL1        0.0339
     13 N           4.5592   -1.5762   25.7025 N.ar    1  UNL1       -0.2281
     14 C           3.9062   -1.2541   27.0139 C.ar    1  UNL1        0.1020
     15 C           4.8548   -1.6376   28.1107 C.ar    1  UNL1        0.0431
     16 C           6.0942   -2.1968   27.4772 C.ar    1  UNL1        0.1221
     17 N           5.9115   -2.1588   25.9889 N.ar    1  UNL1       -0.1635
     18 N           4.0185   -3.0130   20.7383 N.ar    1  UNL1       -0.2281
     19 C           3.6184   -2.8429   19.3027 C.ar    1  UNL1        0.1020
     20 C           4.1527   -4.0129   18.5308 C.ar    1  UNL1        0.0431
     21 C           4.8830   -4.9060   19.4894 C.ar    1  UNL1        0.1221
     22 N           4.8002   -4.2881   20.8538 N.ar    1  UNL1       -0.1635
     23 C           1.7338    5.0090   21.4520 C.3     1  UNL1        0.0924
     24 C           1.7089    5.4188   20.0092 C.3     1  UNL1        0.0386
     25 C           1.0611    4.5309   18.9885 C.3     1  UNL1        0.0738
     26 N           1.6301    3.1716   18.7076 N.3     1  UNL1       -0.2726
     27 C           0.7282    1.9737   18.6720 C.3     1  UNL1        0.0721
     28 C           1.2972    0.6146   18.3911 C.3     1  UNL1        0.0174
     29 C           2.7682    0.4534   18.1458 C.3     1  UNL1        0.0031
     30 C           3.6701    1.6513   18.1813 C.3     1  UNL1        0.0204
     31 C           3.1011    3.0104   18.4622 C.3     1  UNL1        0.0724
     32 C           5.1411    1.4901   17.9360 C.3     1  UNL1        0.0277
     33 C           5.8757    0.3212   18.5226 C.ar    1  UNL1       -0.0220
     34 C           6.3766   -0.7748   17.6292 C.ar    1  UNL1       -0.0020
     35 C           7.1111   -1.9437   18.2158 C.ar    1  UNL1        0.0293
     36 C           7.3448   -2.0166   19.6957 C.ar    1  UNL1        0.1401
     37 F           8.0794   -3.1856   20.2822 F       1  UNL1       -0.2042
     38 C           6.8440   -0.9207   20.5890 C.ar    1  UNL1        0.0293
     39 C           6.1094    0.2483   20.0024 C.ar    1  UNL1       -0.0020
@<TRIPOS>BOND
     1     1     2    2
     2     2     3   am
     3     3    23    1
     4    23    24    1
     5    24    25    1
     6    25    26    1
     7    26    27    1
     8    27    28    1
     9    28    29    1
    10    29    30    1
    11    30    32    1
    12    32    33    1
    13    33    34   ar
    14    34    35   ar
    15    35    36   ar
    16    36    37    1
    17    36    38   ar
    18    38    39   ar
    19    30    31    1
    20     2     4   am
    21     4     7    1
    22     7     8   ar
    23     8     9   ar
    24     9    13    1
    25    13    14   ar
    26    14    15   ar
    27    15    16   ar
    28    16    17   ar
    29     9    10   ar
    30    10    11   ar
    31    11    18    1
    32    18    19   ar
    33    19    20   ar
    34    20    21   ar
    35    21    22   ar
    36    11    12   ar
    37    31    26    1
    38    12     7   ar
    39    39    33   ar
    40    17    13   ar
    41    22    18   ar
    42     3     5    1
    43     4     6    1
@<TRIPOS>MOLECULE
*****
 39 43 0 0 0
SMALL
GASTEIGER

@<TRIPOS>ATOM
      1 O           4.2948    1.5053   24.6577 O.2     1  UNL1       -0.2525
      2 C           3.5806    0.4251   25.4147 C.2     1  UNL1        0.3045
      3 N           3.7416    0.3196   26.9022 N.am    1  UNL1       -0.2887
      4 N           2.7052   -0.5496   24.6840 N.am    1  UNL1       -0.2682
      5 H           3.2728   -0.3894   27.3990 H       1  UNL1        0.1510
      6 H           2.2365   -1.2586   25.1808 H       1  UNL1        0.1564
      7 C           2.5442   -0.4441   23.1964 C.ar    1  UNL1        0.0546
      8 C           1.6066    0.5714   22.6138 C.ar    1  UNL1        0.0339
      9 C           1.4455    0.6770   21.1261 C.ar    1  UNL1        0.0856
     10 C           2.2221   -0.2330   20.2212 C.ar    1  UNL1        0.0384
     11 C           3.1597   -1.2486   20.8039 C.ar    1  UNL1        0.0856
     12 C           3.3208   -1.3541   22.2915 C.ar    1  UNL1        0.0339
     13 N           0.5079    1.6925   20.5435 N.ar    1  UNL1       -0.2281
     14 C           0.6444    2.3517   19.2030 C.ar    1  UNL1        0.1020
     15 C          -0.5100    3.2938   19.0300 C.ar    1  UNL1        0.0431
     16 C          -1.3599    3.2169   20.2637 C.ar    1  UNL1        0.1221
     17 N          -0.7308    2.2273   21.1990 N.ar    1  UNL1       -0.1635
     18 N           3.9363   -2.1586   19.8990 N.ar    1  UNL1       -0.2281
     19 C           3.7843   -3.6479   19.8048 C.ar    1  UNL1        0.1020
     20 C           4.7553   -4.1488   18.7770 C.ar    1  UNL1        0.0431
     21 C           5.5073   -2.9691   18.2360 C.ar    1  UNL1        0.1221
     22 N           5.0012   -1.7390   18.9294 N.ar    1  UNL1       -0.1635
     23 C           4.6169    1.2942   27.6328 C.3     1  UNL1        0.0924
     24 C           4.1300    1.9380   28.8972 C.3     1  UNL1        0.0386
     25 C           2.9758    1.3410   29.6465 C.3     1  UNL1        0.0738
     26 N           1.6084    1.3261   29.0298 N.3     1  UNL1       -0.2726
     27 C           0.7938    0.0667   29.0420 C.3     1  UNL1        0.0721
     28 C          -0.5734    0.0519   28.4254 C.3     1  UNL1        0.0174
     29 C          -1.1262    1.2965   27.7966 C.3     1  UNL1        0.0031
     30 C          -0.3116    2.5560   27.7845 C.3     1  UNL1        0.0204
     31 C           1.0557    2.5708   28.4011 C.3     1  UNL1        0.0724
     32 C          -0.8643    3.8007   27.1558 C.3     1  UNL1        0.0277
     33 C          -2.0454    3.7150   26.2351 C.ar    1  UNL1       -0.0220
     34 C          -1.8417    3.4143   24.7797 C.ar    1  UNL1       -0.0020
     35 C          -3.0228    3.3286   23.8591 C.ar    1  UNL1        0.0293
     36 C          -4.4077    3.5436   24.3938 C.ar    1  UNL1        0.1401
     37 F          -5.5888    3.4578   23.4731 F       1  UNL1       -0.2042
     38 C          -4.6115    3.8442   25.8492 C.ar    1  UNL1        0.0293
     39 C          -3.4303    3.9299   26.7699 C.ar    1  UNL1       -0.0020
@<TRIPOS>BOND
     1     1     2    2
     2     2     3   am
     3     3    23    1
     4    23    24    1
     5    24    25    1
     6    25    26    1
     7    26    27    1
     8    27    28    1
     9    28    29    1
    10    29    30    1
    11    30    32    1
    12    32    33    1
    13    33    34   ar
    14    34    35   ar
    15    35    36   ar
    16    36    37    1
    17    36    38   ar
    18    38    39   ar
    19    30    31    1
    20     2     4   am
    21     4     7    1
    22     7     8   ar
    23     8     9   ar
    24     9    13    1
    25    13    14   ar
    26    14    15   ar
    27    15    16   ar
    28    16    17   ar
    29     9    10   ar
    30    10    11   ar
    31    11    18    1
    32    18    19   ar
    33    19    20   ar
    34    20    21   ar
    35    21    22   ar
    36    11    12   ar
    37    31    26    1
    38    12     7   ar
    39    39    33   ar
    40    17    13   ar
    41    22    18   ar
    42     3     5    1
    43     4     6    1
@<TRIPOS>MOLECULE
*****
 39 43 0 0 0
SMALL
GASTEIGER

@<TRIPOS>ATOM
      1 O           3.9221    1.6840   24.6413 O.2     1  UNL1       -0.2525
      2 C           3.1205    0.5664   25.2401 C.2     1  UNL1        0.3045
      3 N           3.4105    0.0995   26.6357 N.am    1  UNL1       -0.2887
      4 N           2.0287   -0.0842   24.4432 N.am    1  UNL1       -0.2682
      5 H           2.8844   -0.6339   27.0288 H       1  UNL1        0.1510
      6 H           1.5026   -0.8177   24.8363 H       1  UNL1        0.1564
      7 C           1.7387    0.3827   23.0476 C.ar    1  UNL1        0.0546
      8 C           2.4952   -0.1982   21.8900 C.ar    1  UNL1        0.0339
      9 C           2.2052    0.2687   20.4943 C.ar    1  UNL1        0.0856
     10 C           1.1585    1.3165   20.2563 C.ar    1  UNL1        0.0384
     11 C           0.4019    1.8974   21.4140 C.ar    1  UNL1        0.0856
     12 C           0.6920    1.4305   22.8096 C.ar    1  UNL1        0.0339
     13 N           2.9618   -0.3121   19.3367 N.ar    1  UNL1       -0.2281
     14 C           2.8199    0.0915   17.8990 C.ar    1  UNL1        0.1020
     15 C           3.7635   -0.7455   17.0873 C.ar    1  UNL1        0.0431
     16 C           4.4886   -1.6665   18.0233 C.ar    1  UNL1        0.1221
     17 N           3.9931   -1.3987   19.4135 N.ar    1  UNL1       -0.1635
     18 N          -0.6447    2.9452   21.1760 N.ar    1  UNL1       -0.2281
     19 C          -0.4969    4.4147   21.4382 C.ar    1  UNL1        0.1020
     20 C          -1.7838    5.0852   21.0582 C.ar    1  UNL1        0.0431
     21 C          -2.7270    4.0300   20.5612 C.ar    1  UNL1        0.1221
     22 N          -2.0231    2.7074   20.6340 N.ar    1  UNL1       -0.1635
     23 C           4.5022    0.7501   27.4325 C.3     1  UNL1        0.0924
     24 C           4.1826    1.4175   28.7374 C.3     1  UNL1        0.0386
     25 C           3.0257    0.9367   29.5621 C.3     1  UNL1        0.0738
     26 N           1.6297    1.0267   29.0204 N.3     1  UNL1       -0.2726
     27 C           0.7087   -0.1529   29.1210 C.3     1  UNL1        0.0721
     28 C          -0.6871   -0.0629   28.5793 C.3     1  UNL1        0.0174
     29 C          -1.1619    1.2068   27.9370 C.3     1  UNL1        0.0031
     30 C          -0.2409    2.3864   27.8364 C.3     1  UNL1        0.0204
     31 C           1.1549    2.2964   28.3781 C.3     1  UNL1        0.0724
     32 C          -0.7157    3.6560   27.1941 C.3     1  UNL1        0.0277
     33 C          -1.9625    3.6540   26.3601 C.ar    1  UNL1       -0.0220
     34 C          -3.2764    4.0364   26.9745 C.ar    1  UNL1       -0.0020
     35 C          -4.5232    4.0344   26.1405 C.ar    1  UNL1        0.0293
     36 C          -4.4561    3.6498   24.6922 C.ar    1  UNL1        0.1401
     37 F          -5.7029    3.6478   23.8582 F       1  UNL1       -0.2042
     38 C          -3.1422    3.2674   24.0778 C.ar    1  UNL1        0.0293
     39 C          -1.8954    3.2694   24.9118 C.ar    1  UNL1       -0.0020
@<TRIPOS>BOND
     1     1     2    2
     2     2     3   am
     3     3    23    1
     4    23    24    1
     5    24    25    1
     6    25    26    1
     7    26    27    1
     8    27    28    1
     9    28    29    1
    10    29    30    1
    11    30    32    1
    12    32    33    1
    13    33    34   ar
    14    34    35   ar
    15    35    36   ar
    16    36    37    1
    17    36    38   ar
    18    38    39   ar
    19    30    31    1
    20     2     4   am
    21     4     7    1
    22     7     8   ar
    23     8     9   ar
    24     9    13    1
    25    13    14   ar
    26    14    15   ar
    27    15    16   ar
    28    16    17   ar
    29     9    10   ar
    30    10    11   ar
    31    11    18    1
    32    18    19   ar
    33    19    20   ar
    34    20    21   ar
    35    21    22   ar
    36    11    12   ar
    37    31    26    1
    38    12     7   ar
    39    39    33   ar
    40    17    13   ar
    41    22    18   ar
    42     3     5    1
    43     4     6    1
@<TRIPOS>MOLECULE
*****
 39 43 0 0 0
SMALL
GASTEIGER

@<TRIPOS>ATOM
      1 O          -2.4429    5.1909   21.6952 O.2     1  UNL1       -0.2525
      2 C          -3.1779    3.9398   21.3147 C.2     1  UNL1        0.3045
      3 N          -3.2374    3.5125   19.8781 N.am    1  UNL1       -0.2887
      4 N          -3.8534    3.1162   22.3708 N.am    1  UNL1       -0.2682
      5 H          -3.7198    2.6914   19.6284 H       1  UNL1        0.1510
      6 H          -4.3357    2.2951   22.1211 H       1  UNL1        0.1564
      7 C          -3.7939    3.5435   23.8074 C.ar    1  UNL1        0.0546
      8 C          -4.9245    4.3282   24.4038 C.ar    1  UNL1        0.0339
      9 C          -4.8651    4.7556   25.8405 C.ar    1  UNL1        0.0856
     10 C          -3.6749    4.3983   26.6806 C.ar    1  UNL1        0.0384
     11 C          -2.5442    3.6136   26.0841 C.ar    1  UNL1        0.0856
     12 C          -2.6037    3.1862   24.6475 C.ar    1  UNL1        0.0339
     13 N          -5.9958    5.5403   26.4369 N.ar    1  UNL1       -0.2281
     14 C          -7.1229    6.1773   25.6795 C.ar    1  UNL1        0.1020
     15 C          -8.0216    6.8564   26.6700 C.ar    1  UNL1        0.0431
     16 C          -7.4499    6.6391   28.0397 C.ar    1  UNL1        0.1221
     17 N          -6.1979    5.8257   27.8956 N.ar    1  UNL1       -0.1635
     18 N          -1.3540    3.2562   26.9242 N.ar    1  UNL1       -0.2281
     19 C          -0.3664    4.2215   27.5098 C.ar    1  UNL1        0.1020
     20 C           0.6555    3.4327   28.2738 C.ar    1  UNL1        0.0431
     21 C           0.2996    1.9800   28.1602 C.ar    1  UNL1        0.1221
     22 N          -0.9424    1.8709   27.3261 N.ar    1  UNL1       -0.1635
     23 C          -2.5619    4.3362   18.8220 C.3     1  UNL1        0.0924
     24 C          -1.2651    3.8744   18.2261 C.3     1  UNL1        0.0386
     25 C          -0.0589    3.6975   19.1000 C.3     1  UNL1        0.0738
     26 N           0.5068    2.3273   19.3291 N.3     1  UNL1       -0.2726
     27 C          -0.1106    1.4227   20.3541 C.3     1  UNL1        0.0721
     28 C           0.4551    0.0526   20.5832 C.3     1  UNL1        0.0174
     29 C           1.6383   -0.4130   19.7874 C.3     1  UNL1        0.0031
     30 C           2.2557    0.4915   18.7624 C.3     1  UNL1        0.0204
     31 C           1.6899    1.8617   18.5333 C.3     1  UNL1        0.0724
     32 C           3.4388    0.0259   17.9666 C.3     1  UNL1        0.0277
     33 C           4.3845   -0.9824   18.5488 C.ar    1  UNL1       -0.0220
     34 C           5.4450   -0.5453   19.5154 C.ar    1  UNL1       -0.0020
     35 C           6.3907   -1.5536   20.0977 C.ar    1  UNL1        0.0293
     36 C           6.2760   -2.9989   19.7133 C.ar    1  UNL1        0.1401
     37 F           7.2217   -4.0072   20.2956 F       1  UNL1       -0.2042
     38 C           5.2155   -3.4360   18.7467 C.ar    1  UNL1        0.0293
     39 C           4.2698   -2.4278   18.1644 C.ar    1  UNL1       -0.0020
@<TRIPOS>BOND
     1     1     2    2
     2     2     3   am
     3     3    23    1
     4    23    24    1
     5    24    25    1
     6    25    26    1
     7    26    27    1
     8    27    28    1
     9    28    29    1
    10    29    30    1
    11    30    32    1
    12    32    33    1
    13    33    34   ar
    14    34    35   ar
    15    35    36   ar
    16    36    37    1
    17    36    38   ar
    18    38    39   ar
    19    30    31    1
    20     2     4   am
    21     4     7    1
    22     7     8   ar
    23     8     9   ar
    24     9    13    1
    25    13    14   ar
    26    14    15   ar
    27    15    16   ar
    28    16    17   ar
    29     9    10   ar
    30    10    11   ar
    31    11    18    1
    32    18    19   ar
    33    19    20   ar
    34    20    21   ar
    35    21    22   ar
    36    11    12   ar
    37    31    26    1
    38    12     7   ar
    39    39    33   ar
    40    17    13   ar
    41    22    18   ar
    42     3     5    1
    43     4     6    1
@<TRIPOS>MOLECULE
*****
 39 43 0 0 0
SMALL
GASTEIGER

@<TRIPOS>ATOM
      1 O           2.0493    1.8814   27.0350 O.2     1  UNL1       -0.2525
      2 C           0.8793    0.9440   26.9862 C.2     1  UNL1        0.3045
      3 N           0.1813    0.6828   25.6845 N.am    1  UNL1       -0.2887
      4 N           0.4074    0.2676   28.2393 N.am    1  UNL1       -0.2682
      5 H          -0.5866    0.0675   25.6525 H       1  UNL1        0.1510
      6 H          -0.3605   -0.3477   28.2072 H       1  UNL1        0.1564
      7 C           1.1054    0.5288   29.5410 C.ar    1  UNL1        0.0546
      8 C           2.1902   -0.3955   30.0089 C.ar    1  UNL1        0.0339
      9 C           2.8883   -0.1343   31.3106 C.ar    1  UNL1        0.0856
     10 C           2.5016    1.0510   32.1445 C.ar    1  UNL1        0.0384
     11 C           1.4167    1.9753   31.6765 C.ar    1  UNL1        0.0856
     12 C           0.7187    1.7142   30.3748 C.ar    1  UNL1        0.0339
     13 N           3.9731   -1.0586   31.7785 N.ar    1  UNL1       -0.2281
     14 C           5.4219   -0.9817   31.3977 C.ar    1  UNL1        0.1020
     15 C           6.1438   -2.0976   32.0932 C.ar    1  UNL1        0.0431
     16 C           5.1411   -2.8641   32.9039 C.ar    1  UNL1        0.1221
     17 N           3.7996   -2.2220   32.7094 N.ar    1  UNL1       -0.1635
     18 N           1.0300    3.1607   32.5103 N.ar    1  UNL1       -0.2281
     19 C           1.6984    3.6026   33.7783 C.ar    1  UNL1        0.1020
     20 C           0.9885    4.8273   34.2742 C.ar    1  UNL1        0.0431
     21 C          -0.1189    5.1424   33.3127 C.ar    1  UNL1        0.1221
     22 N          -0.0933    4.1124   32.2225 N.ar    1  UNL1       -0.1635
     23 C           0.6532    1.3591   24.4316 C.3     1  UNL1        0.0924
     24 C           0.1990    2.7533   24.1152 C.3     1  UNL1        0.0386
     25 C          -0.5497    3.0280   22.8448 C.3     1  UNL1        0.0738
     26 N           0.1934    3.1499   21.5475 N.3     1  UNL1       -0.2726
     27 C           0.8448    4.4489   21.1756 C.3     1  UNL1        0.0721
     28 C           1.5879    4.5708   19.8783 C.3     1  UNL1        0.0174
     29 C           1.6797    3.3937   18.9531 C.3     1  UNL1        0.0031
     30 C           1.0283    2.0948   19.3250 C.3     1  UNL1        0.0204
     31 C           0.2852    1.9729   20.6223 C.3     1  UNL1        0.0724
     32 C           1.1200    0.9177   18.3998 C.3     1  UNL1        0.0277
     33 C           2.2179   -0.0894   18.5740 C.ar    1  UNL1       -0.0220
     34 C           2.2697   -0.9360   19.8112 C.ar    1  UNL1       -0.0020
     35 C           3.3676   -1.9431   19.9854 C.ar    1  UNL1        0.0293
     36 C           4.4136   -2.1037   18.9224 C.ar    1  UNL1        0.1401
     37 F           5.5115   -3.1109   19.0966 F       1  UNL1       -0.2042
     38 C           4.3618   -1.2572   17.6852 C.ar    1  UNL1        0.0293
     39 C           3.2639   -0.2500   17.5109 C.ar    1  UNL1       -0.0020
@<TRIPOS>BOND
     1     1     2    2
     2     2     3   am
     3     3    23    1
     4    23    24    1
     5    24    25    1
     6    25    26    1
     7    26    27    1
     8    27    28    1
     9    28    29    1
    10    29    30    1
    11    30    32    1
    12    32    33    1
    13    33    34   ar
    14    34    35   ar
    15    35    36   ar
    16    36    37    1
    17    36    38   ar
    18    38    39   ar
    19    30    31    1
    20     2     4   am
    21     4     7    1
    22     7     8   ar
    23     8     9   ar
    24     9    13    1
    25    13    14   ar
    26    14    15   ar
    27    15    16   ar
    28    16    17   ar
    29     9    10   ar
    30    10    11   ar
    31    11    18    1
    32    18    19   ar
    33    19    20   ar
    34    20    21   ar
    35    21    22   ar
    36    11    12   ar
    37    31    26    1
    38    12     7   ar
    39    39    33   ar
    40    17    13   ar
    41    22    18   ar
    42     3     5    1
    43     4     6    1
@<TRIPOS>MOLECULE
*****
 39 43 0 0 0
SMALL
GASTEIGER

@<TRIPOS>ATOM
      1 O           4.7494   -2.7130   23.0312 O.2     1  UNL1       -0.2525
      2 C           5.8128   -2.1865   23.9489 C.2     1  UNL1        0.3045
      3 N           6.9124   -3.0915   24.4198 N.am    1  UNL1       -0.2887
      4 N           5.7766   -0.7549   24.3955 N.am    1  UNL1       -0.2682
      5 H           7.6103   -2.7459   25.0221 H       1  UNL1        0.1510
      6 H           6.4745   -0.4094   24.9978 H       1  UNL1        0.1564
      7 C           4.6770    0.1501   23.9245 C.ar    1  UNL1        0.0546
      8 C           4.7806    0.8234   22.5882 C.ar    1  UNL1        0.0339
      9 C           3.6809    1.7284   22.1171 C.ar    1  UNL1        0.0856
     10 C           2.4778    1.9601   22.9825 C.ar    1  UNL1        0.0384
     11 C           2.3744    1.2867   24.3189 C.ar    1  UNL1        0.0856
     12 C           3.4739    0.3818   24.7899 C.ar    1  UNL1        0.0339
     13 N           3.7845    2.4017   20.7808 N.ar    1  UNL1       -0.2281
     14 C           4.8949    2.2248   19.7880 C.ar    1  UNL1        0.1020
     15 C           4.5925    3.0839   18.5962 C.ar    1  UNL1        0.0431
     16 C           3.2951    3.7918   18.8523 C.ar    1  UNL1        0.1221
     17 N           2.7957    3.3702   20.2025 N.ar    1  UNL1       -0.1635
     18 N           1.1713    1.5184   25.1843 N.ar    1  UNL1       -0.2281
     19 C          -0.1182    2.1503   24.7507 C.ar    1  UNL1        0.1020
     20 C          -1.0400    2.1813   25.9337 C.ar    1  UNL1        0.0431
     21 C          -0.3203    1.5686   27.0984 C.ar    1  UNL1        0.1221
     22 N           1.0464    1.1589   26.6353 N.ar    1  UNL1       -0.1635
     23 C           6.9486   -4.5230   23.9732 C.3     1  UNL1        0.0924
     24 C           8.1306   -5.0403   23.2081 C.3     1  UNL1        0.0386
     25 C           8.2108   -4.8369   21.7241 C.3     1  UNL1        0.0738
     26 N           7.7165   -3.5585   21.1145 N.3     1  UNL1       -0.2726
     27 C           8.3953   -2.2610   21.4395 C.3     1  UNL1        0.0721
     28 C           7.9010   -0.9828   20.8298 C.3     1  UNL1        0.0174
     29 C           6.7279   -1.0020   19.8952 C.3     1  UNL1        0.0031
     30 C           6.0491   -2.2995   19.5702 C.3     1  UNL1        0.0204
     31 C           6.5434   -3.5778   20.1798 C.3     1  UNL1        0.0724
     32 C           4.8761   -2.3188   18.6356 C.3     1  UNL1        0.0277
     33 C           3.6691   -1.4782   18.9296 C.ar    1  UNL1       -0.0220
     34 C           3.2024   -0.4607   17.9310 C.ar    1  UNL1       -0.0020
     35 C           1.9953    0.3799   18.2249 C.ar    1  UNL1        0.0293
     36 C           1.2550    0.2031   19.5175 C.ar    1  UNL1        0.1401
     37 F           0.0479    1.0438   19.8114 F       1  UNL1       -0.2042
     38 C           1.7216   -0.8143   20.5160 C.ar    1  UNL1        0.0293
     39 C           2.9287   -1.6550   20.2221 C.ar    1  UNL1       -0.0020
@<TRIPOS>BOND
     1     1     2    2
     2     2     3   am
     3     3    23    1
     4    23    24    1
     5    24    25    1
     6    25    26    1
     7    26    27    1
     8    27    28    1
     9    28    29    1
    10    29    30    1
    11    30    32    1
    12    32    33    1
    13    33    34   ar
    14    34    35   ar
    15    35    36   ar
    16    36    37    1
    17    36    38   ar
    18    38    39   ar
    19    30    31    1
    20     2     4   am
    21     4     7    1
    22     7     8   ar
    23     8     9   ar
    24     9    13    1
    25    13    14   ar
    26    14    15   ar
    27    15    16   ar
    28    16    17   ar
    29     9    10   ar
    30    10    11   ar
    31    11    18    1
    32    18    19   ar
    33    19    20   ar
    34    20    21   ar
    35    21    22   ar
    36    11    12   ar
    37    31    26    1
    38    12     7   ar
    39    39    33   ar
    40    17    13   ar
    41    22    18   ar
    42     3     5    1
    43     4     6    1
@<TRIPOS>MOLECULE
*****
 39 43 0 0 0
SMALL
GASTEIGER

@<TRIPOS>ATOM
      1 O           3.2372   -1.6692   27.6470 O.2     1  UNL1       -0.2525
      2 C           4.1874   -0.5091   27.6117 C.2     1  UNL1        0.3045
      3 N           3.8065    0.7921   28.2533 N.am    1  UNL1       -0.2887
      4 N           5.5186   -0.6502   26.9348 N.am    1  UNL1       -0.2682
      5 H           4.4302    1.5536   28.2302 H       1  UNL1        0.1510
      6 H           6.1423    0.1112   26.9116 H       1  UNL1        0.1564
      7 C           5.8995   -1.9514   26.2932 C.ar    1  UNL1        0.0546
      8 C           5.6620   -2.1626   24.8273 C.ar    1  UNL1        0.0339
      9 C           6.0429   -3.4639   24.1855 C.ar    1  UNL1        0.0856
     10 C           6.6613   -4.5539   25.0098 C.ar    1  UNL1        0.0384
     11 C           6.8988   -4.3427   26.4758 C.ar    1  UNL1        0.0856
     12 C           6.5179   -3.0415   27.1174 C.ar    1  UNL1        0.0339
     13 N           5.8054   -3.6751   22.7196 N.ar    1  UNL1       -0.2281
     14 C           6.8213   -3.5080   21.6288 C.ar    1  UNL1        0.1020
     15 C           6.1541   -3.8201   20.3222 C.ar    1  UNL1        0.0431
     16 C           4.7257   -4.1801   20.6054 C.ar    1  UNL1        0.1221
     17 N           4.5102   -4.0905   22.0871 N.ar    1  UNL1       -0.1635
     18 N           7.5172   -5.4327   27.3001 N.ar    1  UNL1       -0.2281
     19 C           7.5992   -6.8828   26.9254 C.ar    1  UNL1        0.1020
     20 C           8.2948   -7.6103   28.0375 C.ar    1  UNL1        0.0431
     21 C           8.6428   -6.6098   29.0996 C.ar    1  UNL1        0.1221
     22 N           8.1622   -5.2639   28.6439 N.ar    1  UNL1       -0.1635
     23 C           2.4754    0.9332   28.9302 C.3     1  UNL1        0.0924
     24 C           1.2441    1.1986   28.1156 C.3     1  UNL1        0.0386
     25 C           1.2840    2.2015   27.0009 C.3     1  UNL1        0.0738
     26 N           2.2039    1.9908   25.8349 N.3     1  UNL1       -0.2726
     27 C           3.2560    3.0111   25.5156 C.3     1  UNL1        0.0721
     28 C           4.1758    2.8004   24.3497 C.3     1  UNL1        0.0174
     29 C           4.0435    1.5692   23.5030 C.3     1  UNL1        0.0031
     30 C           2.9915    0.5489   23.8223 C.3     1  UNL1        0.0204
     31 C           2.0717    0.7596   24.9883 C.3     1  UNL1        0.0724
     32 C           2.8593   -0.6823   22.9757 C.3     1  UNL1        0.0277
     33 C           2.9617   -0.5804   21.4827 C.ar    1  UNL1       -0.0220
     34 C           4.2995   -0.6917   20.8134 C.ar    1  UNL1       -0.0020
     35 C           4.4019   -0.5898   19.3204 C.ar    1  UNL1        0.0293
     36 C           3.1666   -0.3765   18.4966 C.ar    1  UNL1        0.1401
     37 F           3.2691   -0.2746   17.0036 F       1  UNL1       -0.2042
     38 C           1.8289   -0.2652   19.1659 C.ar    1  UNL1        0.0293
     39 C           1.7264   -0.3672   20.6590 C.ar    1  UNL1       -0.0020
@<TRIPOS>BOND
     1     1     2    2
     2     2     3   am
     3     3    23    1
     4    23    24    1
     5    24    25    1
     6    25    26    1
     7    26    27    1
     8    27    28    1
     9    28    29    1
    10    29    30    1
    11    30    32    1
    12    32    33    1
    13    33    34   ar
    14    34    35   ar
    15    35    36   ar
    16    36    37    1
    17    36    38   ar
    18    38    39   ar
    19    30    31    1
    20     2     4   am
    21     4     7    1
    22     7     8   ar
    23     8     9   ar
    24     9    13    1
    25    13    14   ar
    26    14    15   ar
    27    15    16   ar
    28    16    17   ar
    29     9    10   ar
    30    10    11   ar
    31    11    18    1
    32    18    19   ar
    33    19    20   ar
    34    20    21   ar
    35    21    22   ar
    36    11    12   ar
    37    31    26    1
    38    12     7   ar
    39    39    33   ar
    40    17    13   ar
    41    22    18   ar
    42     3     5    1
    43     4     6    1
