@<TRIPOS>MOLECULE
*****
 25 27 0 0 0
SMALL
GASTEIGER

@<TRIPOS>ATOM
      1 C          -7.3859  -18.6160   21.9416 C.3     1  UNL1        0.1753
      2 O          -8.1193  -19.8374   21.4720 O.3     1  UNL1       -0.3460
      3 C          -9.6056  -19.7906   21.2760 C.3     1  UNL1        0.1685
      4 C         -10.3588  -18.5225   21.5496 C.ar    1  UNL1        0.0067
      5 C         -11.8451  -18.4758   21.3536 C.ar    1  UNL1       -0.0021
      6 C         -12.5982  -17.2078   21.6273 C.ar    1  UNL1       -0.0003
      7 C         -11.8648  -15.9864   22.0970 C.ar    1  UNL1       -0.0002
      8 C         -10.3785  -16.0332   22.2929 C.ar    1  UNL1       -0.0010
      9 C          -9.6254  -17.3012   22.0193 C.ar    1  UNL1        0.0181
     10 C          -8.1390  -17.3480   22.2153 C.3     1  UNL1        0.2161
     11 C          -5.8995  -18.6628   22.1376 C.3     1  UNL1        0.1027
     12 C          -3.5774  -19.1765   21.0917 C.3     1  UNL1        0.0859
     13 N          -4.9863  -18.6825   20.9478 N.3     1  UNL1       -0.2942
     14 H          -5.4335  -19.2689   20.2431 H       1  UNL1        0.1234
     15 O          -7.4056  -16.1267   22.6849 O.3     1  UNL1       -0.4722
     16 C          -7.1867  -15.9009   24.1516 C.ar    1  UNL1        0.1428
     17 C          -8.3623  -15.7815   25.0757 C.ar    1  UNL1        0.0369
     18 C          -8.1434  -15.5558   26.5423 C.ar    1  UNL1        0.0031
     19 C          -6.7490  -15.4495   27.0849 C.ar    1  UNL1        0.0001
     20 C          -5.5735  -15.5689   26.1609 C.ar    1  UNL1        0.0069
     21 C          -5.7924  -15.7946   24.6942 C.ar    1  UNL1        0.1053
     22 C          -4.6169  -15.9141   23.7701 C.3     1  UNL1        0.4214
     23 F          -3.4413  -16.0335   22.8460 F       1  UNL1       -0.1657
     24 F          -4.9695  -14.5942   23.1509 F       1  UNL1       -0.1657
     25 F          -4.2642  -17.2339   24.3893 F       1  UNL1       -0.1657
@<TRIPOS>BOND
     1    12    13    1
     2    13    11    1
     3     1    11    1
     4     1     2    1
     5     2     3    1
     6     3     4    1
     7     4     5   ar
     8     5     6   ar
     9     6     7   ar
    10     7     8   ar
    11     8     9   ar
    12     9    10    1
    13    10    15    1
    14    15    16    1
    15    16    17   ar
    16    17    18   ar
    17    18    19   ar
    18    19    20   ar
    19    20    21   ar
    20    21    22    1
    21    22    23    1
    22    22    24    1
    23    22    25    1
    24    10     1    1
    25    21    16   ar
    26     9     4   ar
    27    13    14    1
@<TRIPOS>MOLECULE
*****
 25 27 0 0 0
SMALL
GASTEIGER

@<TRIPOS>ATOM
      1 C          -6.7071  -16.5177   23.2942 C.3     1  UNL1        0.1753
      2 O          -5.2714  -16.8975   23.5049 O.3     1  UNL1       -0.3460
      3 C          -4.6945  -18.0793   22.7834 C.3     1  UNL1        0.1685
      4 C          -5.5534  -18.8813   21.8511 C.ar    1  UNL1        0.0067
      5 C          -4.9765  -20.0631   21.1296 C.ar    1  UNL1       -0.0021
      6 C          -5.8354  -20.8651   20.1974 C.ar    1  UNL1       -0.0003
      7 C          -7.2712  -20.4853   19.9867 C.ar    1  UNL1       -0.0002
      8 C          -7.8480  -19.3035   20.7082 C.ar    1  UNL1       -0.0010
      9 C          -6.9891  -18.5016   21.6404 C.ar    1  UNL1        0.0181
     10 C          -7.5660  -17.3197   22.3620 C.3     1  UNL1        0.2161
     11 C          -7.2839  -15.3359   24.0158 C.3     1  UNL1        0.1027
     12 C          -6.2419  -15.2717   26.3948 C.3     1  UNL1        0.0859
     13 N          -6.4744  -14.6268   25.0606 N.3     1  UNL1       -0.2942
     14 H          -5.5555  -14.4530   24.6534 H       1  UNL1        0.1234
     15 O          -9.0017  -16.9399   22.1512 O.3     1  UNL1       -0.4722
     16 C         -10.0789  -17.6026   22.9576 C.ar    1  UNL1        0.1428
     17 C          -9.7179  -18.4255   24.1588 C.ar    1  UNL1        0.0369
     18 C         -10.7952  -19.0882   24.9652 C.ar    1  UNL1        0.0031
     19 C         -12.2334  -18.9281   24.5705 C.ar    1  UNL1        0.0001
     20 C         -12.5945  -18.1053   23.3694 C.ar    1  UNL1        0.0069
     21 C         -11.5172  -17.4426   22.5630 C.ar    1  UNL1        0.1053
     22 C         -11.8783  -16.6198   21.3619 C.3     1  UNL1        0.4214
     23 F         -12.2393  -15.7969   20.1608 F       1  UNL1       -0.1657
     24 F         -11.5133  -17.7666   20.4666 F       1  UNL1       -0.1657
     25 F         -12.2432  -15.4730   22.2572 F       1  UNL1       -0.1657
@<TRIPOS>BOND
     1    12    13    1
     2    13    11    1
     3     1    11    1
     4     1     2    1
     5     2     3    1
     6     3     4    1
     7     4     5   ar
     8     5     6   ar
     9     6     7   ar
    10     7     8   ar
    11     8     9   ar
    12     9    10    1
    13    10    15    1
    14    15    16    1
    15    16    17   ar
    16    17    18   ar
    17    18    19   ar
    18    19    20   ar
    19    20    21   ar
    20    21    22    1
    21    22    23    1
    22    22    24    1
    23    22    25    1
    24    10     1    1
    25    21    16   ar
    26     9     4   ar
    27    13    14    1
@<TRIPOS>MOLECULE
*****
 25 27 0 0 0
SMALL
GASTEIGER

@<TRIPOS>ATOM
      1 C          -6.7220  -18.8582   21.3376 C.3     1  UNL1        0.1753
      2 O          -5.2878  -18.9945   21.7552 O.3     1  UNL1       -0.3460
      3 C          -4.7204  -18.0793   22.7994 C.3     1  UNL1        0.1685
      4 C          -5.5873  -17.0276   23.4261 C.ar    1  UNL1        0.0067
      5 C          -5.0199  -16.1124   24.4703 C.ar    1  UNL1       -0.0021
      6 C          -5.8868  -15.0609   25.0969 C.ar    1  UNL1       -0.0003
      7 C          -7.3210  -14.9245   24.6793 C.ar    1  UNL1       -0.0002
      8 C          -7.8884  -15.8397   23.6351 C.ar    1  UNL1       -0.0010
      9 C          -7.0215  -16.8913   23.0085 C.ar    1  UNL1        0.0181
     10 C          -7.5889  -17.8066   21.9642 C.3     1  UNL1        0.2161
     11 C          -7.2894  -19.7734   20.2933 C.3     1  UNL1        0.1027
     12 C          -9.5362  -19.9439   19.0001 C.3     1  UNL1        0.0859
     13 N          -8.2389  -19.2383   19.2628 N.3     1  UNL1       -0.2942
     14 H          -8.4732  -18.2864   19.5445 H       1  UNL1        0.1234
     15 O          -9.0231  -17.6702   21.5466 O.3     1  UNL1       -0.4722
     16 C         -10.1201  -18.0546   22.4947 C.ar    1  UNL1        0.1428
     17 C          -9.8221  -18.9432   23.6659 C.ar    1  UNL1        0.0369
     18 C         -10.9190  -19.3275   24.6140 C.ar    1  UNL1        0.0031
     19 C         -12.3140  -18.8233   24.3910 C.ar    1  UNL1        0.0001
     20 C         -12.6120  -17.9347   23.2198 C.ar    1  UNL1        0.0069
     21 C         -11.5150  -17.5503   22.2717 C.ar    1  UNL1        0.1053
     22 C         -11.8131  -16.6618   21.1006 C.3     1  UNL1        0.4214
     23 F         -12.1111  -15.7732   19.9293 F       1  UNL1       -0.1657
     24 F         -11.7102  -15.4571   21.9884 F       1  UNL1       -0.1657
     25 F         -11.9160  -17.8664   20.2128 F       1  UNL1       -0.1657
@<TRIPOS>BOND
     1    12    13    1
     2    13    11    1
     3     1    11    1
     4     1     2    1
     5     2     3    1
     6     3     4    1
     7     4     5   ar
     8     5     6   ar
     9     6     7   ar
    10     7     8   ar
    11     8     9   ar
    12     9    10    1
    13    10    15    1
    14    15    16    1
    15    16    17   ar
    16    17    18   ar
    17    18    19   ar
    18    19    20   ar
    19    20    21   ar
    20    21    22    1
    21    22    23    1
    22    22    24    1
    23    22    25    1
    24    10     1    1
    25    21    16   ar
    26     9     4   ar
    27    13    14    1
@<TRIPOS>MOLECULE
*****
 25 27 0 0 0
SMALL
GASTEIGER

@<TRIPOS>ATOM
      1 C          -6.6088  -16.6699   23.5640 C.3     1  UNL1        0.1753
      2 O          -5.1163  -16.5430   23.4852 O.3     1  UNL1       -0.3460
      3 C          -4.3245  -17.5076   22.6530 C.3     1  UNL1        0.1685
      4 C          -5.0252  -18.5991   21.8995 C.ar    1  UNL1        0.0067
      5 C          -4.2334  -19.5636   21.0673 C.ar    1  UNL1       -0.0021
      6 C          -4.9342  -20.6551   20.3139 C.ar    1  UNL1       -0.0003
      7 C          -6.4267  -20.7819   20.3926 C.ar    1  UNL1       -0.0002
      8 C          -7.2185  -19.8174   21.2249 C.ar    1  UNL1       -0.0010
      9 C          -6.5178  -18.7259   21.9783 C.ar    1  UNL1        0.0181
     10 C          -7.3096  -17.7613   22.8106 C.3     1  UNL1        0.2161
     11 C          -7.4006  -15.7052   24.3963 C.3     1  UNL1        0.1027
     12 C          -6.2421  -15.2748   26.6815 C.3     1  UNL1        0.0859
     13 N          -6.6971  -14.7772   25.3416 N.3     1  UNL1       -0.2942
     14 H          -5.8670  -14.4365   24.8566 H       1  UNL1        0.1234
     15 O          -8.8021  -17.8882   22.8894 O.3     1  UNL1       -0.4722
     16 C          -9.6646  -17.2656   21.8318 C.ar    1  UNL1        0.1428
     17 C          -9.4444  -15.8375   21.4290 C.ar    1  UNL1        0.0369
     18 C         -10.3068  -15.2150   20.3714 C.ar    1  UNL1        0.0031
     19 C         -11.3896  -16.0205   19.7166 C.ar    1  UNL1        0.0001
     20 C         -11.6099  -17.4485   20.1193 C.ar    1  UNL1        0.0069
     21 C         -10.7474  -18.0711   21.1769 C.ar    1  UNL1        0.1053
     22 C         -10.9676  -19.4991   21.5796 C.3     1  UNL1        0.4214
     23 F         -11.1879  -20.9272   21.9823 F       1  UNL1       -0.1657
     24 F         -11.6046  -19.0404   22.8578 F       1  UNL1       -0.1657
     25 F         -10.3307  -19.9578   20.3014 F       1  UNL1       -0.1657
@<TRIPOS>BOND
     1    12    13    1
     2    13    11    1
     3     1    11    1
     4     1     2    1
     5     2     3    1
     6     3     4    1
     7     4     5   ar
     8     5     6   ar
     9     6     7   ar
    10     7     8   ar
    11     8     9   ar
    12     9    10    1
    13    10    15    1
    14    15    16    1
    15    16    17   ar
    16    17    18   ar
    17    18    19   ar
    18    19    20   ar
    19    20    21   ar
    20    21    22    1
    21    22    23    1
    22    22    24    1
    23    22    25    1
    24    10     1    1
    25    21    16   ar
    26     9     4   ar
    27    13    14    1
@<TRIPOS>MOLECULE
*****
 25 27 0 0 0
SMALL
GASTEIGER

@<TRIPOS>ATOM
      1 C         -10.4345  -18.2904   20.6883 C.3     1  UNL1        0.1753
      2 O         -10.0254  -19.3748   19.7361 O.3     1  UNL1       -0.3460
      3 C          -8.6083  -19.8663   19.7232 C.3     1  UNL1        0.1685
      4 C          -7.6002  -19.2734   20.6626 C.ar    1  UNL1        0.0067
      5 C          -6.1831  -19.7649   20.6497 C.ar    1  UNL1       -0.0021
      6 C          -5.1751  -19.1719   21.5890 C.ar    1  UNL1       -0.0003
      7 C          -5.5842  -18.0875   22.5412 C.ar    1  UNL1       -0.0002
      8 C          -7.0013  -17.5960   22.5541 C.ar    1  UNL1       -0.0010
      9 C          -8.0093  -18.1890   21.6148 C.ar    1  UNL1        0.0181
     10 C          -9.4265  -17.6975   21.6276 C.3     1  UNL1        0.2161
     11 C         -11.8517  -17.7989   20.7012 C.3     1  UNL1        0.1027
     12 C         -11.5722  -15.6630   19.2488 C.3     1  UNL1        0.0859
     13 N         -12.1449  -16.3489   20.4536 N.3     1  UNL1       -0.2942
     14 H         -13.1590  -16.2604   20.3886 H       1  UNL1        0.1234
     15 O          -9.8356  -16.6131   22.5798 O.3     1  UNL1       -0.4722
     16 C          -9.4392  -16.6943   24.0242 C.ar    1  UNL1        0.1428
     17 C          -8.7157  -15.5493   24.6689 C.ar    1  UNL1        0.0369
     18 C          -8.3192  -15.6306   26.1132 C.ar    1  UNL1        0.0031
     19 C          -8.6463  -16.8568   26.9129 C.ar    1  UNL1        0.0001
     20 C          -9.3697  -18.0017   26.2683 C.ar    1  UNL1        0.0069
     21 C          -9.7662  -17.9205   24.8238 C.ar    1  UNL1        0.1053
     22 C         -10.4897  -19.0655   24.1792 C.3     1  UNL1        0.4214
     23 F         -11.2132  -20.2104   23.5345 F       1  UNL1       -0.1657
     24 F          -9.2141  -19.8541   24.1483 F       1  UNL1       -0.1657
     25 F         -11.7652  -18.2769   24.2101 F       1  UNL1       -0.1657
@<TRIPOS>BOND
     1    12    13    1
     2    13    11    1
     3     1    11    1
     4     1     2    1
     5     2     3    1
     6     3     4    1
     7     4     5   ar
     8     5     6   ar
     9     6     7   ar
    10     7     8   ar
    11     8     9   ar
    12     9    10    1
    13    10    15    1
    14    15    16    1
    15    16    17   ar
    16    17    18   ar
    17    18    19   ar
    18    19    20   ar
    19    20    21   ar
    20    21    22    1
    21    22    23    1
    22    22    24    1
    23    22    25    1
    24    10     1    1
    25    21    16   ar
    26     9     4   ar
    27    13    14    1
@<TRIPOS>MOLECULE
*****
 25 27 0 0 0
SMALL
GASTEIGER

@<TRIPOS>ATOM
      1 C          -6.9940  -16.5618   23.3784 C.3     1  UNL1        0.1753
      2 O          -6.0261  -15.4200   23.4749 O.3     1  UNL1       -0.3460
      3 C          -4.5728  -15.6414   23.1772 C.3     1  UNL1        0.1685
      4 C          -4.0872  -17.0049   22.7830 C.ar    1  UNL1        0.0067
      5 C          -2.6339  -17.2264   22.4853 C.ar    1  UNL1       -0.0021
      6 C          -2.1484  -18.5898   22.0911 C.ar    1  UNL1       -0.0003
      7 C          -3.1163  -19.7316   21.9946 C.ar    1  UNL1       -0.0002
      8 C          -4.5696  -19.5102   22.2923 C.ar    1  UNL1       -0.0010
      9 C          -5.0551  -18.1468   22.6865 C.ar    1  UNL1        0.0181
     10 C          -6.5085  -17.9252   22.9842 C.3     1  UNL1        0.2161
     11 C          -8.4474  -16.3403   23.6762 C.3     1  UNL1        0.1027
     12 C          -8.4055  -15.4749   26.1254 C.3     1  UNL1        0.0859
     13 N          -8.8566  -15.3260   24.7027 N.3     1  UNL1       -0.2942
     14 H          -8.5122  -14.4226   24.3776 H       1  UNL1        0.1234
     15 O          -7.4764  -19.0671   22.8877 O.3     1  UNL1       -0.4722
     16 C          -8.2828  -19.2632   21.6382 C.ar    1  UNL1        0.1428
     17 C          -7.5991  -19.3094   20.3038 C.ar    1  UNL1        0.0369
     18 C          -8.4055  -19.5055   19.0544 C.ar    1  UNL1        0.0031
     19 C          -9.8956  -19.6554   19.1392 C.ar    1  UNL1        0.0001
     20 C         -10.5793  -19.6093   20.4735 C.ar    1  UNL1        0.0069
     21 C          -9.7729  -19.4132   21.7231 C.ar    1  UNL1        0.1053
     22 C         -10.4565  -19.3670   23.0574 C.3     1  UNL1        0.4214
     23 F         -11.1402  -19.3209   24.3918 F       1  UNL1       -0.1657
     24 F         -11.0523  -18.0360   22.7061 F       1  UNL1       -0.1657
     25 F          -9.8608  -20.6980   23.4087 F       1  UNL1       -0.1657
@<TRIPOS>BOND
     1    12    13    1
     2    13    11    1
     3     1    11    1
     4     1     2    1
     5     2     3    1
     6     3     4    1
     7     4     5   ar
     8     5     6   ar
     9     6     7   ar
    10     7     8   ar
    11     8     9   ar
    12     9    10    1
    13    10    15    1
    14    15    16    1
    15    16    17   ar
    16    17    18   ar
    17    18    19   ar
    18    19    20   ar
    19    20    21   ar
    20    21    22    1
    21    22    23    1
    22    22    24    1
    23    22    25    1
    24    10     1    1
    25    21    16   ar
    26     9     4   ar
    27    13    14    1
@<TRIPOS>MOLECULE
*****
 25 27 0 0 0
SMALL
GASTEIGER

@<TRIPOS>ATOM
      1 C          -6.1232  -16.5610   23.5190 C.3     1  UNL1        0.1753
      2 O          -4.7620  -16.6151   24.1470 O.3     1  UNL1       -0.3460
      3 C          -3.7319  -17.5714   23.6233 C.3     1  UNL1        0.1685
      4 C          -4.0628  -18.4735   22.4715 C.ar    1  UNL1        0.0067
      5 C          -3.0326  -19.4298   21.9477 C.ar    1  UNL1       -0.0021
      6 C          -3.3636  -20.3319   20.7959 C.ar    1  UNL1       -0.0003
      7 C          -4.7247  -20.2778   20.1679 C.ar    1  UNL1       -0.0002
      8 C          -5.7549  -19.3215   20.6917 C.ar    1  UNL1       -0.0010
      9 C          -5.4239  -18.4194   21.8434 C.ar    1  UNL1        0.0181
     10 C          -6.4541  -17.4632   22.3673 C.3     1  UNL1        0.2161
     11 C          -7.1534  -15.6048   24.0428 C.3     1  UNL1        0.1027
     12 C          -7.9603  -15.5638   26.5120 C.3     1  UNL1        0.0859
     13 N          -7.0374  -15.0679   25.4386 N.3     1  UNL1       -0.2942
     14 H          -6.0873  -15.2662   25.7524 H       1  UNL1        0.1234
     15 O          -7.8153  -17.4091   21.7392 O.3     1  UNL1       -0.4722
     16 C          -8.9193  -18.2771   22.2660 C.ar    1  UNL1        0.1428
     17 C          -9.2615  -18.2518   23.7263 C.ar    1  UNL1        0.0369
     18 C         -10.3656  -19.1198   24.2530 C.ar    1  UNL1        0.0031
     19 C         -11.1275  -20.0132   23.3195 C.ar    1  UNL1        0.0001
     20 C         -10.7853  -20.0386   21.8593 C.ar    1  UNL1        0.0069
     21 C          -9.6812  -19.1705   21.3325 C.ar    1  UNL1        0.1053
     22 C          -9.3390  -19.1959   19.8723 C.3     1  UNL1        0.4214
     23 F          -8.9969  -19.2212   18.4120 F       1  UNL1       -0.1657
     24 F          -8.3657  -20.3100   20.1198 F       1  UNL1       -0.1657
     25 F         -10.3124  -18.0817   19.6249 F       1  UNL1       -0.1657
@<TRIPOS>BOND
     1    12    13    1
     2    13    11    1
     3     1    11    1
     4     1     2    1
     5     2     3    1
     6     3     4    1
     7     4     5   ar
     8     5     6   ar
     9     6     7   ar
    10     7     8   ar
    11     8     9   ar
    12     9    10    1
    13    10    15    1
    14    15    16    1
    15    16    17   ar
    16    17    18   ar
    17    18    19   ar
    18    19    20   ar
    19    20    21   ar
    20    21    22    1
    21    22    23    1
    22    22    24    1
    23    22    25    1
    24    10     1    1
    25    21    16   ar
    26     9     4   ar
    27    13    14    1
@<TRIPOS>MOLECULE
*****
 25 27 0 0 0
SMALL
GASTEIGER

@<TRIPOS>ATOM
      1 C          -9.4798  -17.2690   21.9359 C.3     1  UNL1        0.1753
      2 O         -10.0807  -18.5124   21.3504 O.3     1  UNL1       -0.3460
      3 C          -9.1952  -19.6496   20.9352 C.3     1  UNL1        0.1685
      4 C          -7.7086  -19.5435   21.1055 C.ar    1  UNL1        0.0067
      5 C          -6.8231  -20.6807   20.6903 C.ar    1  UNL1       -0.0021
      6 C          -5.3366  -20.5745   20.8605 C.ar    1  UNL1       -0.0003
      7 C          -4.7356  -19.3311   21.4460 C.ar    1  UNL1       -0.0002
      8 C          -5.6212  -18.1939   21.8612 C.ar    1  UNL1       -0.0010
      9 C          -7.1077  -18.3001   21.6910 C.ar    1  UNL1        0.0181
     10 C          -7.9933  -17.1628   22.1062 C.3     1  UNL1        0.2161
     11 C         -10.3654  -16.1317   22.3511 C.3     1  UNL1        0.1027
     12 C         -12.4551  -16.2623   20.8130 C.3     1  UNL1        0.0859
     13 N         -11.8524  -16.2402   22.1864 N.3     1  UNL1       -0.2942
     14 H         -12.1373  -17.1046   22.6469 H       1  UNL1        0.1234
     15 O          -7.3924  -15.9194   22.6916 O.3     1  UNL1       -0.4722
     16 C          -7.1969  -15.8074   24.1746 C.ar    1  UNL1        0.1428
     17 C          -8.3868  -15.7103   25.0828 C.ar    1  UNL1        0.0369
     18 C          -8.1913  -15.5983   26.5657 C.ar    1  UNL1        0.0031
     19 C          -6.8059  -15.5833   27.1406 C.ar    1  UNL1        0.0001
     20 C          -5.6160  -15.6804   26.2325 C.ar    1  UNL1        0.0069
     21 C          -5.8115  -15.7924   24.7494 C.ar    1  UNL1        0.1053
     22 C          -4.6216  -15.8895   23.8413 C.3     1  UNL1        0.4214
     23 F          -3.4316  -15.9866   22.9332 F       1  UNL1       -0.1657
     24 F          -4.9952  -14.5802   23.2119 F       1  UNL1       -0.1657
     25 F          -4.2480  -17.1987   24.4708 F       1  UNL1       -0.1657
@<TRIPOS>BOND
     1    12    13    1
     2    13    11    1
     3     1    11    1
     4     1     2    1
     5     2     3    1
     6     3     4    1
     7     4     5   ar
     8     5     6   ar
     9     6     7   ar
    10     7     8   ar
    11     8     9   ar
    12     9    10    1
    13    10    15    1
    14    15    16    1
    15    16    17   ar
    16    17    18   ar
    17    18    19   ar
    18    19    20   ar
    19    20    21   ar
    20    21    22    1
    21    22    23    1
    22    22    24    1
    23    22    25    1
    24    10     1    1
    25    21    16   ar
    26     9     4   ar
    27    13    14    1
@<TRIPOS>MOLECULE
*****
 25 27 0 0 0
SMALL
GASTEIGER

@<TRIPOS>ATOM
      1 C          -6.2318  -16.5162   23.6015 C.3     1  UNL1        0.1753
      2 O          -7.5696  -15.8393   23.5566 O.3     1  UNL1       -0.3460
      3 C          -8.6490  -16.3702   22.6604 C.3     1  UNL1        0.1685
      4 C          -8.3905  -17.5779   21.8091 C.ar    1  UNL1        0.0067
      5 C          -9.4699  -18.1087   20.9129 C.ar    1  UNL1       -0.0021
      6 C          -9.2114  -19.3163   20.0616 C.ar    1  UNL1       -0.0003
      7 C          -7.8735  -19.9932   20.1065 C.ar    1  UNL1       -0.0002
      8 C          -6.7941  -19.4624   21.0027 C.ar    1  UNL1       -0.0010
      9 C          -7.0526  -18.2547   21.8540 C.ar    1  UNL1        0.0181
     10 C          -5.9733  -17.7238   22.7502 C.3     1  UNL1        0.2161
     11 C          -5.1524  -15.9853   24.4977 C.3     1  UNL1        0.1027
     12 C          -6.2249  -15.3466   26.7762 C.3     1  UNL1        0.0859
     13 N          -5.4795  -14.9529   25.5355 N.3     1  UNL1       -0.2942
     14 H          -4.5932  -14.5501   25.8398 H       1  UNL1        0.1234
     15 O          -4.6354  -18.4007   22.7951 O.3     1  UNL1       -0.4722
     16 C          -3.4831  -17.8368   22.0179 C.ar    1  UNL1        0.1428
     17 C          -2.8661  -16.5333   22.4308 C.ar    1  UNL1        0.0369
     18 C          -1.7139  -15.9694   21.6535 C.ar    1  UNL1        0.0031
     19 C          -1.1785  -16.7089   20.4633 C.ar    1  UNL1        0.0001
     20 C          -1.7954  -18.0123   20.0504 C.ar    1  UNL1        0.0069
     21 C          -2.9478  -18.5763   20.8277 C.ar    1  UNL1        0.1053
     22 C          -3.5647  -19.8797   20.4148 C.3     1  UNL1        0.4214
     23 F          -4.1816  -21.1831   20.0019 F       1  UNL1       -0.1657
     24 F          -4.2061  -19.2037   19.2394 F       1  UNL1       -0.1657
     25 F          -2.9233  -20.5556   21.5902 F       1  UNL1       -0.1657
@<TRIPOS>BOND
     1    12    13    1
     2    13    11    1
     3     1    11    1
     4     1     2    1
     5     2     3    1
     6     3     4    1
     7     4     5   ar
     8     5     6   ar
     9     6     7   ar
    10     7     8   ar
    11     8     9   ar
    12     9    10    1
    13    10    15    1
    14    15    16    1
    15    16    17   ar
    16    17    18   ar
    17    18    19   ar
    18    19    20   ar
    19    20    21   ar
    20    21    22    1
    21    22    23    1
    22    22    24    1
    23    22    25    1
    24    10     1    1
    25    21    16   ar
    26     9     4   ar
    27    13    14    1
