@<TRIPOS>MOLECULE
*****
 36 40 0 0 0
SMALL
GASTEIGER

@<TRIPOS>ATOM
      1 C         -10.3250  -19.0603   21.1361 C.ar    1  UNL1        0.0206
      2 C         -10.8148  -19.2929   19.7376 C.ar    1  UNL1        0.0016
      3 C          -9.9048  -19.9099   18.7171 C.ar    1  UNL1        0.0013
      4 C          -8.5051  -20.2944   19.0952 C.ar    1  UNL1        0.0147
      5 C          -8.0153  -20.0618   20.4938 C.ar    1  UNL1        0.0516
      6 C          -8.9252  -19.4448   21.5143 C.ar    1  UNL1        0.0163
      7 N          -6.6156  -20.4463   20.8719 N.am    1  UNL1       -0.2681
      8 C          -5.4846  -19.4905   20.6323 C.2     1  UNL1        0.3082
      9 O          -5.7533  -18.1503   20.0146 O.2     1  UNL1       -0.2522
     10 N          -4.0849  -19.8750   21.0104 N.am    1  UNL1       -0.2680
     11 H          -6.4392  -21.3259   21.2774 H       1  UNL1        0.1564
     12 H          -3.9086  -20.7546   21.4158 H       1  UNL1        0.1564
     13 C          -2.9539  -18.9192   20.7708 C.ar    1  UNL1        0.0546
     14 C          -2.4298  -18.0798   21.8980 C.ar    1  UNL1        0.0149
     15 C          -1.2988  -17.1240   21.6584 C.ar    1  UNL1        0.0044
     16 C          -0.6920  -17.0078   20.2916 C.ar    1  UNL1        0.0370
     17 C          -1.2160  -17.8473   19.1643 C.ar    1  UNL1        0.1400
     18 C          -2.3470  -18.8030   19.4039 C.ar    1  UNL1        0.0516
     19 O          -0.6091  -17.7310   17.7976 O.3     1  UNL1       -0.4714
     20 C          -1.4905  -17.7228   16.5838 C.3     1  UNL1        0.2525
     21 N         -13.1475  -18.0245   23.5908 N.ar    1  UNL1       -0.2495
     22 C         -12.1228  -16.9633   23.8629 C.ar    1  UNL1        0.0963
     23 C         -10.9408  -17.2222   22.9764 C.ar    1  UNL1        0.0351
     24 C         -11.2349  -18.4433   22.1566 C.ar    1  UNL1        0.1021
     25 N         -12.5987  -18.9392   22.5362 N.ar    1  UNL1       -0.1693
     26 C          -9.6851  -16.4036   22.9198 C.2     1  UNL1        0.0003
     27 C          -9.2502  -15.7860   21.6239 C.2     1  UNL1        0.0472
     28 C          -7.9947  -14.9674   21.5673 C.2     1  UNL1        0.2354
     29 N          -7.1738  -14.7664   22.8066 N.2     1  UNL1       -0.0341
     30 C          -7.6086  -15.3841   24.1025 C.2     1  UNL1        0.3593
     31 N          -7.0087  -15.3599   25.4771 N.2     1  UNL1       -0.0344
     32 C          -7.8936  -16.1635   26.3832 C.2     1  UNL1        0.2320
     33 C          -9.0404  -16.6844   25.5687 C.2     1  UNL1        0.0408
     34 C          -8.8643  -16.2027   24.1591 C.3     1  UNL1        0.1601
     35 C         -14.5698  -18.5043   25.7114 C.3     1  UNL1        0.0284
     36 C         -14.4859  -18.1491   24.2565 C.3     1  UNL1        0.1276
@<TRIPOS>BOND
     1    35    36    1
     2    36    21    1
     3    21    22   ar
     4    22    23   ar
     5    23    26    1
     6    26    27    2
     7    27    28    1
     8    28    29    2
     9    29    30    1
    10    30    31    2
    11    31    32    1
    12    32    33    2
    13    33    34    1
    14    23    24   ar
    15    24     1    1
    16     1     2   ar
    17     2     3   ar
    18     3     4   ar
    19     4     5   ar
    20     5     7    1
    21     7     8   am
    22     8     9    2
    23     8    10   am
    24    10    13    1
    25    13    14   ar
    26    14    15   ar
    27    15    16   ar
    28    16    17   ar
    29    17    19    1
    30    19    20    1
    31    17    18   ar
    32     5     6   ar
    33    24    25   ar
    34    25    21   ar
    35    34    26    1
    36     6     1   ar
    37    34    30    1
    38    18    13   ar
    39     7    11    1
    40    10    12    1
@<TRIPOS>MOLECULE
*****
 36 40 0 0 0
SMALL
GASTEIGER

@<TRIPOS>ATOM
      1 C           3.1131    0.4843   19.6628 C.ar    1  UNL1        0.0206
      2 C           1.7869    0.0076   19.1491 C.ar    1  UNL1        0.0016
      3 C           0.5411    0.2526   19.9478 C.ar    1  UNL1        0.0013
      4 C           0.6215    0.9743   21.2603 C.ar    1  UNL1        0.0147
      5 C           1.9478    1.4510   21.7741 C.ar    1  UNL1        0.0516
      6 C           3.1935    1.2060   20.9753 C.ar    1  UNL1        0.0163
      7 N           2.0282    2.1727   23.0866 N.am    1  UNL1       -0.2681
      8 C           2.0829    1.3949   24.3680 C.2     1  UNL1        0.3082
      9 O           2.0572   -0.1045   24.3370 O.2     1  UNL1       -0.2522
     10 N           2.1633    2.1166   25.6805 N.am    1  UNL1       -0.2680
     11 H           2.0450    3.1568   23.1070 H       1  UNL1        0.1564
     12 H           2.1801    3.1008   25.7009 H       1  UNL1        0.1564
     13 C           2.2180    1.3389   26.9620 C.ar    1  UNL1        0.0546
     14 C           3.5380    1.0768   27.6244 C.ar    1  UNL1        0.0149
     15 C           3.5927    0.2990   28.9059 C.ar    1  UNL1        0.0044
     16 C           2.3274   -0.2166   29.5249 C.ar    1  UNL1        0.0370
     17 C           1.0074    0.0455   28.8624 C.ar    1  UNL1        0.1400
     18 C           0.9526    0.8232   27.5810 C.ar    1  UNL1        0.0516
     19 O          -0.2579   -0.4701   29.4814 O.3     1  UNL1       -0.4714
     20 C          -1.5799    0.1192   29.0876 C.3     1  UNL1        0.2525
     21 N           6.2652    0.5745   17.3999 N.ar    1  UNL1       -0.2495
     22 C           6.2865   -0.8498   17.8699 C.ar    1  UNL1        0.0963
     23 C           5.1083   -1.0569   18.7748 C.ar    1  UNL1        0.0351
     24 C           4.3589    0.2393   18.8640 C.ar    1  UNL1        0.1021
     25 N           5.0738    1.2476   18.0143 N.ar    1  UNL1       -0.1693
     26 C           4.7436   -2.3358   19.4687 C.2     1  UNL1        0.0003
     27 C           4.2483   -3.5064   18.6721 C.2     1  UNL1        0.0472
     28 C           3.8836   -4.7852   19.3659 C.2     1  UNL1        0.2354
     29 N           4.0142   -4.8936   20.8563 N.2     1  UNL1       -0.0341
     30 C           4.5094   -3.7231   21.6529 C.2     1  UNL1        0.3593
     31 N           4.7403   -3.5350   23.1230 N.2     1  UNL1       -0.0344
     32 C           5.2477   -2.1399   23.3378 C.2     1  UNL1        0.2320
     33 C           5.3304   -1.4657   22.0004 C.2     1  UNL1        0.0408
     34 C           4.8741   -2.4442   20.9590 C.3     1  UNL1        0.1601
     35 C           8.5042    1.8408   17.0342 C.3     1  UNL1        0.0284
     36 C           7.2606    1.2135   16.4774 C.3     1  UNL1        0.1276
@<TRIPOS>BOND
     1    35    36    1
     2    36    21    1
     3    21    22   ar
     4    22    23   ar
     5    23    26    1
     6    26    27    2
     7    27    28    1
     8    28    29    2
     9    29    30    1
    10    30    31    2
    11    31    32    1
    12    32    33    2
    13    33    34    1
    14    23    24   ar
    15    24     1    1
    16     1     2   ar
    17     2     3   ar
    18     3     4   ar
    19     4     5   ar
    20     5     7    1
    21     7     8   am
    22     8     9    2
    23     8    10   am
    24    10    13    1
    25    13    14   ar
    26    14    15   ar
    27    15    16   ar
    28    16    17   ar
    29    17    19    1
    30    19    20    1
    31    17    18   ar
    32     5     6   ar
    33    24    25   ar
    34    25    21   ar
    35    34    26    1
    36     6     1   ar
    37    34    30    1
    38    18    13   ar
    39     7    11    1
    40    10    12    1
@<TRIPOS>MOLECULE
*****
 36 40 0 0 0
SMALL
GASTEIGER

@<TRIPOS>ATOM
      1 C           3.6679   -0.0504   22.3637 C.ar    1  UNL1        0.0206
      2 C           5.1537    0.0343   22.1759 C.ar    1  UNL1        0.0016
      3 C           6.0747   -0.3761   23.2864 C.ar    1  UNL1        0.0013
      4 C           5.5099   -0.8712   24.5848 C.ar    1  UNL1        0.0147
      5 C           4.0241   -0.9559   24.7727 C.ar    1  UNL1        0.0516
      6 C           3.1031   -0.5455   23.6621 C.ar    1  UNL1        0.0163
      7 N           3.4593   -1.4510   26.0711 N.am    1  UNL1       -0.2681
      8 C           3.0333   -0.4727   27.1253 C.2     1  UNL1        0.3082
      9 O           3.1721    1.0007   26.8811 O.2     1  UNL1       -0.2522
     10 N           2.4686   -0.9678   28.4237 N.am    1  UNL1       -0.2680
     11 H           3.3682   -2.4181   26.2314 H       1  UNL1        0.1564
     12 H           2.3775   -1.9349   28.5840 H       1  UNL1        0.1564
     13 C           2.0426    0.0105   29.4779 C.ar    1  UNL1        0.0546
     14 C           0.8966    0.9425   29.2171 C.ar    1  UNL1        0.0149
     15 C           0.4706    1.9208   30.2713 C.ar    1  UNL1        0.0044
     16 C           1.1906    1.9672   31.5864 C.ar    1  UNL1        0.0370
     17 C           2.3367    1.0352   31.8472 C.ar    1  UNL1        0.1400
     18 C           2.7627    0.0569   30.7930 C.ar    1  UNL1        0.0516
     19 O           3.0567    1.0816   33.1623 O.3     1  UNL1       -0.4714
     20 C           4.0997    0.0524   33.4830 C.3     1  UNL1        0.2525
     21 N           1.0385    1.5255   19.9830 N.ar    1  UNL1       -0.2495
     22 C           1.6210    0.4576   19.1053 C.ar    1  UNL1        0.0963
     23 C           2.6769   -0.2628   19.8904 C.ar    1  UNL1        0.0351
     24 C           2.7469    0.3600   21.2531 C.ar    1  UNL1        0.1021
     25 N           1.7344    1.4651   21.3104 N.ar    1  UNL1       -0.1693
     26 C           3.5154   -1.4052   19.3988 C.2     1  UNL1        0.0003
     27 C           3.1102   -2.8174   19.7012 C.2     1  UNL1        0.0472
     28 C           3.9487   -3.9599   19.2097 C.2     1  UNL1        0.2354
     29 N           5.1925   -3.6902   18.4157 N.2     1  UNL1       -0.0341
     30 C           5.5977   -2.2780   18.1133 C.2     1  UNL1        0.3593
     31 N           6.7622   -1.7075   17.3594 N.2     1  UNL1       -0.0344
     32 C           6.6434   -0.2124   17.3850 C.2     1  UNL1        0.2320
     33 C           5.4054    0.1411   18.1547 C.2     1  UNL1        0.0408
     34 C           4.7591   -1.1355   18.6049 C.3     1  UNL1        0.1601
     35 C          -1.1492    2.7976   20.5710 C.3     1  UNL1        0.0284
     36 C          -0.0489    2.4852   19.6005 C.3     1  UNL1        0.1276
@<TRIPOS>BOND
     1    35    36    1
     2    36    21    1
     3    21    22   ar
     4    22    23   ar
     5    23    26    1
     6    26    27    2
     7    27    28    1
     8    28    29    2
     9    29    30    1
    10    30    31    2
    11    31    32    1
    12    32    33    2
    13    33    34    1
    14    23    24   ar
    15    24     1    1
    16     1     2   ar
    17     2     3   ar
    18     3     4   ar
    19     4     5   ar
    20     5     7    1
    21     7     8   am
    22     8     9    2
    23     8    10   am
    24    10    13    1
    25    13    14   ar
    26    14    15   ar
    27    15    16   ar
    28    16    17   ar
    29    17    19    1
    30    19    20    1
    31    17    18   ar
    32     5     6   ar
    33    24    25   ar
    34    25    21   ar
    35    34    26    1
    36     6     1   ar
    37    34    30    1
    38    18    13   ar
    39     7    11    1
    40    10    12    1
@<TRIPOS>MOLECULE
*****
 36 40 0 0 0
SMALL
GASTEIGER

@<TRIPOS>ATOM
      1 C           5.1654   -1.2575   23.1730 C.ar    1  UNL1        0.0206
      2 C           6.4462   -0.4830   23.0748 C.ar    1  UNL1        0.0016
      3 C           7.7097   -1.0465   23.6546 C.ar    1  UNL1        0.0013
      4 C           7.6924   -2.3843   24.3326 C.ar    1  UNL1        0.0147
      5 C           6.4115   -3.1589   24.4308 C.ar    1  UNL1        0.0516
      6 C           5.1480   -2.5954   23.8510 C.ar    1  UNL1        0.0163
      7 N           6.3942   -4.4967   25.1089 N.am    1  UNL1       -0.2681
      8 C           6.9681   -4.6468   26.4866 C.2     1  UNL1        0.3082
      9 O           7.5594   -3.4591   27.1862 O.2     1  UNL1       -0.2522
     10 N           6.9508   -5.9847   27.1646 N.am    1  UNL1       -0.2680
     11 H           6.0061   -5.2763   24.6496 H       1  UNL1        0.1564
     12 H           6.5627   -6.7643   26.7054 H       1  UNL1        0.1564
     13 C           7.5247   -6.1348   28.5423 C.ar    1  UNL1        0.0546
     14 C           8.8378   -6.8337   28.7357 C.ar    1  UNL1        0.0149
     15 C           9.4117   -6.9838   30.1134 C.ar    1  UNL1        0.0044
     16 C           8.6726   -6.4351   31.2977 C.ar    1  UNL1        0.0370
     17 C           7.3595   -5.7361   31.1043 C.ar    1  UNL1        0.1400
     18 C           6.7856   -5.5860   29.7266 C.ar    1  UNL1        0.0516
     19 O           6.6205   -5.1873   32.2886 O.3     1  UNL1       -0.4714
     20 C           6.3400   -3.7167   32.3820 C.3     1  UNL1        0.2525
     21 N           1.8343    0.5507   22.3370 N.ar    1  UNL1       -0.2495
     22 C           2.0810   -0.2049   21.0650 C.ar    1  UNL1        0.0963
     23 C           3.3589   -0.9743   21.2233 C.ar    1  UNL1        0.0351
     24 C           3.9019   -0.6941   22.5932 C.ar    1  UNL1        0.1021
     25 N           2.9597    0.2484   23.2815 N.ar    1  UNL1       -0.1693
     26 C           3.9840   -1.8670   20.1927 C.2     1  UNL1        0.0003
     27 C           3.5763   -3.3077   20.1018 C.2     1  UNL1        0.0472
     28 C           4.2014   -4.2004   19.0713 C.2     1  UNL1        0.2354
     29 N           5.2342   -3.6526   18.1314 N.2     1  UNL1       -0.0341
     30 C           5.6419   -2.2119   18.2223 C.2     1  UNL1        0.3593
     31 N           6.6260   -1.3960   17.4376 N.2     1  UNL1       -0.0344
     32 C           6.6091    0.0011   17.9834 C.2     1  UNL1        0.2320
     33 C           5.6146    0.0486   19.1053 C.2     1  UNL1        0.0408
     34 C           5.0168   -1.3192   19.2529 C.3     1  UNL1        0.1601
     35 C           0.2926    1.7769   24.0311 C.3     1  UNL1        0.0284
     36 C           0.6670    1.4507   22.6157 C.3     1  UNL1        0.1276
@<TRIPOS>BOND
     1    35    36    1
     2    36    21    1
     3    21    22   ar
     4    22    23   ar
     5    23    26    1
     6    26    27    2
     7    27    28    1
     8    28    29    2
     9    29    30    1
    10    30    31    2
    11    31    32    1
    12    32    33    2
    13    33    34    1
    14    23    24   ar
    15    24     1    1
    16     1     2   ar
    17     2     3   ar
    18     3     4   ar
    19     4     5   ar
    20     5     7    1
    21     7     8   am
    22     8     9    2
    23     8    10   am
    24    10    13    1
    25    13    14   ar
    26    14    15   ar
    27    15    16   ar
    28    16    17   ar
    29    17    19    1
    30    19    20    1
    31    17    18   ar
    32     5     6   ar
    33    24    25   ar
    34    25    21   ar
    35    34    26    1
    36     6     1   ar
    37    34    30    1
    38    18    13   ar
    39     7    11    1
    40    10    12    1
@<TRIPOS>MOLECULE
*****
 36 40 0 0 0
SMALL
GASTEIGER

@<TRIPOS>ATOM
      1 C           5.0539   -0.8282   18.6648 C.ar    1  UNL1        0.0206
      2 C           4.0140   -1.7748   18.1428 C.ar    1  UNL1        0.0016
      3 C           4.0906   -3.2341   18.4812 C.ar    1  UNL1        0.0013
      4 C           5.2073   -3.7469   19.3415 C.ar    1  UNL1        0.0147
      5 C           6.2473   -2.8003   19.8635 C.ar    1  UNL1        0.0516
      6 C           6.1706   -1.3410   19.5251 C.ar    1  UNL1        0.0163
      7 N           7.3639   -3.3131   20.7238 N.am    1  UNL1       -0.2681
      8 C           7.0553   -4.0976   21.9644 C.2     1  UNL1        0.3082
      9 O           5.6300   -4.3694   22.3448 O.2     1  UNL1       -0.2522
     10 N           8.1719   -4.6104   22.8247 N.am    1  UNL1       -0.2680
     11 H           8.2994   -3.1347   20.4742 H       1  UNL1        0.1564
     12 H           9.1074   -4.4320   22.5751 H       1  UNL1        0.1564
     13 C           7.8633   -5.3950   24.0654 C.ar    1  UNL1        0.0546
     14 C           8.1403   -6.8685   24.1092 C.ar    1  UNL1        0.0149
     15 C           7.8316   -7.6531   25.3499 C.ar    1  UNL1        0.0044
     16 C           7.2460   -6.9641   26.5467 C.ar    1  UNL1        0.0370
     17 C           6.9689   -5.4905   26.5028 C.ar    1  UNL1        0.1400
     18 C           7.2776   -4.7060   25.2622 C.ar    1  UNL1        0.0516
     19 O           6.3832   -4.8016   27.6996 O.3     1  UNL1       -0.4714
     20 C           6.6126   -5.3594   29.0730 C.3     1  UNL1        0.2525
     21 N           5.4940    2.8184   17.4105 N.ar    1  UNL1       -0.2495
     22 C           4.2245    2.9350   18.2010 C.ar    1  UNL1        0.0963
     23 C           3.9052    1.5831   18.7670 C.ar    1  UNL1        0.0351
     24 C           4.9773    0.6311   18.3264 C.ar    1  UNL1        0.1021
     25 N           5.9592    1.3945   17.4881 N.ar    1  UNL1       -0.1693
     26 C           2.7215    1.2431   19.6234 C.2     1  UNL1        0.0003
     27 C           1.3565    1.1411   19.0099 C.2     1  UNL1        0.0472
     28 C           0.1729    0.8011   19.8661 C.2     1  UNL1        0.2354
     29 N           0.3542    0.5630   21.3360 N.2     1  UNL1       -0.0341
     30 C           1.7192    0.6649   21.9495 C.2     1  UNL1        0.3593
     31 N           2.2024    0.4850   23.3581 N.2     1  UNL1       -0.0344
     32 C           3.6848    0.7139   23.3723 C.2     1  UNL1        0.2320
     33 C           4.1177    1.0352   21.9725 C.2     1  UNL1        0.0408
     34 C           2.9028    1.0049   21.0932 C.3     1  UNL1        0.1601
     35 C           5.4096    5.1600   16.2880 C.3     1  UNL1        0.0284
     36 C           6.1782    3.9305   16.6722 C.3     1  UNL1        0.1276
@<TRIPOS>BOND
     1    35    36    1
     2    36    21    1
     3    21    22   ar
     4    22    23   ar
     5    23    26    1
     6    26    27    2
     7    27    28    1
     8    28    29    2
     9    29    30    1
    10    30    31    2
    11    31    32    1
    12    32    33    2
    13    33    34    1
    14    23    24   ar
    15    24     1    1
    16     1     2   ar
    17     2     3   ar
    18     3     4   ar
    19     4     5   ar
    20     5     7    1
    21     7     8   am
    22     8     9    2
    23     8    10   am
    24    10    13    1
    25    13    14   ar
    26    14    15   ar
    27    15    16   ar
    28    16    17   ar
    29    17    19    1
    30    19    20    1
    31    17    18   ar
    32     5     6   ar
    33    24    25   ar
    34    25    21   ar
    35    34    26    1
    36     6     1   ar
    37    34    30    1
    38    18    13   ar
    39     7    11    1
    40    10    12    1
@<TRIPOS>MOLECULE
*****
 36 40 0 0 0
SMALL
GASTEIGER

@<TRIPOS>ATOM
      1 C          -8.9218  -16.0207   23.8405 C.ar    1  UNL1        0.0206
      2 C          -9.1910  -15.9422   25.3140 C.ar    1  UNL1        0.0016
      3 C          -8.0953  -15.5405   26.2563 C.ar    1  UNL1        0.0013
      4 C          -6.7303  -15.2173   25.7251 C.ar    1  UNL1        0.0147
      5 C          -6.4609  -15.2957   24.2516 C.ar    1  UNL1        0.0516
      6 C          -7.5567  -15.6974   23.3092 C.ar    1  UNL1        0.0163
      7 N          -5.0959  -14.9725   23.7204 N.am    1  UNL1       -0.2681
      8 C          -4.3413  -15.9928   22.9207 C.2     1  UNL1        0.3082
      9 O          -4.9517  -17.3364   22.6522 O.2     1  UNL1       -0.2522
     10 N          -2.9763  -15.6696   22.3895 N.am    1  UNL1       -0.2680
     11 H          -4.6953  -14.0906   23.8966 H       1  UNL1        0.1564
     12 H          -2.5757  -14.7877   22.5657 H       1  UNL1        0.1564
     13 C          -2.2217  -16.6899   21.5898 C.ar    1  UNL1        0.0546
     14 C          -0.9583  -16.3021   20.8804 C.ar    1  UNL1        0.0149
     15 C          -0.2037  -17.3224   20.0807 C.ar    1  UNL1        0.0044
     16 C          -0.7125  -18.7306   19.9904 C.ar    1  UNL1        0.0370
     17 C          -1.9760  -19.1184   20.6998 C.ar    1  UNL1        0.1400
     18 C          -2.7306  -18.0981   21.4995 C.ar    1  UNL1        0.0516
     19 O          -2.4849  -20.5265   20.6095 O.3     1  UNL1       -0.4714
     20 C          -3.7490  -20.8204   19.8575 C.3     1  UNL1        0.2525
     21 N         -11.7996  -16.3226   21.2537 N.ar    1  UNL1       -0.2495
     22 C         -11.6076  -17.7586   21.6426 C.ar    1  UNL1        0.0963
     23 C         -10.5062  -17.8202   22.6590 C.ar    1  UNL1        0.0351
     24 C         -10.0175  -16.4224   22.8982 C.ar    1  UNL1        0.1021
     25 N         -10.8168  -15.4969   22.0297 N.ar    1  UNL1       -0.1693
     26 C          -9.9851  -19.0617   23.3201 C.2     1  UNL1        0.0003
     27 C         -10.7526  -19.6912   24.4447 C.2     1  UNL1        0.0472
     28 C         -10.2315  -20.9327   25.1057 C.2     1  UNL1        0.2354
     29 N          -8.9428  -21.5448   24.6423 N.2     1  UNL1       -0.0341
     30 C          -8.1753  -20.9153   23.5178 C.2     1  UNL1        0.3593
     31 N          -6.8852  -21.2894   22.8501 N.2     1  UNL1       -0.0344
     32 C          -6.6090  -20.2790   21.7764 C.2     1  UNL1        0.2320
     33 C          -7.7284  -19.2805   21.7804 C.2     1  UNL1        0.0408
     34 C          -8.6964  -19.6737   22.8567 C.3     1  UNL1        0.1601
     35 C         -12.3748  -15.5082   18.8545 C.3     1  UNL1        0.0284
     36 C         -12.7989  -15.8036   20.2627 C.3     1  UNL1        0.1276
@<TRIPOS>BOND
     1    35    36    1
     2    36    21    1
     3    21    22   ar
     4    22    23   ar
     5    23    26    1
     6    26    27    2
     7    27    28    1
     8    28    29    2
     9    29    30    1
    10    30    31    2
    11    31    32    1
    12    32    33    2
    13    33    34    1
    14    23    24   ar
    15    24     1    1
    16     1     2   ar
    17     2     3   ar
    18     3     4   ar
    19     4     5   ar
    20     5     7    1
    21     7     8   am
    22     8     9    2
    23     8    10   am
    24    10    13    1
    25    13    14   ar
    26    14    15   ar
    27    15    16   ar
    28    16    17   ar
    29    17    19    1
    30    19    20    1
    31    17    18   ar
    32     5     6   ar
    33    24    25   ar
    34    25    21   ar
    35    34    26    1
    36     6     1   ar
    37    34    30    1
    38    18    13   ar
    39     7    11    1
    40    10    12    1
@<TRIPOS>MOLECULE
*****
 36 40 0 0 0
SMALL
GASTEIGER

@<TRIPOS>ATOM
      1 C           6.5803   -3.8559   23.5967 C.ar    1  UNL1        0.0206
      2 C           7.8529   -4.1896   22.8763 C.ar    1  UNL1        0.0016
      3 C           7.8761   -4.2360   21.3772 C.ar    1  UNL1        0.0013
      4 C           6.6267   -3.9486   20.5985 C.ar    1  UNL1        0.0147
      5 C           5.3540   -3.6148   21.3189 C.ar    1  UNL1        0.0516
      6 C           5.3308   -3.5685   22.8180 C.ar    1  UNL1        0.0163
      7 N           4.1046   -3.3275   20.5402 N.am    1  UNL1       -0.2681
      8 C           3.6045   -1.9186   20.4179 C.2     1  UNL1        0.3082
      9 O           4.3537   -0.7971   21.0744 O.2     1  UNL1       -0.2522
     10 N           2.3551   -1.6312   19.6392 N.am    1  UNL1       -0.2680
     11 H           3.6129   -4.0635   20.1093 H       1  UNL1        0.1564
     12 H           1.8633   -2.3673   19.2084 H       1  UNL1        0.1564
     13 C           1.8549   -0.2224   19.5170 C.ar    1  UNL1        0.0546
     14 C           2.5902    0.7626   18.6573 C.ar    1  UNL1        0.0149
     15 C           2.0901    2.1715   18.5351 C.ar    1  UNL1        0.0044
     16 C           0.8546    2.5954   19.2725 C.ar    1  UNL1        0.0370
     17 C           0.1192    1.6103   20.1322 C.ar    1  UNL1        0.1400
     18 C           0.6193    0.2015   20.2544 C.ar    1  UNL1        0.0516
     19 O          -1.1163    2.0342   20.8696 O.3     1  UNL1       -0.4714
     20 C          -1.8954    3.2283   20.4036 C.3     1  UNL1        0.2525
     21 N           6.5545   -4.4871   27.4263 N.ar    1  UNL1       -0.2495
     22 C           6.4882   -2.9893   27.3789 C.ar    1  UNL1        0.0963
     23 C           6.4897   -2.5706   25.9385 C.ar    1  UNL1        0.0351
     24 C           6.5571   -3.8095   25.0958 C.ar    1  UNL1        0.1021
     25 N           6.5971   -4.9940   26.0152 N.ar    1  UNL1       -0.1693
     26 C           6.4338   -1.1604   25.4303 C.2     1  UNL1        0.0003
     27 C           7.6864   -0.3381   25.3604 C.2     1  UNL1        0.0472
     28 C           7.6305    1.0720   24.8522 C.2     1  UNL1        0.2354
     29 N           6.3220    1.6599   24.4137 N.2     1  UNL1       -0.0341
     30 C           5.0694    0.8377   24.4836 C.2     1  UNL1        0.3593
     31 N           3.6458    1.1448   24.1242 N.2     1  UNL1       -0.0344
     32 C           2.8220   -0.0756   24.4103 C.2     1  UNL1        0.2320
     33 C           3.7363   -1.1370   24.9466 C.2     1  UNL1        0.0408
     34 C           5.1253   -0.5725   24.9919 C.3     1  UNL1        0.1601
     35 C           7.7414   -6.2317   28.9421 C.3     1  UNL1        0.0284
     36 C           6.5747   -5.3299   28.6669 C.3     1  UNL1        0.1276
@<TRIPOS>BOND
     1    35    36    1
     2    36    21    1
     3    21    22   ar
     4    22    23   ar
     5    23    26    1
     6    26    27    2
     7    27    28    1
     8    28    29    2
     9    29    30    1
    10    30    31    2
    11    31    32    1
    12    32    33    2
    13    33    34    1
    14    23    24   ar
    15    24     1    1
    16     1     2   ar
    17     2     3   ar
    18     3     4   ar
    19     4     5   ar
    20     5     7    1
    21     7     8   am
    22     8     9    2
    23     8    10   am
    24    10    13    1
    25    13    14   ar
    26    14    15   ar
    27    15    16   ar
    28    16    17   ar
    29    17    19    1
    30    19    20    1
    31    17    18   ar
    32     5     6   ar
    33    24    25   ar
    34    25    21   ar
    35    34    26    1
    36     6     1   ar
    37    34    30    1
    38    18    13   ar
    39     7    11    1
    40    10    12    1
@<TRIPOS>MOLECULE
*****
 36 40 0 0 0
SMALL
GASTEIGER

@<TRIPOS>ATOM
      1 C           4.7177   -1.6777   19.2456 C.ar    1  UNL1        0.0206
      2 C           3.6178   -2.5860   18.7821 C.ar    1  UNL1        0.0016
      3 C           3.4797   -3.9583   19.3718 C.ar    1  UNL1        0.0013
      4 C           4.4415   -4.4223   20.4251 C.ar    1  UNL1        0.0147
      5 C           5.5416   -3.5140   20.8887 C.ar    1  UNL1        0.0516
      6 C           5.6797   -2.1417   20.2990 C.ar    1  UNL1        0.0163
      7 N           6.5035   -3.9779   21.9420 N.am    1  UNL1       -0.2681
      8 C           6.2426   -3.6658   23.3858 C.2     1  UNL1        0.3082
      9 O           5.0198   -2.8898   23.7763 O.2     1  UNL1       -0.2522
     10 N           7.2045   -4.1298   24.4391 N.am    1  UNL1       -0.2680
     11 H           7.3061   -4.4873   21.6857 H       1  UNL1        0.1564
     12 H           8.0071   -4.6392   24.1828 H       1  UNL1        0.1564
     13 C           6.9436   -3.8177   25.8829 C.ar    1  UNL1        0.0546
     14 C           6.7726   -2.3942   26.3235 C.ar    1  UNL1        0.0149
     15 C           6.5117   -2.0821   27.7673 C.ar    1  UNL1        0.0044
     16 C           6.4218   -3.1936   28.7705 C.ar    1  UNL1        0.0370
     17 C           6.5928   -4.6172   28.3299 C.ar    1  UNL1        0.1400
     18 C           6.8537   -4.9293   26.8861 C.ar    1  UNL1        0.0516
     19 O           6.5030   -5.7287   29.3331 O.3     1  UNL1       -0.4714
     20 C           6.9871   -5.5135   30.7364 C.3     1  UNL1        0.2525
     21 N           5.6877    1.5882   17.3861 N.ar    1  UNL1       -0.2495
     22 C           4.4489    2.0243   18.1109 C.ar    1  UNL1        0.0963
     23 C           3.9348    0.8539   18.8957 C.ar    1  UNL1        0.0351
     24 C           4.8558   -0.3054   18.6559 C.ar    1  UNL1        0.1021
     25 N           5.9391    0.1483   17.7230 N.ar    1  UNL1       -0.1693
     26 C           2.7140    0.8446   19.7672 C.2     1  UNL1        0.0003
     27 C           1.3495    0.9046   19.1473 C.2     1  UNL1        0.0472
     28 C           0.1287    0.8954   20.0187 C.2     1  UNL1        0.2354
     29 N           0.2724    0.8261   21.5103 N.2     1  UNL1       -0.0341
     30 C           1.6370    0.7661   22.1302 C.2     1  UNL1        0.3593
     31 N           2.0879    0.6923   23.5589 N.2     1  UNL1       -0.0344
     32 C           3.5874    0.6559   23.5704 C.2     1  UNL1        0.2320
     33 C           4.0632    0.7073   22.1488 C.2     1  UNL1        0.0408
     34 C           2.8578    0.7754   21.2587 C.3     1  UNL1        0.1601
     35 C           7.8697    1.9540   16.0240 C.3     1  UNL1        0.0284
     36 C           6.5275    2.4420   16.4830 C.3     1  UNL1        0.1276
@<TRIPOS>BOND
     1    35    36    1
     2    36    21    1
     3    21    22   ar
     4    22    23   ar
     5    23    26    1
     6    26    27    2
     7    27    28    1
     8    28    29    2
     9    29    30    1
    10    30    31    2
    11    31    32    1
    12    32    33    2
    13    33    34    1
    14    23    24   ar
    15    24     1    1
    16     1     2   ar
    17     2     3   ar
    18     3     4   ar
    19     4     5   ar
    20     5     7    1
    21     7     8   am
    22     8     9    2
    23     8    10   am
    24    10    13    1
    25    13    14   ar
    26    14    15   ar
    27    15    16   ar
    28    16    17   ar
    29    17    19    1
    30    19    20    1
    31    17    18   ar
    32     5     6   ar
    33    24    25   ar
    34    25    21   ar
    35    34    26    1
    36     6     1   ar
    37    34    30    1
    38    18    13   ar
    39     7    11    1
    40    10    12    1
@<TRIPOS>MOLECULE
*****
 36 40 0 0 0
SMALL
GASTEIGER

@<TRIPOS>ATOM
      1 C           6.9806   -4.9978   24.6445 C.ar    1  UNL1        0.0206
      2 C           7.9731   -5.9995   24.1334 C.ar    1  UNL1        0.0016
      3 C           8.5610   -7.0162   25.0665 C.ar    1  UNL1        0.0013
      4 C           8.1564   -7.0311   26.5108 C.ar    1  UNL1        0.0147
      5 C           7.1638   -6.0293   27.0220 C.ar    1  UNL1        0.0516
      6 C           6.5759   -5.0126   26.0889 C.ar    1  UNL1        0.0163
      7 N           6.7592   -6.0442   28.4663 N.am    1  UNL1       -0.2681
      8 C           7.0252   -4.8486   29.3321 C.2     1  UNL1        0.3082
      9 O           7.6960   -3.6380   28.7537 O.2     1  UNL1       -0.2522
     10 N           6.6206   -4.8635   30.7764 N.am    1  UNL1       -0.2680
     11 H           6.3189   -6.8388   28.8460 H       1  UNL1        0.1564
     12 H           6.1804   -5.6580   31.1561 H       1  UNL1        0.1564
     13 C           6.8867   -3.6679   31.6423 C.ar    1  UNL1        0.0546
     14 C           8.2979   -3.2724   31.9618 C.ar    1  UNL1        0.0149
     15 C           8.5640   -2.0768   32.8276 C.ar    1  UNL1        0.0044
     16 C           7.4189   -1.2766   33.3739 C.ar    1  UNL1        0.0370
     17 C           6.0076   -1.6720   33.0544 C.ar    1  UNL1        0.1400
     18 C           5.7415   -2.8677   32.1885 C.ar    1  UNL1        0.0516
     19 O           4.8625   -0.8719   33.6006 O.3     1  UNL1       -0.4714
     20 C           4.7714   -0.6017   35.0733 C.3     1  UNL1        0.2525
     21 N           5.3550   -2.9560   21.7717 N.ar    1  UNL1       -0.2495
     22 C           5.6211   -1.8772   22.7793 C.ar    1  UNL1        0.0963
     23 C           6.2625   -2.5108   23.9782 C.ar    1  UNL1        0.0351
     24 C           6.3927   -3.9811   23.7114 C.ar    1  UNL1        0.1021
     25 N           5.8318   -4.2563   22.3478 N.ar    1  UNL1       -0.1693
     26 C           6.6973   -1.7990   25.2249 C.2     1  UNL1        0.0003
     27 C           8.1530   -1.5285   25.4651 C.2     1  UNL1        0.0472
     28 C           8.5879   -0.8167   26.7117 C.2     1  UNL1        0.2354
     29 N           7.5670   -0.3753   27.7182 N.2     1  UNL1       -0.0341
     30 C           6.1113   -0.6458   27.4780 C.2     1  UNL1        0.3593
     31 N           4.8858   -0.3319   28.2840 N.2     1  UNL1       -0.0344
     32 C           3.6935   -0.8498   27.5354 C.2     1  UNL1        0.2320
     33 C           4.1822   -1.4837   26.2668 C.2     1  UNL1        0.0408
     34 C           5.6764   -1.3576   26.2313 C.3     1  UNL1        0.1601
     35 C           4.0216   -3.9140   19.7581 C.3     1  UNL1        0.0284
     36 C           4.7229   -2.7676   20.4245 C.3     1  UNL1        0.1276
@<TRIPOS>BOND
     1    35    36    1
     2    36    21    1
     3    21    22   ar
     4    22    23   ar
     5    23    26    1
     6    26    27    2
     7    27    28    1
     8    28    29    2
     9    29    30    1
    10    30    31    2
    11    31    32    1
    12    32    33    2
    13    33    34    1
    14    23    24   ar
    15    24     1    1
    16     1     2   ar
    17     2     3   ar
    18     3     4   ar
    19     4     5   ar
    20     5     7    1
    21     7     8   am
    22     8     9    2
    23     8    10   am
    24    10    13    1
    25    13    14   ar
    26    14    15   ar
    27    15    16   ar
    28    16    17   ar
    29    17    19    1
    30    19    20    1
    31    17    18   ar
    32     5     6   ar
    33    24    25   ar
    34    25    21   ar
    35    34    26    1
    36     6     1   ar
    37    34    30    1
    38    18    13   ar
    39     7    11    1
    40    10    12    1
