@<TRIPOS>MOLECULE
*****
 36 39 0 0 0
SMALL
GASTEIGER

@<TRIPOS>ATOM
      1 C         -10.6887   -5.4425   18.6345 C.2     1  UNL1        0.2015
      2 O          -9.6356   -6.1107   19.4676 O.2     1  UNL1       -0.2864
      3 C         -10.3103   -4.3408   17.6894 C.ar    1  UNL1        0.0611
      4 C          -9.1615   -4.3620   16.7251 C.ar    1  UNL1        0.1037
      5 N          -9.1556   -3.0588   15.9826 N.ar    1  UNL1       -0.2269
      6 C         -10.3006   -2.2320   16.4879 C.ar    1  UNL1        0.1407
      7 N         -10.7856   -0.8602   16.1237 N.ar    1  UNL1       -0.3374
      8 C         -11.9843   -0.2806   16.8145 C.ar    1  UNL1        0.0735
      9 C         -12.6980   -1.0729   17.8694 C.ar    1  UNL1        0.0201
     10 C         -12.2130   -2.4448   18.2336 C.ar    1  UNL1        0.0047
     11 C         -11.0143   -3.0244   17.5428 C.ar    1  UNL1        0.0386
     12 H         -10.3172   -0.3401   15.4313 H       1  UNL1        0.1674
     13 C         -13.8968   -0.4933   18.5602 C.ar    1  UNL1        0.0398
     14 C         -14.1457    0.9852   18.5162 C.ar    1  UNL1        0.1026
     15 N         -15.3444    1.5649   19.2070 N.ar    1  UNL1       -0.2196
     16 C         -16.2942    0.6659   19.9417 C.ar    1  UNL1        0.1901
     17 N         -16.0452   -0.8127   19.9857 N.ar    1  UNL1       -0.2196
     18 C         -14.8465   -1.3922   19.2949 C.ar    1  UNL1        0.1026
     19 S         -17.4929    1.2455   20.6324 S.3     1  UNL1       -0.0748
     20 C         -17.3292    1.9756   21.9325 C.3     1  UNL1        0.0772
     21 C         -14.0571   -7.4513   18.0268 C.ar    1  UNL1        0.0920
     22 C         -14.9837   -6.7429   18.9700 C.ar    1  UNL1        0.0204
     23 C         -14.4786   -5.6011   19.8014 C.ar    1  UNL1        0.0312
     24 C         -13.0470   -5.1676   19.6896 C.ar    1  UNL1        0.1454
     25 F         -12.5420   -4.0258   20.5209 F       1  UNL1       -0.2040
     26 C         -12.1204   -5.8759   18.7463 C.ar    1  UNL1        0.0951
     27 C         -12.6255   -7.0178   17.9150 C.ar    1  UNL1        0.1598
     28 F         -11.6988   -7.7261   16.9718 F       1  UNL1       -0.2026
     29 N         -14.5621   -8.5931   17.1954 N.pl3   1  UNL1       -0.2166
     30 H         -14.1110   -8.8250   16.3517 H       1  UNL1        0.1734
     31 S         -15.7546   -9.3816   17.6497 S.O2    1  UNL1        0.0540
     32 O         -16.6475   -8.5121   16.8150 O.2     1  UNL1       -0.1545
     33 O         -14.8617  -10.2511   18.4843 O.2     1  UNL1       -0.1545
     34 C         -16.9469  -10.1701   18.1039 C.3     1  UNL1        0.1724
     35 C         -18.1346   -8.7670   19.9400 C.3     1  UNL1        0.0019
     36 C         -17.4474  -10.0294   19.5110 C.3     1  UNL1        0.0273
@<TRIPOS>BOND
     1    35    36    1
     2    36    34    1
     3    34    31    1
     4    31    32    2
     5    31    33    2
     6    31    29    1
     7    29    21    1
     8    21    22   ar
     9    22    23   ar
    10    23    24   ar
    11    24    25    1
    12    24    26   ar
    13    26     1    1
    14     1     2    2
    15     1     3    1
    16     3     4   ar
    17     4     5   ar
    18     5     6   ar
    19     6     7   ar
    20     7     8   ar
    21     8     9   ar
    22     9    13    1
    23    13    14   ar
    24    14    15   ar
    25    15    16   ar
    26    16    19    1
    27    19    20    1
    28    16    17   ar
    29    17    18   ar
    30     9    10   ar
    31    10    11   ar
    32    26    27   ar
    33    27    28    1
    34    27    21   ar
    35    11     3   ar
    36    11     6    1
    37    18    13   ar
    38    29    30    1
    39     7    12    1
@<TRIPOS>MOLECULE
*****
 36 39 0 0 0
SMALL
GASTEIGER

@<TRIPOS>ATOM
      1 C         -11.0285   -6.4018   18.5331 C.2     1  UNL1        0.2015
      2 O         -10.2829   -7.1611   19.5901 O.2     1  UNL1       -0.2864
      3 C         -10.3881   -5.2213   17.8650 C.ar    1  UNL1        0.0611
      4 C          -9.0921   -5.2313   17.1100 C.ar    1  UNL1        0.1037
      5 N          -8.8344   -3.8396   16.6131 N.ar    1  UNL1       -0.2269
      6 C          -9.9712   -2.9695   17.0611 C.ar    1  UNL1        0.1407
      7 N         -10.2560   -1.5100   16.8645 N.ar    1  UNL1       -0.3374
      8 C         -11.5010   -0.9045   17.4416 C.ar    1  UNL1        0.0735
      9 C         -12.4613   -1.7584   18.2153 C.ar    1  UNL1        0.0201
     10 C         -12.1765   -3.2179   18.4120 C.ar    1  UNL1        0.0047
     11 C         -10.9315   -3.8235   17.8349 C.ar    1  UNL1        0.0386
     12 H          -9.6257   -0.9496   16.3566 H       1  UNL1        0.1674
     13 C         -13.7064   -1.1528   18.7924 C.ar    1  UNL1        0.0398
     14 C         -14.6546   -2.0013   19.5866 C.ar    1  UNL1        0.1026
     15 N         -15.8997   -1.3957   20.1637 N.ar    1  UNL1       -0.2196
     16 C         -16.1965    0.0585   19.9466 C.ar    1  UNL1        0.1901
     17 N         -15.2482    0.9071   19.1524 N.ar    1  UNL1       -0.2196
     18 C         -14.0032    0.3015   18.5754 C.ar    1  UNL1        0.1026
     19 S         -17.4416    0.6642   20.5237 S.3     1  UNL1       -0.0748
     20 C         -18.2570    1.6229   19.7076 C.3     1  UNL1        0.0772
     21 C         -14.9633   -6.9078   18.6410 C.ar    1  UNL1        0.0920
     22 C         -15.1867   -7.6656   17.3659 C.ar    1  UNL1        0.0204
     23 C         -14.0241   -8.0022   16.4799 C.ar    1  UNL1        0.0312
     24 C         -12.6380   -7.5810   16.8689 C.ar    1  UNL1        0.1454
     25 F         -11.4754   -7.9175   15.9829 F       1  UNL1       -0.2040
     26 C         -12.4146   -6.8231   18.1440 C.ar    1  UNL1        0.0951
     27 C         -13.5772   -6.4866   19.0300 C.ar    1  UNL1        0.1598
     28 F         -13.3537   -5.7287   20.3050 F       1  UNL1       -0.2026
     29 N         -16.1259   -6.5712   19.5270 N.pl3   1  UNL1       -0.2166
     30 H         -16.1146   -5.7443   20.0611 H       1  UNL1        0.1734
     31 S         -17.3058   -7.4946   19.5992 S.O2    1  UNL1        0.0540
     32 O         -18.1588   -6.4569   18.9318 O.2     1  UNL1       -0.1545
     33 O         -16.4528   -8.5324   20.2666 O.2     1  UNL1       -0.1545
     34 C         -18.4856   -8.4181   19.6714 C.3     1  UNL1        0.1724
     35 C         -18.5987   -9.6545   17.3891 C.3     1  UNL1        0.0019
     36 C         -18.4878   -9.6951   18.8844 C.3     1  UNL1        0.0273
@<TRIPOS>BOND
     1    35    36    1
     2    36    34    1
     3    34    31    1
     4    31    32    2
     5    31    33    2
     6    31    29    1
     7    29    21    1
     8    21    22   ar
     9    22    23   ar
    10    23    24   ar
    11    24    25    1
    12    24    26   ar
    13    26     1    1
    14     1     2    2
    15     1     3    1
    16     3     4   ar
    17     4     5   ar
    18     5     6   ar
    19     6     7   ar
    20     7     8   ar
    21     8     9   ar
    22     9    13    1
    23    13    14   ar
    24    14    15   ar
    25    15    16   ar
    26    16    19    1
    27    19    20    1
    28    16    17   ar
    29    17    18   ar
    30     9    10   ar
    31    10    11   ar
    32    26    27   ar
    33    27    28    1
    34    27    21   ar
    35    11     3   ar
    36    11     6    1
    37    18    13   ar
    38    29    30    1
    39     7    12    1
@<TRIPOS>MOLECULE
*****
 36 39 0 0 0
SMALL
GASTEIGER

@<TRIPOS>ATOM
      1 C         -12.5689   -4.0124   19.4528 C.2     1  UNL1        0.2015
      2 O         -13.2753   -4.0031   20.7759 O.2     1  UNL1       -0.2864
      3 C         -12.2432   -2.7186   18.7673 C.ar    1  UNL1        0.0611
      4 C         -11.0049   -2.4298   17.9715 C.ar    1  UNL1        0.1037
      5 N         -11.0950   -1.0191   17.4696 N.ar    1  UNL1       -0.2269
      6 C         -12.3889   -0.4361   17.9552 C.ar    1  UNL1        0.1407
      7 N         -13.0127    0.9155   17.7707 N.ar    1  UNL1       -0.3374
      8 C         -14.3460    1.2168   18.3882 C.ar    1  UNL1        0.0735
      9 C         -15.0556    0.1665   19.1902 C.ar    1  UNL1        0.0201
     10 C         -14.4319   -1.1851   19.3747 C.ar    1  UNL1        0.0047
     11 C         -13.0986   -1.4864   18.7572 C.ar    1  UNL1        0.0386
     12 H         -12.5469    1.6049   17.2443 H       1  UNL1        0.1674
     13 C         -16.3891    0.4678   19.8077 C.ar    1  UNL1        0.0398
     14 C         -16.7550    1.8817   20.1496 C.ar    1  UNL1        0.1026
     15 N         -18.0884    2.1830   20.7671 N.ar    1  UNL1       -0.2196
     16 C         -19.0559    1.0704   21.0427 C.ar    1  UNL1        0.1901
     17 N         -18.6899   -0.3436   20.7008 N.ar    1  UNL1       -0.2196
     18 C         -17.3566   -0.6449   20.0833 C.ar    1  UNL1        0.1026
     19 S         -20.3893    1.3716   21.6602 S.3     1  UNL1       -0.0748
     20 C         -20.4621    2.1018   22.9684 C.3     1  UNL1        0.0772
     21 C         -12.8512   -7.4535   17.4958 C.ar    1  UNL1        0.0920
     22 C         -11.4270   -7.9221   17.5396 C.ar    1  UNL1        0.0204
     23 C         -10.3834   -7.0875   18.2210 C.ar    1  UNL1        0.0312
     24 C         -10.7640   -5.7843   18.8587 C.ar    1  UNL1        0.1454
     25 F          -9.7204   -4.9497   19.5402 F       1  UNL1       -0.2040
     26 C         -12.1882   -5.3157   18.8150 C.ar    1  UNL1        0.0951
     27 C         -13.2318   -6.1503   18.1336 C.ar    1  UNL1        0.1598
     28 F         -14.6561   -5.6816   18.0899 F       1  UNL1       -0.2026
     29 N         -13.8948   -8.2881   16.8144 N.pl3   1  UNL1       -0.2166
     30 H         -13.7488   -8.6032   15.8932 H       1  UNL1        0.1734
     31 S         -15.1608   -8.6427   17.5365 S.O2    1  UNL1        0.0540
     32 O         -14.3622   -9.3595   18.5846 O.2     1  UNL1       -0.1545
     33 O         -15.9594   -7.9258   16.4885 O.2     1  UNL1       -0.1545
     34 C         -16.4268   -8.9972   18.2586 C.3     1  UNL1        0.1724
     35 C         -18.0586   -8.1148   20.0777 C.3     1  UNL1        0.0019
     36 C         -16.6694   -8.4796   19.6455 C.3     1  UNL1        0.0273
@<TRIPOS>BOND
     1    35    36    1
     2    36    34    1
     3    34    31    1
     4    31    32    2
     5    31    33    2
     6    31    29    1
     7    29    21    1
     8    21    22   ar
     9    22    23   ar
    10    23    24   ar
    11    24    25    1
    12    24    26   ar
    13    26     1    1
    14     1     2    2
    15     1     3    1
    16     3     4   ar
    17     4     5   ar
    18     5     6   ar
    19     6     7   ar
    20     7     8   ar
    21     8     9   ar
    22     9    13    1
    23    13    14   ar
    24    14    15   ar
    25    15    16   ar
    26    16    19    1
    27    19    20    1
    28    16    17   ar
    29    17    18   ar
    30     9    10   ar
    31    10    11   ar
    32    26    27   ar
    33    27    28    1
    34    27    21   ar
    35    11     3   ar
    36    11     6    1
    37    18    13   ar
    38    29    30    1
    39     7    12    1
@<TRIPOS>MOLECULE
*****
 36 39 0 0 0
SMALL
GASTEIGER

@<TRIPOS>ATOM
      1 C           4.6003   -3.7216   21.1327 C.2     1  UNL1        0.2015
      2 O           3.9135   -5.0364   20.9101 O.2     1  UNL1       -0.2864
      3 C           4.9198   -3.2689   22.5266 C.ar    1  UNL1        0.0611
      4 C           5.9532   -3.8687   23.4334 C.ar    1  UNL1        0.1037
      5 N           5.9340   -3.1073   24.7256 N.ar    1  UNL1       -0.2269
      6 C           4.8887   -2.0369   24.6175 C.ar    1  UNL1        0.1407
      7 N           4.4267   -0.9843   25.5810 N.ar    1  UNL1       -0.3374
      8 C           3.3378   -0.0314   25.1854 C.ar    1  UNL1        0.0735
      9 C           2.7110   -0.1313   23.8263 C.ar    1  UNL1        0.0201
     10 C           3.1731   -1.1840   22.8628 C.ar    1  UNL1        0.0047
     11 C           4.2619   -2.1368   23.2584 C.ar    1  UNL1        0.0386
     12 H           4.8381   -0.9187   26.4730 H       1  UNL1        0.1674
     13 C           1.6221    0.8216   23.4308 C.ar    1  UNL1        0.0398
     14 C           1.0387    0.7624   22.0502 C.ar    1  UNL1        0.1026
     15 N          -0.0502    1.7153   21.6546 N.ar    1  UNL1       -0.2196
     16 C          -0.5556    2.7273   22.6397 C.ar    1  UNL1        0.1901
     17 N           0.0279    2.7864   24.0204 N.ar    1  UNL1       -0.2196
     18 C           1.1167    1.8336   24.4159 C.ar    1  UNL1        0.1026
     19 S          -1.6444    3.6802   22.2442 S.3     1  UNL1       -0.0748
     20 C          -2.2812    3.5712   20.8905 C.3     1  UNL1        0.0772
     21 C           4.2951   -1.1355   18.1379 C.ar    1  UNL1        0.0920
     22 C           5.7025   -1.1355   17.6189 C.ar    1  UNL1        0.0204
     23 C           6.7424   -1.9975   18.2711 C.ar    1  UNL1        0.0312
     24 C           6.3751   -2.8596   19.4423 C.ar    1  UNL1        0.1454
     25 F           7.4150   -3.7216   20.0946 F       1  UNL1       -0.2040
     26 C           4.9678   -2.8596   19.9614 C.ar    1  UNL1        0.0951
     27 C           3.9278   -1.9975   19.3092 C.ar    1  UNL1        0.1598
     28 F           2.5205   -1.9976   19.8283 F       1  UNL1       -0.2026
     29 N           3.2552   -0.2734   17.4857 N.pl3   1  UNL1       -0.2166
     30 H           2.8905   -0.5225   16.6058 H       1  UNL1        0.1734
     31 S           2.7709    0.9682   18.1741 S.O2    1  UNL1        0.0540
     32 O           4.1689    1.5119   18.1769 O.2     1  UNL1       -0.1545
     33 O           1.3730    0.4245   18.1713 O.2     1  UNL1       -0.1545
     34 C           2.2866    2.2097   18.8624 C.3     1  UNL1        0.1724
     35 C           0.8470    4.2188   18.0615 C.3     1  UNL1        0.0019
     36 C           0.9497    2.7906   18.5083 C.3     1  UNL1        0.0273
@<TRIPOS>BOND
     1    35    36    1
     2    36    34    1
     3    34    31    1
     4    31    32    2
     5    31    33    2
     6    31    29    1
     7    29    21    1
     8    21    22   ar
     9    22    23   ar
    10    23    24   ar
    11    24    25    1
    12    24    26   ar
    13    26     1    1
    14     1     2    2
    15     1     3    1
    16     3     4   ar
    17     4     5   ar
    18     5     6   ar
    19     6     7   ar
    20     7     8   ar
    21     8     9   ar
    22     9    13    1
    23    13    14   ar
    24    14    15   ar
    25    15    16   ar
    26    16    19    1
    27    19    20    1
    28    16    17   ar
    29    17    18   ar
    30     9    10   ar
    31    10    11   ar
    32    26    27   ar
    33    27    28    1
    34    27    21   ar
    35    11     3   ar
    36    11     6    1
    37    18    13   ar
    38    29    30    1
    39     7    12    1
@<TRIPOS>MOLECULE
*****
 36 39 0 0 0
SMALL
GASTEIGER

@<TRIPOS>ATOM
      1 C           7.9923   -3.9639   23.3468 C.2     1  UNL1        0.2015
      2 O           9.1923   -3.0851   23.5397 O.2     1  UNL1       -0.2864
      3 C           7.0439   -3.7007   22.2149 C.ar    1  UNL1        0.0611
      4 C           7.1796   -4.2164   20.8129 C.ar    1  UNL1        0.1037
      5 N           6.0129   -3.7099   20.0178 N.ar    1  UNL1       -0.2269
      6 C           5.1561   -2.8812   20.9284 C.ar    1  UNL1        0.1407
      7 N           3.8780   -2.1311   20.6965 N.ar    1  UNL1       -0.3374
      8 C           3.2372   -1.3752   21.8225 C.ar    1  UNL1        0.0735
      9 C           3.8744   -1.3695   23.1804 C.ar    1  UNL1        0.0201
     10 C           5.1525   -2.1197   23.4123 C.ar    1  UNL1        0.0047
     11 C           5.7933   -2.8755   22.2863 C.ar    1  UNL1        0.0386
     12 H           3.4598   -2.1348   19.8052 H       1  UNL1        0.1674
     13 C           3.2335   -0.6137   24.3065 C.ar    1  UNL1        0.0398
     14 C           3.6819   -0.8485   25.7184 C.ar    1  UNL1        0.1026
     15 N           3.0410   -0.0926   26.8445 N.ar    1  UNL1       -0.2196
     16 C           1.9516    0.8981   26.5585 C.ar    1  UNL1        0.1901
     17 N           1.5032    1.1330   25.1464 N.ar    1  UNL1       -0.2196
     18 C           2.1441    0.3771   24.0205 C.ar    1  UNL1        0.1026
     19 S           1.3107    1.6540   27.6845 S.3     1  UNL1       -0.0748
     20 C          -0.1636    1.5269   27.9296 C.3     1  UNL1        0.0772
     21 C           6.7646   -6.0113   26.5172 C.ar    1  UNL1        0.0920
     22 C           7.2370   -7.3905   26.1643 C.ar    1  UNL1        0.0204
     23 C           7.9611   -7.6276   24.8722 C.ar    1  UNL1        0.0312
     24 C           8.2129   -6.4855   23.9331 C.ar    1  UNL1        0.1454
     25 F           8.9370   -6.7225   22.6410 F       1  UNL1       -0.2040
     26 C           7.7405   -5.1062   24.2860 C.ar    1  UNL1        0.0951
     27 C           7.0164   -4.8692   25.5781 C.ar    1  UNL1        0.1598
     28 F           6.5440   -3.4899   25.9309 F       1  UNL1       -0.2026
     29 N           6.0404   -5.7743   27.8093 N.pl3   1  UNL1       -0.2166
     30 H           5.0879   -6.0098   27.8902 H       1  UNL1        0.1734
     31 S           6.7676   -5.1785   28.9782 S.O2    1  UNL1        0.0540
     32 O           6.0100   -3.8967   28.7961 O.2     1  UNL1       -0.1545
     33 O           7.5252   -6.4602   29.1603 O.2     1  UNL1       -0.1545
     34 C           7.4947   -4.5827   30.1470 C.3     1  UNL1        0.1724
     35 C           6.4328   -3.4724   32.2423 C.3     1  UNL1        0.0019
     36 C           6.9182   -4.6983   31.5270 C.3     1  UNL1        0.0273
@<TRIPOS>BOND
     1    35    36    1
     2    36    34    1
     3    34    31    1
     4    31    32    2
     5    31    33    2
     6    31    29    1
     7    29    21    1
     8    21    22   ar
     9    22    23   ar
    10    23    24   ar
    11    24    25    1
    12    24    26   ar
    13    26     1    1
    14     1     2    2
    15     1     3    1
    16     3     4   ar
    17     4     5   ar
    18     5     6   ar
    19     6     7   ar
    20     7     8   ar
    21     8     9   ar
    22     9    13    1
    23    13    14   ar
    24    14    15   ar
    25    15    16   ar
    26    16    19    1
    27    19    20    1
    28    16    17   ar
    29    17    18   ar
    30     9    10   ar
    31    10    11   ar
    32    26    27   ar
    33    27    28    1
    34    27    21   ar
    35    11     3   ar
    36    11     6    1
    37    18    13   ar
    38    29    30    1
    39     7    12    1
@<TRIPOS>MOLECULE
*****
 36 39 0 0 0
SMALL
GASTEIGER

@<TRIPOS>ATOM
      1 C           6.5026   -1.8445   30.1112 C.2     1  UNL1        0.2015
      2 O           7.6824   -0.9413   29.9058 O.2     1  UNL1       -0.2864
      3 C           6.6853   -3.3332   30.0914 C.ar    1  UNL1        0.0611
      4 C           6.7747   -4.2266   31.2930 C.ar    1  UNL1        0.1037
      5 N           6.9553   -5.6354   30.8107 N.ar    1  UNL1       -0.2269
      6 C           6.9774   -5.6127   29.3110 C.ar    1  UNL1        0.1407
      7 N           7.1280   -6.7039   28.2929 N.ar    1  UNL1       -0.3374
      8 C           7.1116   -6.3722   26.8301 C.ar    1  UNL1        0.0735
      9 C           6.9448   -4.9493   26.3856 C.ar    1  UNL1        0.0201
     10 C           6.7942   -3.8582   27.4037 C.ar    1  UNL1        0.0047
     11 C           6.8105   -4.1899   28.8665 C.ar    1  UNL1        0.0386
     12 H           7.2375   -7.6377   28.5846 H       1  UNL1        0.1674
     13 C           6.9284   -4.6176   24.9227 C.ar    1  UNL1        0.0398
     14 C           6.1216   -3.4546   24.4263 C.ar    1  UNL1        0.1026
     15 N           6.1053   -3.1229   22.9635 N.ar    1  UNL1       -0.2196
     16 C           6.8958   -3.9543   21.9971 C.ar    1  UNL1        0.1901
     17 N           7.7027   -5.1173   22.4936 N.ar    1  UNL1       -0.2196
     18 C           7.7190   -5.4490   23.9563 C.ar    1  UNL1        0.1026
     19 S           6.8796   -3.6227   20.5344 S.3     1  UNL1       -0.0748
     20 C           5.5835   -3.6245   19.7794 C.3     1  UNL1        0.0772
     21 C           2.8142   -0.5539   29.4180 C.ar    1  UNL1        0.0920
     22 C           2.4150   -0.0880   30.7868 C.ar    1  UNL1        0.0204
     23 C           3.3783   -0.2076   31.9303 C.ar    1  UNL1        0.0312
     24 C           4.7408   -0.7931   31.7052 C.ar    1  UNL1        0.1454
     25 F           5.7041   -0.9126   32.8487 F       1  UNL1       -0.2040
     26 C           5.1400   -1.2590   30.3364 C.ar    1  UNL1        0.0951
     27 C           4.1767   -1.1394   29.1928 C.ar    1  UNL1        0.1598
     28 F           4.5760   -1.6053   27.8241 F       1  UNL1       -0.2026
     29 N           1.8509   -0.4343   28.2744 N.pl3   1  UNL1       -0.2166
     30 H           1.8126   -1.1384   27.5874 H       1  UNL1        0.1734
     31 S           0.9460    0.7581   28.1777 S.O2    1  UNL1        0.0540
     32 O          -0.2279   -0.1036   28.5373 O.2     1  UNL1       -0.1545
     33 O           2.1199    1.6198   27.8180 O.2     1  UNL1       -0.1545
     34 C           0.0412    1.9505   28.0809 C.3     1  UNL1        0.1724
     35 C          -0.5742    1.9261   25.5568 C.3     1  UNL1        0.0019
     36 C          -0.9907    2.0228   26.9945 C.3     1  UNL1        0.0273
@<TRIPOS>BOND
     1    35    36    1
     2    36    34    1
     3    34    31    1
     4    31    32    2
     5    31    33    2
     6    31    29    1
     7    29    21    1
     8    21    22   ar
     9    22    23   ar
    10    23    24   ar
    11    24    25    1
    12    24    26   ar
    13    26     1    1
    14     1     2    2
    15     1     3    1
    16     3     4   ar
    17     4     5   ar
    18     5     6   ar
    19     6     7   ar
    20     7     8   ar
    21     8     9   ar
    22     9    13    1
    23    13    14   ar
    24    14    15   ar
    25    15    16   ar
    26    16    19    1
    27    19    20    1
    28    16    17   ar
    29    17    18   ar
    30     9    10   ar
    31    10    11   ar
    32    26    27   ar
    33    27    28    1
    34    27    21   ar
    35    11     3   ar
    36    11     6    1
    37    18    13   ar
    38    29    30    1
    39     7    12    1
@<TRIPOS>MOLECULE
*****
 36 39 0 0 0
SMALL
GASTEIGER

@<TRIPOS>ATOM
      1 C           8.0782   -3.9130   23.0046 C.2     1  UNL1        0.2015
      2 O           9.1348   -2.8602   23.1629 O.2     1  UNL1       -0.2864
      3 C           8.3152   -5.2983   23.5289 C.ar    1  UNL1        0.0611
      4 C           8.7490   -6.4848   22.7204 C.ar    1  UNL1        0.1037
      5 N           8.8618   -7.6600   23.6457 N.ar    1  UNL1       -0.2269
      6 C           8.4977   -7.1998   25.0261 C.ar    1  UNL1        0.1407
      7 N           8.4301   -7.9212   26.3394 N.ar    1  UNL1       -0.3374
      8 C           8.0247   -7.1830   27.5806 C.ar    1  UNL1        0.0735
      9 C           7.6869   -5.7233   27.5085 C.ar    1  UNL1        0.0201
     10 C           7.7545   -5.0019   26.1952 C.ar    1  UNL1        0.0047
     11 C           8.1599   -5.7401   24.9540 C.ar    1  UNL1        0.0386
     12 H           8.6519   -8.8793   26.3868 H       1  UNL1        0.1674
     13 C           7.2815   -4.9851   28.7498 C.ar    1  UNL1        0.0398
     14 C           7.2230   -5.7043   30.0648 C.ar    1  UNL1        0.1026
     15 N           6.8176   -4.9661   31.3061 N.ar    1  UNL1       -0.2196
     16 C           6.4707   -3.5086   31.2323 C.ar    1  UNL1        0.1901
     17 N           6.5292   -2.7894   29.9172 N.ar    1  UNL1       -0.2196
     18 C           6.9346   -3.5276   28.6760 C.ar    1  UNL1        0.1026
     19 S           6.0653   -2.7704   32.4735 S.3     1  UNL1       -0.0748
     20 C           4.6120   -2.5676   32.7845 C.3     1  UNL1        0.0772
     21 C           5.4289   -3.1802   20.1420 C.ar    1  UNL1        0.0920
     22 C           4.1974   -2.9157   20.9565 C.ar    1  UNL1        0.0204
     23 C           4.2595   -2.9836   22.4536 C.ar    1  UNL1        0.0312
     24 C           5.5531   -3.3160   23.1364 C.ar    1  UNL1        0.1454
     25 F           5.6152   -3.3839   24.6335 F       1  UNL1       -0.2040
     26 C           6.7846   -3.5806   22.3219 C.ar    1  UNL1        0.0951
     27 C           6.7225   -3.5127   20.8247 C.ar    1  UNL1        0.1598
     28 F           7.9540   -3.7773   20.0103 F       1  UNL1       -0.2026
     29 N           5.3668   -3.1124   18.6448 N.pl3   1  UNL1       -0.2166
     30 H           5.2826   -3.9395   18.1176 H       1  UNL1        0.1734
     31 S           5.4331   -1.7842   17.9509 S.O2    1  UNL1        0.0540
     32 O           6.8548   -2.0594   17.5600 O.2     1  UNL1       -0.1545
     33 O           4.0113   -1.5090   18.3418 O.2     1  UNL1       -0.1545
     34 C           5.4992   -0.4560   17.2570 C.3     1  UNL1        0.1724
     35 C           7.0048    1.3095   16.0879 C.3     1  UNL1        0.0019
     36 C           6.8070    0.2711   17.1523 C.3     1  UNL1        0.0273
@<TRIPOS>BOND
     1    35    36    1
     2    36    34    1
     3    34    31    1
     4    31    32    2
     5    31    33    2
     6    31    29    1
     7    29    21    1
     8    21    22   ar
     9    22    23   ar
    10    23    24   ar
    11    24    25    1
    12    24    26   ar
    13    26     1    1
    14     1     2    2
    15     1     3    1
    16     3     4   ar
    17     4     5   ar
    18     5     6   ar
    19     6     7   ar
    20     7     8   ar
    21     8     9   ar
    22     9    13    1
    23    13    14   ar
    24    14    15   ar
    25    15    16   ar
    26    16    19    1
    27    19    20    1
    28    16    17   ar
    29    17    18   ar
    30     9    10   ar
    31    10    11   ar
    32    26    27   ar
    33    27    28    1
    34    27    21   ar
    35    11     3   ar
    36    11     6    1
    37    18    13   ar
    38    29    30    1
    39     7    12    1
@<TRIPOS>MOLECULE
*****
 36 39 0 0 0
SMALL
GASTEIGER

@<TRIPOS>ATOM
      1 C         -17.9079   -1.8681   19.7567 C.2     1  UNL1        0.2015
      2 O         -18.9036   -1.6715   20.8612 O.2     1  UNL1       -0.2864
      3 C         -16.9724   -0.7566   19.3836 C.ar    1  UNL1        0.0611
      4 C         -17.3449    0.6846   19.1988 C.ar    1  UNL1        0.1037
      5 N         -16.1028    1.4408   18.8307 N.ar    1  UNL1       -0.2269
      6 C         -14.9627    0.4669   18.7879 C.ar    1  UNL1        0.1407
      7 N         -13.5047    0.6413   18.4820 N.ar    1  UNL1       -0.3374
      8 C         -12.5841   -0.5424   18.5177 C.ar    1  UNL1        0.0735
      9 C         -13.1216   -1.9005   18.8594 C.ar    1  UNL1        0.0201
     10 C         -14.5796   -2.0749   19.1654 C.ar    1  UNL1        0.0047
     11 C         -15.5002   -0.8912   19.1296 C.ar    1  UNL1        0.0386
     12 H         -13.1519    1.5326   18.2577 H       1  UNL1        0.1674
     13 C         -12.2009   -3.0842   18.8952 C.ar    1  UNL1        0.0398
     14 C         -10.7533   -2.9195   18.5387 C.ar    1  UNL1        0.1026
     15 N          -9.8326   -4.1032   18.5744 N.ar    1  UNL1       -0.2196
     16 C         -10.3596   -5.4517   18.9667 C.ar    1  UNL1        0.1901
     17 N         -11.8074   -5.6164   19.3233 N.ar    1  UNL1       -0.2196
     18 C         -12.7279   -4.4327   19.2875 C.ar    1  UNL1        0.1026
     19 S          -9.4390   -6.6354   19.0025 S.3     1  UNL1       -0.0748
     20 C          -9.7914   -7.8825   18.2473 C.3     1  UNL1        0.0772
     21 C         -16.9799   -5.6192   18.8517 C.ar    1  UNL1        0.0920
     22 C         -17.7274   -5.7930   17.5628 C.ar    1  UNL1        0.0204
     23 C         -18.5350   -4.6586   17.0053 C.ar    1  UNL1        0.0312
     24 C         -18.5952   -3.3503   17.7366 C.ar    1  UNL1        0.1454
     25 F         -19.4028   -2.2159   17.1790 F       1  UNL1       -0.2040
     26 C         -17.8478   -3.1765   19.0254 C.ar    1  UNL1        0.0951
     27 C         -17.0401   -4.3109   19.5829 C.ar    1  UNL1        0.1598
     28 F         -16.2927   -4.1370   20.8718 F       1  UNL1       -0.2026
     29 N         -16.1723   -6.7536   19.4092 N.pl3   1  UNL1       -0.2166
     30 H         -15.3027   -6.5760   19.8353 H       1  UNL1        0.1734
     31 S         -16.6895   -8.1586   19.3175 S.O2    1  UNL1        0.0540
     32 O         -17.8067   -7.8085   20.2553 O.2     1  UNL1       -0.1545
     33 O         -15.5724   -8.5086   18.3797 O.2     1  UNL1       -0.1545
     34 C         -17.2067   -9.5636   19.2257 C.3     1  UNL1        0.1724
     35 C         -18.7626   -9.3958   17.1517 C.3     1  UNL1        0.0019
     36 C         -18.5263   -9.8355   18.5662 C.3     1  UNL1        0.0273
@<TRIPOS>BOND
     1    35    36    1
     2    36    34    1
     3    34    31    1
     4    31    32    2
     5    31    33    2
     6    31    29    1
     7    29    21    1
     8    21    22   ar
     9    22    23   ar
    10    23    24   ar
    11    24    25    1
    12    24    26   ar
    13    26     1    1
    14     1     2    2
    15     1     3    1
    16     3     4   ar
    17     4     5   ar
    18     5     6   ar
    19     6     7   ar
    20     7     8   ar
    21     8     9   ar
    22     9    13    1
    23    13    14   ar
    24    14    15   ar
    25    15    16   ar
    26    16    19    1
    27    19    20    1
    28    16    17   ar
    29    17    18   ar
    30     9    10   ar
    31    10    11   ar
    32    26    27   ar
    33    27    28    1
    34    27    21   ar
    35    11     3   ar
    36    11     6    1
    37    18    13   ar
    38    29    30    1
    39     7    12    1
@<TRIPOS>MOLECULE
*****
 36 39 0 0 0
SMALL
GASTEIGER

@<TRIPOS>ATOM
      1 C           4.9478   -3.4346   20.0112 C.2     1  UNL1        0.2015
      2 O           4.0073   -4.4866   19.5026 O.2     1  UNL1       -0.2864
      3 C           5.4391   -2.3585   19.0890 C.ar    1  UNL1        0.0611
      4 C           6.6783   -2.4177   18.2459 C.ar    1  UNL1        0.1037
      5 N           6.7824   -1.1299   17.4838 N.ar    1  UNL1       -0.2269
      6 C           5.6075   -0.2748   17.8559 C.ar    1  UNL1        0.1407
      7 N           5.1864    1.0971   17.4195 N.ar    1  UNL1       -0.3374
      8 C           3.9351    1.7097   17.9752 C.ar    1  UNL1        0.0735
      9 C           3.1049    0.9505   18.9673 C.ar    1  UNL1        0.0201
     10 C           3.5260   -0.4215   19.4036 C.ar    1  UNL1        0.0047
     11 C           4.7773   -1.0341   18.8480 C.ar    1  UNL1        0.0386
     12 H           5.7314    1.5954   16.7684 H       1  UNL1        0.1674
     13 C           1.8535    1.5632   19.5229 C.ar    1  UNL1        0.0398
     14 C           1.7267    3.0548   19.6173 C.ar    1  UNL1        0.1026
     15 N           0.4753    3.6675   20.1730 N.ar    1  UNL1       -0.2196
     16 C          -0.6492    2.7885   20.6343 C.ar    1  UNL1        0.1901
     17 N          -0.5224    1.2968   20.5399 N.ar    1  UNL1       -0.2196
     18 C           0.7290    0.6842   19.9842 C.ar    1  UNL1        0.1026
     19 S          -1.9005    3.4012   21.1899 S.3     1  UNL1       -0.0748
     20 C          -3.2079    3.2112   20.4796 C.3     1  UNL1        0.0772
     21 C           7.1100   -4.1980   23.2505 C.ar    1  UNL1        0.0920
     22 C           6.2957   -3.5073   24.3041 C.ar    1  UNL1        0.0204
     23 C           5.0322   -2.7923   23.9267 C.ar    1  UNL1        0.0312
     24 C           4.5829   -2.7681   22.4958 C.ar    1  UNL1        0.1454
     25 F           3.3194   -2.0532   22.1184 F       1  UNL1       -0.2040
     26 C           5.3971   -3.4588   21.4423 C.ar    1  UNL1        0.0951
     27 C           6.6606   -4.1737   21.8197 C.ar    1  UNL1        0.1598
     28 F           7.4748   -4.8645   20.7660 F       1  UNL1       -0.2026
     29 N           8.3735   -4.9129   23.6279 N.pl3   1  UNL1       -0.2166
     30 H           9.2458   -4.4792   23.4856 H       1  UNL1        0.1734
     31 S           8.3079   -6.2886   24.2222 S.O2    1  UNL1        0.0540
     32 O           8.4109   -6.8861   22.8502 O.2     1  UNL1       -0.1545
     33 O           8.2050   -5.6910   25.5941 O.2     1  UNL1       -0.1545
     34 C           8.2424   -7.6642   24.8165 C.3     1  UNL1        0.1724
     35 C           8.3911   -8.6021   27.2349 C.3     1  UNL1        0.0019
     36 C           9.0538   -7.9946   26.0341 C.3     1  UNL1        0.0273
@<TRIPOS>BOND
     1    35    36    1
     2    36    34    1
     3    34    31    1
     4    31    32    2
     5    31    33    2
     6    31    29    1
     7    29    21    1
     8    21    22   ar
     9    22    23   ar
    10    23    24   ar
    11    24    25    1
    12    24    26   ar
    13    26     1    1
    14     1     2    2
    15     1     3    1
    16     3     4   ar
    17     4     5   ar
    18     5     6   ar
    19     6     7   ar
    20     7     8   ar
    21     8     9   ar
    22     9    13    1
    23    13    14   ar
    24    14    15   ar
    25    15    16   ar
    26    16    19    1
    27    19    20    1
    28    16    17   ar
    29    17    18   ar
    30     9    10   ar
    31    10    11   ar
    32    26    27   ar
    33    27    28    1
    34    27    21   ar
    35    11     3   ar
    36    11     6    1
    37    18    13   ar
    38    29    30    1
    39     7    12    1
