@<TRIPOS>MOLECULE
*****
 25 27 0 0 0
SMALL
GASTEIGER

@<TRIPOS>ATOM
      1 N          -7.9187  -20.2976   22.4061 N.pl3   1  UNL1       -0.2150
      2 H          -8.0166  -21.1966   22.7953 H       1  UNL1        0.1737
      3 C          -6.5634  -19.7998   21.9993 C.ar    1  UNL1        0.0648
      4 C          -5.8035  -20.4982   20.9109 C.ar    1  UNL1        0.0159
      5 C          -4.4482  -20.0004   20.5042 C.ar    1  UNL1        0.0014
      6 C          -3.8529  -18.8043   21.1860 C.ar    1  UNL1        0.0031
      7 C          -4.6128  -18.1059   22.2744 C.ar    1  UNL1        0.0014
      8 C          -5.9680  -18.6037   22.6811 C.ar    1  UNL1        0.0159
      9 C          -2.4975  -18.3065   20.7792 C.ar    1  UNL1        0.0384
     10 C          -1.5238  -19.2371   20.1191 C.ar    1  UNL1        0.1022
     11 N          -0.1684  -18.7393   19.7124 N.ar    1  UNL1       -0.2224
     12 C           0.2131  -17.3110   19.9658 C.ar    1  UNL1        0.1989
     13 N          -0.7608  -16.3803   20.6259 N.ar    1  UNL1       -0.2224
     14 C          -2.1160  -16.8781   21.0326 C.ar    1  UNL1        0.1022
     15 O          -9.3601  -19.4346   23.7013 O.2     1  UNL1       -0.1499
     16 S          -9.1249  -19.4256   22.2199 S.O2    1  UNL1        0.0736
     17 O          -8.8897  -19.4166   20.7385 O.2     1  UNL1       -0.1499
     18 C         -10.3312  -18.5536   22.0336 C.ar    1  UNL1        0.1268
     19 C         -11.4594  -18.6134   23.0203 C.ar    1  UNL1        0.0316
     20 C         -12.6656  -17.7414   22.8341 C.ar    1  UNL1        0.0599
     21 CL        -13.7938  -17.8012   23.8208 Cl      1  UNL1       -0.0822
     22 C         -12.7436  -16.8097   21.6612 C.ar    1  UNL1        0.0229
     23 C         -11.6154  -16.7500   20.6745 C.ar    1  UNL1        0.0599
     24 CL        -11.6934  -15.8182   19.5015 Cl      1  UNL1       -0.0822
     25 C         -10.4092  -17.6219   20.8607 C.ar    1  UNL1        0.0316
@<TRIPOS>BOND
     1    15    16    2
     2    16    17    2
     3    16     1    1
     4     1     3    1
     5     3     4   ar
     6     4     5   ar
     7     5     6   ar
     8     6     9    1
     9     9    10   ar
    10    10    11   ar
    11    11    12   ar
    12    12    13   ar
    13    13    14   ar
    14     6     7   ar
    15     7     8   ar
    16    16    18    1
    17    18    19   ar
    18    19    20   ar
    19    20    21    1
    20    20    22   ar
    21    22    23   ar
    22    23    24    1
    23    23    25   ar
    24     8     3   ar
    25    25    18   ar
    26    14     9   ar
    27     1     2    1
@<TRIPOS>MOLECULE
*****
 25 27 0 0 0
SMALL
GASTEIGER

@<TRIPOS>ATOM
      1 N          -7.8820  -20.3120   22.3930 N.pl3   1  UNL1       -0.2150
      2 H          -7.9793  -21.2110   22.7824 H       1  UNL1        0.1737
      3 C          -6.5269  -19.8133   21.9867 C.ar    1  UNL1        0.0648
      4 C          -5.9207  -18.6338   22.6876 C.ar    1  UNL1        0.0159
      5 C          -4.5657  -18.1351   22.2813 C.ar    1  UNL1        0.0014
      6 C          -3.8168  -18.8159   21.1741 C.ar    1  UNL1        0.0031
      7 C          -4.4230  -19.9954   20.4733 C.ar    1  UNL1        0.0014
      8 C          -5.7781  -20.4941   20.8796 C.ar    1  UNL1        0.0159
      9 C          -2.4617  -18.3171   20.7679 C.ar    1  UNL1        0.0384
     10 C          -2.1029  -16.8743   20.9666 C.ar    1  UNL1        0.1022
     11 N          -0.7478  -16.3755   20.5604 N.ar    1  UNL1       -0.2224
     12 C           0.2484  -17.3196   19.9553 C.ar    1  UNL1        0.1989
     13 N          -0.1104  -18.7625   19.7565 N.ar    1  UNL1       -0.2224
     14 C          -1.4654  -19.2612   20.1628 C.ar    1  UNL1        0.1022
     15 O          -8.8108  -19.3721   20.7336 O.2     1  UNL1       -0.1499
     16 S          -9.0888  -19.4411   22.2060 S.O2    1  UNL1        0.0736
     17 O          -9.3669  -19.5102   23.6783 O.2     1  UNL1       -0.1499
     18 C         -10.2957  -18.5702   22.0190 C.ar    1  UNL1        0.1268
     19 C         -10.3679  -17.6287   20.8535 C.ar    1  UNL1        0.0316
     20 C         -11.5747  -16.7578   20.6665 C.ar    1  UNL1        0.0599
     21 CL        -11.6469  -15.8163   19.5009 Cl      1  UNL1       -0.0822
     22 C         -12.7094  -16.8284   21.6449 C.ar    1  UNL1        0.0229
     23 C         -12.6372  -17.7698   22.8105 C.ar    1  UNL1        0.0599
     24 CL        -13.7720  -17.8403   23.7890 Cl      1  UNL1       -0.0822
     25 C         -11.4304  -18.6407   22.9975 C.ar    1  UNL1        0.0316
@<TRIPOS>BOND
     1    15    16    2
     2    16    17    2
     3    16     1    1
     4     1     3    1
     5     3     4   ar
     6     4     5   ar
     7     5     6   ar
     8     6     9    1
     9     9    10   ar
    10    10    11   ar
    11    11    12   ar
    12    12    13   ar
    13    13    14   ar
    14     6     7   ar
    15     7     8   ar
    16    16    18    1
    17    18    19   ar
    18    19    20   ar
    19    20    21    1
    20    20    22   ar
    21    22    23   ar
    22    23    24    1
    23    23    25   ar
    24     8     3   ar
    25    25    18   ar
    26    14     9   ar
    27     1     2    1
@<TRIPOS>MOLECULE
*****
 25 27 0 0 0
SMALL
GASTEIGER

@<TRIPOS>ATOM
      1 N          -6.7619  -20.3014   19.7594 N.pl3   1  UNL1       -0.2150
      2 H          -6.8326  -20.9567   19.0281 H       1  UNL1        0.1737
      3 C          -7.9798  -19.9262   20.5506 C.ar    1  UNL1        0.0648
      4 C          -7.8983  -19.8125   22.0441 C.ar    1  UNL1        0.0159
      5 C          -9.1162  -19.4373   22.8352 C.ar    1  UNL1        0.0014
      6 C         -10.4156  -19.1758   22.1329 C.ar    1  UNL1        0.0031
      7 C         -10.4971  -19.2895   20.6395 C.ar    1  UNL1        0.0014
      8 C          -9.2792  -19.6647   19.8483 C.ar    1  UNL1        0.0159
      9 C         -11.6335  -18.8006   22.9241 C.ar    1  UNL1        0.0384
     10 C         -12.7764  -18.0978   22.2535 C.ar    1  UNL1        0.1022
     11 N         -13.9943  -17.7226   23.0447 N.ar    1  UNL1       -0.2224
     12 C         -14.0693  -18.0502   24.5066 C.ar    1  UNL1        0.1989
     13 N         -12.9263  -18.7531   25.1772 N.ar    1  UNL1       -0.2224
     14 C         -11.7084  -19.1282   24.3860 C.ar    1  UNL1        0.1022
     15 O          -6.0575  -18.3152   20.0015 O.2     1  UNL1       -0.1499
     16 S          -5.4363  -19.6781   20.0824 S.O2    1  UNL1        0.0736
     17 O          -4.8152  -21.0410   20.1633 O.2     1  UNL1       -0.1499
     18 C          -4.1107  -19.0548   20.4054 C.ar    1  UNL1        0.1268
     19 C          -3.1229  -18.7829   19.3097 C.ar    1  UNL1        0.0316
     20 C          -1.7973  -18.1597   19.6327 C.ar    1  UNL1        0.0599
     21 CL         -0.8096  -17.8877   18.5370 Cl      1  UNL1       -0.0822
     22 C          -1.4595  -17.8084   21.0512 C.ar    1  UNL1        0.0229
     23 C          -2.4472  -18.0803   22.1469 C.ar    1  UNL1        0.0599
     24 CL         -2.1093  -17.7290   23.5655 Cl      1  UNL1       -0.0822
     25 C          -3.7728  -18.7035   21.8239 C.ar    1  UNL1        0.0316
@<TRIPOS>BOND
     1    15    16    2
     2    16    17    2
     3    16     1    1
     4     1     3    1
     5     3     4   ar
     6     4     5   ar
     7     5     6   ar
     8     6     9    1
     9     9    10   ar
    10    10    11   ar
    11    11    12   ar
    12    12    13   ar
    13    13    14   ar
    14     6     7   ar
    15     7     8   ar
    16    16    18    1
    17    18    19   ar
    18    19    20   ar
    19    20    21    1
    20    20    22   ar
    21    22    23   ar
    22    23    24    1
    23    23    25   ar
    24     8     3   ar
    25    25    18   ar
    26    14     9   ar
    27     1     2    1
@<TRIPOS>MOLECULE
*****
 25 27 0 0 0
SMALL
GASTEIGER

@<TRIPOS>ATOM
      1 N          -6.9198  -20.1699   19.7621 N.pl3   1  UNL1       -0.2150
      2 H          -7.0117  -20.7689   18.9862 H       1  UNL1        0.1737
      3 C          -8.1231  -19.8211   20.5870 C.ar    1  UNL1        0.0648
      4 C          -9.4339  -19.5330   19.9171 C.ar    1  UNL1        0.0159
      5 C         -10.6371  -19.1842   20.7421 C.ar    1  UNL1        0.0014
      6 C         -10.5295  -19.1236   22.2370 C.ar    1  UNL1        0.0031
      7 C          -9.2188  -19.4118   22.9069 C.ar    1  UNL1        0.0014
      8 C          -8.0156  -19.7605   22.0820 C.ar    1  UNL1        0.0159
      9 C         -11.7328  -18.7749   23.0619 C.ar    1  UNL1        0.0384
     10 C         -11.7878  -19.1633   24.5097 C.ar    1  UNL1        0.1022
     11 N         -12.9911  -18.8145   25.3347 N.ar    1  UNL1       -0.2224
     12 C         -14.1394  -18.0773   24.7118 C.ar    1  UNL1        0.1989
     13 N         -14.0844  -17.6889   23.2640 N.ar    1  UNL1       -0.2224
     14 C         -12.8811  -18.0377   22.4391 C.ar    1  UNL1        0.1022
     15 O          -6.1465  -18.2194   20.0738 O.2     1  UNL1       -0.1499
     16 S          -5.5765  -19.6061   20.1193 S.O2    1  UNL1        0.0736
     17 O          -5.0066  -20.9928   20.1647 O.2     1  UNL1       -0.1499
     18 C          -4.2332  -19.0422   20.4765 C.ar    1  UNL1        0.1268
     19 C          -3.9113  -18.7191   21.9055 C.ar    1  UNL1        0.0316
     20 C          -2.5681  -18.1553   22.2627 C.ar    1  UNL1        0.0599
     21 CL         -2.2462  -17.8321   23.6917 Cl      1  UNL1       -0.0822
     22 C          -1.5466  -17.9146   21.1910 C.ar    1  UNL1        0.0229
     23 C          -1.8684  -18.2378   19.7620 C.ar    1  UNL1        0.0599
     24 CL         -0.8469  -17.9971   18.6902 Cl      1  UNL1       -0.0822
     25 C          -3.2117  -18.8016   19.4047 C.ar    1  UNL1        0.0316
@<TRIPOS>BOND
     1    15    16    2
     2    16    17    2
     3    16     1    1
     4     1     3    1
     5     3     4   ar
     6     4     5   ar
     7     5     6   ar
     8     6     9    1
     9     9    10   ar
    10    10    11   ar
    11    11    12   ar
    12    12    13   ar
    13    13    14   ar
    14     6     7   ar
    15     7     8   ar
    16    16    18    1
    17    18    19   ar
    18    19    20   ar
    19    20    21    1
    20    20    22   ar
    21    22    23   ar
    22    23    24    1
    23    23    25   ar
    24     8     3   ar
    25    25    18   ar
    26    14     9   ar
    27     1     2    1
@<TRIPOS>MOLECULE
*****
 25 27 0 0 0
SMALL
GASTEIGER

@<TRIPOS>ATOM
      1 N          -4.8594  -15.9653   23.9490 N.pl3   1  UNL1       -0.2150
      2 H          -4.5173  -15.3216   24.6107 H       1  UNL1        0.1737
      3 C          -6.3244  -16.2837   23.9003 C.ar    1  UNL1        0.0648
      4 C          -7.2417  -15.7591   24.9648 C.ar    1  UNL1        0.0159
      5 C          -8.7067  -16.0776   24.9161 C.ar    1  UNL1        0.0014
      6 C          -9.2544  -16.9206   23.8028 C.ar    1  UNL1        0.0031
      7 C          -8.3370  -17.4452   22.7382 C.ar    1  UNL1        0.0014
      8 C          -6.8721  -17.1267   22.7870 C.ar    1  UNL1        0.0159
      9 C         -10.7194  -17.2390   23.7541 C.ar    1  UNL1        0.0384
     10 C         -11.6361  -16.4226   22.8920 C.ar    1  UNL1        0.1022
     11 N         -13.1012  -16.7410   22.8433 N.ar    1  UNL1       -0.2224
     12 C         -13.6494  -17.8759   23.6567 C.ar    1  UNL1        0.1989
     13 N         -12.7327  -18.6923   24.5187 N.ar    1  UNL1       -0.2224
     14 C         -11.2677  -18.3738   24.5674 C.ar    1  UNL1        0.1022
     15 O          -3.6836  -15.3112   22.3090 O.2     1  UNL1       -0.1499
     16 S          -3.9156  -16.6276   22.9895 S.O2    1  UNL1        0.0736
     17 O          -4.1476  -17.9440   23.6700 O.2     1  UNL1       -0.1499
     18 C          -2.9718  -17.2900   22.0300 C.ar    1  UNL1        0.1268
     19 C          -3.2286  -18.6963   21.5758 C.ar    1  UNL1        0.0316
     20 C          -2.2849  -19.3587   20.6163 C.ar    1  UNL1        0.0599
     21 CL         -2.5417  -20.7650   20.1620 Cl      1  UNL1       -0.0822
     22 C          -1.0844  -18.6148   20.1112 C.ar    1  UNL1        0.0229
     23 C          -0.8275  -17.2085   20.5654 C.ar    1  UNL1        0.0599
     24 CL          0.3731  -16.4646   20.0602 Cl      1  UNL1       -0.0822
     25 C          -1.7712  -16.5461   21.5249 C.ar    1  UNL1        0.0316
@<TRIPOS>BOND
     1    15    16    2
     2    16    17    2
     3    16     1    1
     4     1     3    1
     5     3     4   ar
     6     4     5   ar
     7     5     6   ar
     8     6     9    1
     9     9    10   ar
    10    10    11   ar
    11    11    12   ar
    12    12    13   ar
    13    13    14   ar
    14     6     7   ar
    15     7     8   ar
    16    16    18    1
    17    18    19   ar
    18    19    20   ar
    19    20    21    1
    20    20    22   ar
    21    22    23   ar
    22    23    24    1
    23    23    25   ar
    24     8     3   ar
    25    25    18   ar
    26    14     9   ar
    27     1     2    1
@<TRIPOS>MOLECULE
*****
 25 27 0 0 0
SMALL
GASTEIGER

@<TRIPOS>ATOM
      1 N          -4.8397  -15.9929   23.9453 N.pl3   1  UNL1       -0.2150
      2 H          -4.4941  -15.3549   24.6106 H       1  UNL1        0.1737
      3 C          -6.3059  -16.3061   23.8975 C.ar    1  UNL1        0.0648
      4 C          -6.8471  -17.2003   22.8216 C.ar    1  UNL1        0.0159
      5 C          -8.3132  -17.5135   22.7739 C.ar    1  UNL1        0.0014
      6 C          -9.2381  -16.9325   23.8019 C.ar    1  UNL1        0.0031
      7 C          -8.6969  -16.0383   24.8778 C.ar    1  UNL1        0.0014
      8 C          -7.2308  -15.7251   24.9255 C.ar    1  UNL1        0.0159
      9 C         -10.7043  -17.2458   23.7541 C.ar    1  UNL1        0.0384
     10 C         -11.6192  -16.4241   22.8953 C.ar    1  UNL1        0.1022
     11 N         -13.0854  -16.7373   22.8475 N.ar    1  UNL1       -0.2224
     12 C         -13.6367  -17.8723   23.6586 C.ar    1  UNL1        0.1989
     13 N         -12.7217  -18.6941   24.5175 N.ar    1  UNL1       -0.2224
     14 C         -11.2556  -18.3808   24.5653 C.ar    1  UNL1        0.1022
     15 O          -4.1210  -17.9686   23.6626 O.2     1  UNL1       -0.1499
     16 S          -3.9001  -16.6517   22.9793 S.O2    1  UNL1        0.0736
     17 O          -3.6793  -15.3348   22.2959 O.2     1  UNL1       -0.1499
     18 C          -2.9605  -17.3105   22.0132 C.ar    1  UNL1        0.1268
     19 C          -1.7655  -16.5625   21.5010 C.ar    1  UNL1        0.0316
     20 C          -0.8259  -17.2212   20.5349 C.ar    1  UNL1        0.0599
     21 CL          0.3692  -16.4732   20.0227 Cl      1  UNL1       -0.0822
     22 C          -1.0813  -18.6279   20.0812 C.ar    1  UNL1        0.0229
     23 C          -2.2764  -19.3758   20.5934 C.ar    1  UNL1        0.0599
     24 CL         -2.5318  -20.7826   20.1396 Cl      1  UNL1       -0.0822
     25 C          -3.2160  -18.7171   21.5594 C.ar    1  UNL1        0.0316
@<TRIPOS>BOND
     1    15    16    2
     2    16    17    2
     3    16     1    1
     4     1     3    1
     5     3     4   ar
     6     4     5   ar
     7     5     6   ar
     8     6     9    1
     9     9    10   ar
    10    10    11   ar
    11    11    12   ar
    12    12    13   ar
    13    13    14   ar
    14     6     7   ar
    15     7     8   ar
    16    16    18    1
    17    18    19   ar
    18    19    20   ar
    19    20    21    1
    20    20    22   ar
    21    22    23   ar
    22    23    24    1
    23    23    25   ar
    24     8     3   ar
    25    25    18   ar
    26    14     9   ar
    27     1     2    1
@<TRIPOS>MOLECULE
*****
 25 27 0 0 0
SMALL
GASTEIGER

@<TRIPOS>ATOM
      1 N          -4.6215  -19.5611   22.6350 N.pl3   1  UNL1       -0.2150
      2 H          -4.3350  -20.1470   23.3725 H       1  UNL1        0.1737
      3 C          -6.0701  -19.2038   22.4804 C.ar    1  UNL1        0.0648
      4 C          -6.4949  -17.7655   22.5076 C.ar    1  UNL1        0.0159
      5 C          -7.9435  -17.4083   22.3529 C.ar    1  UNL1        0.0014
      6 C          -8.9673  -18.4893   22.1710 C.ar    1  UNL1        0.0031
      7 C          -8.5425  -19.9277   22.1438 C.ar    1  UNL1        0.0014
      8 C          -7.0939  -20.2849   22.2985 C.ar    1  UNL1        0.0159
      9 C         -10.4159  -18.1321   22.0163 C.ar    1  UNL1        0.0384
     10 C         -10.9301  -17.6395   20.6961 C.ar    1  UNL1        0.1022
     11 N         -12.3787  -17.2822   20.5415 N.ar    1  UNL1       -0.2224
     12 C         -13.3131  -17.4175   21.7070 C.ar    1  UNL1        0.1989
     13 N         -12.7989  -17.9101   23.0273 N.ar    1  UNL1       -0.2224
     14 C         -11.3503  -18.2674   23.1819 C.ar    1  UNL1        0.1022
     15 O          -2.9222  -18.3002   22.7849 O.2     1  UNL1       -0.1499
     16 S          -3.6093  -19.0256   21.6661 S.O2    1  UNL1        0.0736
     17 O          -4.2965  -19.7510   20.5474 O.2     1  UNL1       -0.1499
     18 C          -2.5972  -18.4901   20.6972 C.ar    1  UNL1        0.1268
     19 C          -3.0233  -18.0759   19.3199 C.ar    1  UNL1        0.0316
     20 C          -2.0113  -17.5404   18.3509 C.ar    1  UNL1        0.0599
     21 CL         -2.4374  -17.1262   16.9737 Cl      1  UNL1       -0.0822
     22 C          -0.5730  -17.4192   18.7592 C.ar    1  UNL1        0.0229
     23 C          -0.1469  -17.8334   20.1365 C.ar    1  UNL1        0.0599
     24 CL          1.2914  -17.7121   20.5447 Cl      1  UNL1       -0.0822
     25 C          -1.1589  -18.3689   21.1054 C.ar    1  UNL1        0.0316
@<TRIPOS>BOND
     1    15    16    2
     2    16    17    2
     3    16     1    1
     4     1     3    1
     5     3     4   ar
     6     4     5   ar
     7     5     6   ar
     8     6     9    1
     9     9    10   ar
    10    10    11   ar
    11    11    12   ar
    12    12    13   ar
    13    13    14   ar
    14     6     7   ar
    15     7     8   ar
    16    16    18    1
    17    18    19   ar
    18    19    20   ar
    19    20    21    1
    20    20    22   ar
    21    22    23   ar
    22    23    24    1
    23    23    25   ar
    24     8     3   ar
    25    25    18   ar
    26    14     9   ar
    27     1     2    1
@<TRIPOS>MOLECULE
*****
 25 27 0 0 0
SMALL
GASTEIGER

@<TRIPOS>ATOM
      1 N          -0.7359    3.1566   19.8088 N.pl3   1  UNL1       -0.2150
      2 H          -0.9653    3.7752   19.0782 H       1  UNL1        0.1737
      3 C           0.2757    2.0721   19.5835 C.ar    1  UNL1        0.0648
      4 C           1.4131    2.2935   18.6311 C.ar    1  UNL1        0.0159
      5 C           2.4246    1.2091   18.4058 C.ar    1  UNL1        0.0014
      6 C           2.2988   -0.0968   19.1330 C.ar    1  UNL1        0.0031
      7 C           1.1614   -0.3182   20.0855 C.ar    1  UNL1        0.0014
      8 C           0.1498    0.7662   20.3108 C.ar    1  UNL1        0.0159
      9 C           3.3104   -1.1812   18.9077 C.ar    1  UNL1        0.0384
     10 C           3.3452   -2.3747   19.8156 C.ar    1  UNL1        0.1022
     11 N           4.3568   -3.4592   19.5903 N.ar    1  UNL1       -0.2224
     12 C           5.3335   -3.3501   18.4571 C.ar    1  UNL1        0.1989
     13 N           5.2986   -2.1565   17.5492 N.ar    1  UNL1       -0.2224
     14 C           4.2871   -1.0721   17.7745 C.ar    1  UNL1        0.1022
     15 O          -0.1112    3.8030   21.7302 O.2     1  UNL1       -0.1499
     16 S          -1.3979    3.2984   21.1473 S.O2    1  UNL1        0.0736
     17 O          -2.6845    2.7938   20.5644 O.2     1  UNL1       -0.1499
     18 C          -2.0599    3.4402   22.4859 C.ar    1  UNL1        0.1268
     19 C          -1.2393    3.3710   23.7396 C.ar    1  UNL1        0.0316
     20 C          -1.9013    3.5128   25.0781 C.ar    1  UNL1        0.0599
     21 CL         -1.0806    3.4435   26.3318 Cl      1  UNL1       -0.0822
     22 C          -3.3839    3.7239   25.1629 C.ar    1  UNL1        0.0229
     23 C          -4.2045    3.7931   23.9092 C.ar    1  UNL1        0.0599
     24 CL         -5.6872    4.0042   23.9940 Cl      1  UNL1       -0.0822
     25 C          -3.5425    3.6513   22.5707 C.ar    1  UNL1        0.0316
@<TRIPOS>BOND
     1    15    16    2
     2    16    17    2
     3    16     1    1
     4     1     3    1
     5     3     4   ar
     6     4     5   ar
     7     5     6   ar
     8     6     9    1
     9     9    10   ar
    10    10    11   ar
    11    11    12   ar
    12    12    13   ar
    13    13    14   ar
    14     6     7   ar
    15     7     8   ar
    16    16    18    1
    17    18    19   ar
    18    19    20   ar
    19    20    21    1
    20    20    22   ar
    21    22    23   ar
    22    23    24    1
    23    23    25   ar
    24     8     3   ar
    25    25    18   ar
    26    14     9   ar
    27     1     2    1
@<TRIPOS>MOLECULE
*****
 25 27 0 0 0
SMALL
GASTEIGER

@<TRIPOS>ATOM
      1 N          -0.7557    3.1178   20.0041 N.pl3   1  UNL1       -0.2150
      2 H          -1.0329    3.7272   19.2822 H       1  UNL1        0.1737
      3 C           0.2616    2.0490   19.7342 C.ar    1  UNL1        0.0648
      4 C           1.4017    2.3181   18.7973 C.ar    1  UNL1        0.0159
      5 C           2.4189    1.2493   18.5275 C.ar    1  UNL1        0.0014
      6 C           2.2961   -0.0886   19.1946 C.ar    1  UNL1        0.0031
      7 C           1.1560   -0.3577   20.1314 C.ar    1  UNL1        0.0014
      8 C           0.1388    0.7111   20.4013 C.ar    1  UNL1        0.0159
      9 C           3.3134   -1.1574   18.9247 C.ar    1  UNL1        0.0384
     10 C           3.3723   -2.3747   19.7990 C.ar    1  UNL1        0.1022
     11 N           4.3896   -3.4436   19.5292 N.ar    1  UNL1       -0.2224
     12 C           5.3480   -3.2949   18.3849 C.ar    1  UNL1        0.1989
     13 N           5.2891   -2.0775   17.5105 N.ar    1  UNL1       -0.2224
     14 C           4.2719   -1.0088   17.7804 C.ar    1  UNL1        0.1022
     15 O          -0.0343    3.7534   21.8950 O.2     1  UNL1       -0.1499
     16 S          -1.3508    3.2582   21.3738 S.O2    1  UNL1        0.0736
     17 O          -2.6672    2.7630   20.8527 O.2     1  UNL1       -0.1499
     18 C          -1.9459    3.3986   22.7436 C.ar    1  UNL1        0.1268
     19 C          -3.4183    3.6381   22.9006 C.ar    1  UNL1        0.0316
     20 C          -4.0134    3.7784   24.2703 C.ar    1  UNL1        0.0599
     21 CL         -5.4858    4.0179   24.4274 Cl      1  UNL1       -0.0822
     22 C          -3.1361    3.6793   25.4830 C.ar    1  UNL1        0.0229
     23 C          -1.6637    3.4398   25.3259 C.ar    1  UNL1        0.0599
     24 CL         -0.7865    3.3406   26.5386 Cl      1  UNL1       -0.0822
     25 C          -1.0686    3.2994   23.9562 C.ar    1  UNL1        0.0316
@<TRIPOS>BOND
     1    15    16    2
     2    16    17    2
     3    16     1    1
     4     1     3    1
     5     3     4   ar
     6     4     5   ar
     7     5     6   ar
     8     6     9    1
     9     9    10   ar
    10    10    11   ar
    11    11    12   ar
    12    12    13   ar
    13    13    14   ar
    14     6     7   ar
    15     7     8   ar
    16    16    18    1
    17    18    19   ar
    18    19    20   ar
    19    20    21    1
    20    20    22   ar
    21    22    23   ar
    22    23    24    1
    23    23    25   ar
    24     8     3   ar
    25    25    18   ar
    26    14     9   ar
    27     1     2    1
