@<TRIPOS>MOLECULE
*****
 34 36 0 0 0
SMALL
GASTEIGER

@<TRIPOS>ATOM
      1 C          -7.5987  -15.6852   25.2043 C.ar    1  UNL1       -0.0024
      2 C          -7.5728  -15.6228   26.7027 C.ar    1  UNL1       -0.0026
      3 C          -8.4458  -16.5400   27.5068 C.ar    1  UNL1       -0.0001
      4 C          -9.3447  -17.5197   26.8124 C.ar    1  UNL1        0.0045
      5 C          -9.3705  -17.5822   25.3139 C.ar    1  UNL1        0.0531
      6 C          -8.4975  -16.6649   24.5099 C.ar    1  UNL1        0.0019
      7 C         -10.2694  -18.5619   24.6195 C.2     1  UNL1        0.2458
      8 O         -11.7202  -18.6427   24.9915 O.2     1  UNL1       -0.2701
      9 N          -9.7173  -19.4608   23.5531 N.am    1  UNL1       -0.3009
     10 H          -8.7650  -19.4078   23.3089 H       1  UNL1        0.1497
     11 C         -10.6162  -20.4405   22.8586 C.3     1  UNL1        0.0897
     12 C         -11.0656  -20.1792   21.4517 C.3     1  UNL1        0.0226
     13 C         -11.3038  -18.7722   20.9895 C.3     1  UNL1        0.0175
     14 C         -12.3626  -17.9363   21.6454 C.3     1  UNL1        0.0029
     15 C         -12.6007  -16.5293   21.1832 C.3     1  UNL1        0.0171
     16 C         -11.7800  -15.9581   20.0651 C.3     1  UNL1        0.0686
     17 N         -10.7212  -16.7940   19.4092 N.3     1  UNL1       -0.2975
     18 C         -10.4831  -18.2010   19.8714 C.3     1  UNL1        0.0686
     19 H          -9.8394  -16.2938   19.5219 H       1  UNL1        0.1232
     20 C          -6.7256  -14.7679   24.4002 C.3     1  UNL1        0.1166
     21 C          -4.6943  -16.2840   23.8300 C.2     1  UNL1        0.2462
     22 O          -4.5744  -16.6668   25.2753 O.2     1  UNL1       -0.2701
     23 N          -5.7699  -15.3345   23.3924 N.am    1  UNL1       -0.2969
     24 H          -5.8486  -15.0832   22.4438 H       1  UNL1        0.1501
     25 C          -1.8270  -17.9838   20.8068 C.ar    1  UNL1        0.1724
     26 C          -1.7285  -16.5411   21.2055 C.ar    1  UNL1        0.0402
     27 C          -2.6843  -15.9745   22.2132 C.ar    1  UNL1        0.0078
     28 C          -3.7385  -16.8506   22.8223 C.ar    1  UNL1        0.0566
     29 C          -3.8370  -18.2932   22.4236 C.ar    1  UNL1        0.0446
     30 C          -2.8813  -18.8598   21.4159 C.ar    1  UNL1        0.1725
     31 C           0.5049  -17.9698   19.6615 C.3     1  UNL1        0.2526
     32 O          -0.8713  -18.5504   19.7991 O.3     1  UNL1       -0.4684
     33 O          -2.9798  -20.3026   21.0172 O.3     1  UNL1       -0.4684
     34 C          -4.0028  -20.7338   20.0085 C.3     1  UNL1        0.2526
@<TRIPOS>BOND
     1    31    32    1
     2    32    25    1
     3    25    26   ar
     4    26    27   ar
     5    27    28   ar
     6    28    21    1
     7    21    22    2
     8    21    23   am
     9    23    20    1
    10    20     1    1
    11     1     2   ar
    12     2     3   ar
    13     3     4   ar
    14     4     5   ar
    15     5     7    1
    16     7     8    2
    17     7     9   am
    18     9    11    1
    19    11    12    1
    20    12    13    1
    21    13    14    1
    22    14    15    1
    23    15    16    1
    24    16    17    1
    25    17    18    1
    26     5     6   ar
    27    28    29   ar
    28    29    30   ar
    29    30    33    1
    30    33    34    1
    31    30    25   ar
    32     6     1   ar
    33    18    13    1
    34    23    24    1
    35     9    10    1
    36    17    19    1
@<TRIPOS>MOLECULE
*****
 34 36 0 0 0
SMALL
GASTEIGER

@<TRIPOS>ATOM
      1 C          -9.3990  -19.0296   21.8352 C.ar    1  UNL1       -0.0024
      2 C         -10.5155  -19.9572   22.2129 C.ar    1  UNL1       -0.0026
      3 C         -11.1994  -19.8067   23.5395 C.ar    1  UNL1       -0.0001
      4 C         -10.7667  -18.7285   24.4883 C.ar    1  UNL1        0.0045
      5 C          -9.6501  -17.8008   24.1105 C.ar    1  UNL1        0.0531
      6 C          -8.9663  -17.9514   22.7840 C.ar    1  UNL1        0.0019
      7 C          -9.2174  -16.7226   25.0593 C.2     1  UNL1        0.2458
      8 O          -9.4184  -15.2807   24.6982 O.2     1  UNL1       -0.2701
      9 N          -8.5836  -17.0864   26.3694 N.am    1  UNL1       -0.3009
     10 H          -8.4517  -18.0328   26.6064 H       1  UNL1        0.1497
     11 C          -8.1509  -16.0082   27.3182 C.3     1  UNL1        0.0897
     12 C          -6.7750  -15.4209   27.2090 C.3     1  UNL1        0.0226
     13 C          -5.9789  -15.6042   25.9510 C.3     1  UNL1        0.0175
     14 C          -4.8898  -16.6340   25.8960 C.3     1  UNL1        0.0029
     15 C          -4.0937  -16.8173   24.6379 C.3     1  UNL1        0.0171
     16 C          -4.3868  -15.9707   23.4349 C.3     1  UNL1        0.0686
     17 N          -5.4760  -14.9408   23.4899 N.3     1  UNL1       -0.2975
     18 C          -6.2720  -14.7576   24.7480 C.3     1  UNL1        0.0686
     19 H          -6.1405  -15.1754   22.7525 H       1  UNL1        0.1232
     20 C          -8.7151  -19.1801   20.5087 C.3     1  UNL1        0.1166
     21 C          -6.2502  -19.7238   21.1241 C.2     1  UNL1        0.2462
     22 O          -6.7164  -20.8555   21.9912 O.2     1  UNL1       -0.2701
     23 N          -7.2495  -18.8861   20.3828 N.am    1  UNL1       -0.2969
     24 H          -6.9436  -18.1434   19.8136 H       1  UNL1        0.1501
     25 C          -1.8536  -18.8419   20.7465 C.ar    1  UNL1        0.1724
     26 C          -2.4403  -19.1703   22.0874 C.ar    1  UNL1        0.0402
     27 C          -3.9058  -19.4643   22.2132 C.ar    1  UNL1        0.0078
     28 C          -4.7847  -19.4298   20.9982 C.ar    1  UNL1        0.0566
     29 C          -4.1981  -19.1014   19.6574 C.ar    1  UNL1        0.0446
     30 C          -2.7326  -18.8074   19.5315 C.ar    1  UNL1        0.1725
     31 C           0.0697  -17.1813   20.2052 C.3     1  UNL1        0.2526
     32 O          -0.3881  -18.5479   20.6206 O.3     1  UNL1       -0.4684
     33 O          -2.1460  -18.4790   18.1905 O.3     1  UNL1       -0.4684
     34 C          -2.4502  -17.1615   17.5411 C.3     1  UNL1        0.2526
@<TRIPOS>BOND
     1    31    32    1
     2    32    25    1
     3    25    26   ar
     4    26    27   ar
     5    27    28   ar
     6    28    21    1
     7    21    22    2
     8    21    23   am
     9    23    20    1
    10    20     1    1
    11     1     2   ar
    12     2     3   ar
    13     3     4   ar
    14     4     5   ar
    15     5     7    1
    16     7     8    2
    17     7     9   am
    18     9    11    1
    19    11    12    1
    20    12    13    1
    21    13    14    1
    22    14    15    1
    23    15    16    1
    24    16    17    1
    25    17    18    1
    26     5     6   ar
    27    28    29   ar
    28    29    30   ar
    29    30    33    1
    30    33    34    1
    31    30    25   ar
    32     6     1   ar
    33    18    13    1
    34    23    24    1
    35     9    10    1
    36    17    19    1
@<TRIPOS>MOLECULE
*****
 34 36 0 0 0
SMALL
GASTEIGER

@<TRIPOS>ATOM
      1 C          -6.9185  -15.6358   25.5580 C.ar    1  UNL1       -0.0024
      2 C          -7.1043  -15.7223   27.0439 C.ar    1  UNL1       -0.0026
      3 C          -8.2390  -16.5219   27.6126 C.ar    1  UNL1       -0.0001
      4 C          -9.1878  -17.2349   26.6953 C.ar    1  UNL1        0.0045
      5 C          -9.0019  -17.1483   25.2094 C.ar    1  UNL1        0.0531
      6 C          -7.8673  -16.3488   24.6407 C.ar    1  UNL1        0.0019
      7 C          -9.9507  -17.8613   24.2921 C.2     1  UNL1        0.2458
      8 O          -9.8620  -19.3500   24.1311 O.2     1  UNL1       -0.2701
      9 N         -10.9882  -17.0856   23.5357 N.am    1  UNL1       -0.3009
     10 H         -11.0464  -16.1085   23.6414 H       1  UNL1        0.1497
     11 C         -11.9370  -17.7986   22.6185 C.3     1  UNL1        0.0897
     12 C         -11.7227  -17.7526   21.1346 C.3     1  UNL1        0.0226
     13 C         -10.5103  -18.3979   20.5315 C.3     1  UNL1        0.0175
     14 C         -10.6686  -19.4536   19.4777 C.3     1  UNL1        0.0029
     15 C          -9.4563  -20.0990   18.8746 C.3     1  UNL1        0.0171
     16 C          -8.0857  -19.6887   19.3252 C.3     1  UNL1        0.0686
     17 N          -7.9274  -18.6330   20.3790 N.3     1  UNL1       -0.2975
     18 C          -9.1398  -17.9876   20.9821 C.3     1  UNL1        0.0686
     19 H          -7.3708  -17.8851   19.9653 H       1  UNL1        0.1232
     20 C          -5.7839  -14.8362   24.9893 C.3     1  UNL1        0.1166
     21 C          -4.1869  -16.5579   23.8777 C.2     1  UNL1        0.2462
     22 O          -4.0621  -17.2851   25.1836 O.2     1  UNL1       -0.2701
     23 N          -5.0478  -15.3334   23.7806 N.am    1  UNL1       -0.2969
     24 H          -5.1298  -14.8560   22.9235 H       1  UNL1        0.1501
     25 C          -1.9789  -18.0494   20.2515 C.ar    1  UNL1        0.1724
     26 C          -1.6283  -16.7187   20.8483 C.ar    1  UNL1        0.0402
     27 C          -2.3643  -16.2215   22.0571 C.ar    1  UNL1        0.0078
     28 C          -3.4509  -17.0551   22.6690 C.ar    1  UNL1        0.0566
     29 C          -3.8014  -18.3858   22.0722 C.ar    1  UNL1        0.0446
     30 C          -3.0654  -18.8830   20.8635 C.ar    1  UNL1        0.1725
     31 C          -1.4183  -17.8578   17.7219 C.3     1  UNL1        0.2526
     32 O          -1.2428  -18.5466   19.0428 O.3     1  UNL1       -0.4684
     33 O          -3.4160  -20.2138   20.2666 O.3     1  UNL1       -0.4684
     34 C          -4.8343  -20.7009   20.3010 C.3     1  UNL1        0.2526
@<TRIPOS>BOND
     1    31    32    1
     2    32    25    1
     3    25    26   ar
     4    26    27   ar
     5    27    28   ar
     6    28    21    1
     7    21    22    2
     8    21    23   am
     9    23    20    1
    10    20     1    1
    11     1     2   ar
    12     2     3   ar
    13     3     4   ar
    14     4     5   ar
    15     5     7    1
    16     7     8    2
    17     7     9   am
    18     9    11    1
    19    11    12    1
    20    12    13    1
    21    13    14    1
    22    14    15    1
    23    15    16    1
    24    16    17    1
    25    17    18    1
    26     5     6   ar
    27    28    29   ar
    28    29    30   ar
    29    30    33    1
    30    33    34    1
    31    30    25   ar
    32     6     1   ar
    33    18    13    1
    34    23    24    1
    35     9    10    1
    36    17    19    1
@<TRIPOS>MOLECULE
*****
 34 36 0 0 0
SMALL
GASTEIGER

@<TRIPOS>ATOM
      1 C          -9.4935  -19.2781   20.4666 C.ar    1  UNL1       -0.0024
      2 C         -10.8918  -18.9927   20.0048 C.ar    1  UNL1       -0.0026
      3 C         -11.9714  -18.7162   21.0088 C.ar    1  UNL1       -0.0001
      4 C         -11.6527  -18.7251   22.4745 C.ar    1  UNL1        0.0045
      5 C         -10.2544  -19.0105   22.9363 C.ar    1  UNL1        0.0531
      6 C          -9.1748  -19.2870   21.9323 C.ar    1  UNL1        0.0019
      7 C          -9.9357  -19.0193   24.4020 C.2     1  UNL1        0.2458
      8 O          -9.8171  -20.3221   25.1359 O.2     1  UNL1       -0.2701
      9 N          -9.7355  -17.7253   25.1339 N.am    1  UNL1       -0.3009
     10 H          -9.8133  -16.8702   24.6522 H       1  UNL1        0.1497
     11 C          -9.4168  -17.7342   26.5996 C.3     1  UNL1        0.0897
     12 C          -8.6413  -16.6022   27.2054 C.3     1  UNL1        0.0226
     13 C          -7.5533  -15.9329   26.4190 C.3     1  UNL1        0.0175
     14 C          -6.1367  -15.9778   26.9100 C.3     1  UNL1        0.0029
     15 C          -5.0487  -15.3086   26.1236 C.3     1  UNL1        0.0171
     16 C          -5.3774  -14.5944   24.8462 C.3     1  UNL1        0.0686
     17 N          -6.7940  -14.5495   24.3551 N.3     1  UNL1       -0.2975
     18 C          -7.8819  -15.2187   25.1415 C.3     1  UNL1        0.0686
     19 H          -6.7976  -14.9736   23.4275 H       1  UNL1        0.1232
     20 C          -8.4138  -19.5546   19.4626 C.3     1  UNL1        0.1166
     21 C          -5.9330  -19.9424   20.1298 C.2     1  UNL1        0.2462
     22 O          -6.2208  -21.3972   20.3545 O.2     1  UNL1       -0.2701
     23 N          -7.0294  -19.0211   19.6839 N.am    1  UNL1       -0.2969
     24 H          -6.8405  -18.0662   19.5364 H       1  UNL1        0.1501
     25 C          -1.7800  -18.3417   20.7936 C.ar    1  UNL1        0.1724
     26 C          -2.1784  -18.8561   19.4421 C.ar    1  UNL1        0.0402
     27 C          -3.5627  -19.3896   19.2208 C.ar    1  UNL1        0.0078
     28 C          -4.5486  -19.4088   20.3511 C.ar    1  UNL1        0.0566
     29 C          -4.1502  -18.8945   21.7026 C.ar    1  UNL1        0.0446
     30 C          -2.7659  -18.3609   21.9239 C.ar    1  UNL1        0.1725
     31 C           0.5173  -17.5836   19.8460 C.3     1  UNL1        0.2526
     32 O          -0.3956  -17.8082   21.0148 O.3     1  UNL1       -0.4684
     33 O          -2.3674  -17.8466   23.2755 O.3     1  UNL1       -0.4684
     34 C          -3.3546  -17.8620   24.4047 C.3     1  UNL1        0.2526
@<TRIPOS>BOND
     1    31    32    1
     2    32    25    1
     3    25    26   ar
     4    26    27   ar
     5    27    28   ar
     6    28    21    1
     7    21    22    2
     8    21    23   am
     9    23    20    1
    10    20     1    1
    11     1     2   ar
    12     2     3   ar
    13     3     4   ar
    14     4     5   ar
    15     5     7    1
    16     7     8    2
    17     7     9   am
    18     9    11    1
    19    11    12    1
    20    12    13    1
    21    13    14    1
    22    14    15    1
    23    15    16    1
    24    16    17    1
    25    17    18    1
    26     5     6   ar
    27    28    29   ar
    28    29    30   ar
    29    30    33    1
    30    33    34    1
    31    30    25   ar
    32     6     1   ar
    33    18    13    1
    34    23    24    1
    35     9    10    1
    36    17    19    1
@<TRIPOS>MOLECULE
*****
 34 36 0 0 0
SMALL
GASTEIGER

@<TRIPOS>ATOM
      1 C          -9.5662  -19.0711   20.2876 C.ar    1  UNL1       -0.0024
      2 C         -10.7206  -18.5091   19.5121 C.ar    1  UNL1       -0.0026
      3 C         -11.8702  -17.8715   20.2346 C.ar    1  UNL1       -0.0001
      4 C         -11.8654  -17.7960   21.7327 C.ar    1  UNL1        0.0045
      5 C         -10.7110  -18.3581   22.5083 C.ar    1  UNL1        0.0531
      6 C          -9.5614  -18.9956   21.7857 C.ar    1  UNL1        0.0019
      7 C         -10.7062  -18.2826   24.0064 C.2     1  UNL1        0.2458
      8 O         -11.9547  -18.5945   24.7770 O.2     1  UNL1       -0.2701
      9 N          -9.4528  -17.8952   24.7338 N.am    1  UNL1       -0.3009
     10 H          -8.6334  -17.6906   24.2279 H       1  UNL1        0.1497
     11 C          -9.4480  -17.8198   26.2319 C.3     1  UNL1        0.0897
     12 C          -8.6895  -16.7272   26.9253 C.3     1  UNL1        0.0226
     13 C          -7.5549  -16.0405   26.2246 C.3     1  UNL1        0.0175
     14 C          -7.5078  -16.0095   24.7257 C.3     1  UNL1        0.0029
     15 C          -6.3732  -15.3228   24.0250 C.3     1  UNL1        0.0171
     16 C          -5.2856  -14.6669   24.8232 C.3     1  UNL1        0.0686
     17 N          -5.3328  -14.6979   26.3221 N.3     1  UNL1       -0.2975
     18 C          -6.4674  -15.3846   27.0228 C.3     1  UNL1        0.0686
     19 H          -5.3365  -13.7276   26.6366 H       1  UNL1        0.1232
     20 C          -8.4166  -19.7086   19.5651 C.3     1  UNL1        0.1166
     21 C          -6.0720  -19.5554   20.6739 C.2     1  UNL1        0.2462
     22 O          -6.4583  -20.6357   21.6400 O.2     1  UNL1       -0.2701
     23 N          -7.0512  -19.0918   19.6364 N.am    1  UNL1       -0.2969
     24 H          -6.7976  -18.3827   19.0023 H       1  UNL1        0.1501
     25 C          -1.9757  -17.7049   20.8877 C.ar    1  UNL1        0.1724
     26 C          -2.7960  -17.8568   22.1342 C.ar    1  UNL1        0.0402
     27 C          -4.1615  -18.4736   22.0630 C.ar    1  UNL1        0.0078
     28 C          -4.7066  -18.9385   20.7451 C.ar    1  UNL1        0.0566
     29 C          -3.8862  -18.7866   19.4986 C.ar    1  UNL1        0.0446
     30 C          -2.5208  -18.1698   19.5699 C.ar    1  UNL1        0.1725
     31 C           0.4977  -17.6172   20.0974 C.3     1  UNL1        0.2526
     32 O          -0.6102  -17.0880   20.9590 O.3     1  UNL1       -0.4684
     33 O          -1.7004  -18.0179   18.3233 O.3     1  UNL1       -0.4684
     34 C          -2.2448  -17.2487   17.1563 C.3     1  UNL1        0.2526
@<TRIPOS>BOND
     1    31    32    1
     2    32    25    1
     3    25    26   ar
     4    26    27   ar
     5    27    28   ar
     6    28    21    1
     7    21    22    2
     8    21    23   am
     9    23    20    1
    10    20     1    1
    11     1     2   ar
    12     2     3   ar
    13     3     4   ar
    14     4     5   ar
    15     5     7    1
    16     7     8    2
    17     7     9   am
    18     9    11    1
    19    11    12    1
    20    12    13    1
    21    13    14    1
    22    14    15    1
    23    15    16    1
    24    16    17    1
    25    17    18    1
    26     5     6   ar
    27    28    29   ar
    28    29    30   ar
    29    30    33    1
    30    33    34    1
    31    30    25   ar
    32     6     1   ar
    33    18    13    1
    34    23    24    1
    35     9    10    1
    36    17    19    1
@<TRIPOS>MOLECULE
*****
 34 36 0 0 0
SMALL
GASTEIGER

@<TRIPOS>ATOM
      1 C           8.4356   -8.4653   27.3987 C.ar    1  UNL1       -0.0024
      2 C           8.9642   -8.2700   26.0085 C.ar    1  UNL1       -0.0026
      3 C           9.2048   -6.8849   25.4853 C.ar    1  UNL1       -0.0001
      4 C           8.9168   -5.6951   26.3522 C.ar    1  UNL1        0.0045
      5 C           8.3882   -5.8905   27.7424 C.ar    1  UNL1        0.0531
      6 C           8.1476   -7.2755   28.2656 C.ar    1  UNL1        0.0019
      7 C           8.1002   -4.7007   28.6093 C.2     1  UNL1        0.2458
      8 O           8.9313   -3.4589   28.4788 O.2     1  UNL1       -0.2701
      9 N           6.9810   -4.7528   29.6067 N.am    1  UNL1       -0.3009
     10 H           6.4355   -5.5679   29.6924 H       1  UNL1        0.1497
     11 C           6.6930   -3.5631   30.4737 C.3     1  UNL1        0.0897
     12 C           6.4989   -3.7405   31.9504 C.3     1  UNL1        0.0226
     13 C           5.9128   -2.6285   32.7688 C.3     1  UNL1        0.0175
     14 C           6.7341   -1.4124   33.0793 C.3     1  UNL1        0.0029
     15 C           6.1480   -0.3003   33.8976 C.3     1  UNL1        0.0171
     16 C           4.7404   -0.4044   34.4056 C.3     1  UNL1        0.0686
     17 N           3.9191   -1.6205   34.0951 N.3     1  UNL1       -0.2975
     18 C           4.5052   -2.7325   33.2767 C.3     1  UNL1        0.0686
     19 H           3.0887   -1.2962   33.5994 H       1  UNL1        0.1232
     20 C           8.1950   -9.8504   27.9219 C.3     1  UNL1        0.1166
     21 C           6.6673  -11.9494   28.0235 C.2     1  UNL1        0.2462
     22 O           7.8507  -12.7925   28.3958 O.2     1  UNL1       -0.2701
     23 N           6.8395  -10.4783   27.7866 N.am    1  UNL1       -0.2969
     24 H           6.0628   -9.9248   27.5422 H       1  UNL1        0.1501
     25 C           2.6008  -13.8331   27.6174 C.ar    1  UNL1        0.1724
     26 C           3.7020  -14.2151   26.6733 C.ar    1  UNL1        0.0402
     27 C           5.0575  -13.5872   26.8087 C.ar    1  UNL1        0.0078
     28 C           5.3118  -12.5773   27.8881 C.ar    1  UNL1        0.0566
     29 C           4.2106  -12.1952   28.8322 C.ar    1  UNL1        0.0446
     30 C           2.8551  -12.8231   28.6969 C.ar    1  UNL1        0.1725
     31 C           0.9141  -15.7039   28.2536 C.3     1  UNL1        0.2526
     32 O           1.2453  -14.4610   27.4820 O.3     1  UNL1       -0.4684
     33 O           1.7539  -12.4410   29.6410 O.3     1  UNL1       -0.4684
     34 C           1.3330  -13.3884   30.7251 C.3     1  UNL1        0.2526
@<TRIPOS>BOND
     1    31    32    1
     2    32    25    1
     3    25    26   ar
     4    26    27   ar
     5    27    28   ar
     6    28    21    1
     7    21    22    2
     8    21    23   am
     9    23    20    1
    10    20     1    1
    11     1     2   ar
    12     2     3   ar
    13     3     4   ar
    14     4     5   ar
    15     5     7    1
    16     7     8    2
    17     7     9   am
    18     9    11    1
    19    11    12    1
    20    12    13    1
    21    13    14    1
    22    14    15    1
    23    15    16    1
    24    16    17    1
    25    17    18    1
    26     5     6   ar
    27    28    29   ar
    28    29    30   ar
    29    30    33    1
    30    33    34    1
    31    30    25   ar
    32     6     1   ar
    33    18    13    1
    34    23    24    1
    35     9    10    1
    36    17    19    1
@<TRIPOS>MOLECULE
*****
 34 36 0 0 0
SMALL
GASTEIGER

@<TRIPOS>ATOM
      1 C           8.8345   -6.0865   28.2724 C.ar    1  UNL1       -0.0024
      2 C           8.5969   -5.5758   26.8822 C.ar    1  UNL1       -0.0026
      3 C           8.2287   -6.5304   25.7852 C.ar    1  UNL1       -0.0001
      4 C           8.0980   -7.9956   26.0786 C.ar    1  UNL1        0.0045
      5 C           8.3355   -8.5062   27.4689 C.ar    1  UNL1        0.0531
      6 C           8.7038   -7.5517   28.5658 C.ar    1  UNL1        0.0019
      7 C           8.2048   -9.9714   27.7622 C.2     1  UNL1        0.2458
      8 O           9.4330  -10.8223   27.8947 O.2     1  UNL1       -0.2701
      9 N           6.8458  -10.5858   27.9231 N.am    1  UNL1       -0.3009
     10 H           6.0397  -10.0274   27.8361 H       1  UNL1        0.1497
     11 C           6.7151  -12.0510   28.2164 C.3     1  UNL1        0.0897
     12 C           5.8064  -12.9047   27.3826 C.3     1  UNL1        0.0226
     13 C           4.3925  -13.1461   27.8213 C.3     1  UNL1        0.0175
     14 C           3.8365  -12.4052   29.0011 C.3     1  UNL1        0.0029
     15 C           2.4225  -12.6465   29.4399 C.3     1  UNL1        0.0171
     16 C           1.5646  -13.6287   28.6989 C.3     1  UNL1        0.0686
     17 N           2.1206  -14.3696   27.5191 N.3     1  UNL1       -0.2975
     18 C           3.5345  -14.1282   27.0803 C.3     1  UNL1        0.0686
     19 H           1.5231  -14.1465   26.7230 H       1  UNL1        0.1232
     20 C           9.2027   -5.1319   29.3694 C.3     1  UNL1        0.1166
     21 C           7.1203   -4.2588   30.6544 C.2     1  UNL1        0.2462
     22 O           6.8935   -5.6301   31.2184 O.2     1  UNL1       -0.2701
     23 N           8.2750   -4.0097   29.7299 N.am    1  UNL1       -0.2969
     24 H           8.4239   -3.1097   29.3597 H       1  UNL1        0.1501
     25 C           4.3370   -0.8924   31.7360 C.ar    1  UNL1        0.1724
     26 C           4.9096   -0.9769   30.3522 C.ar    1  UNL1        0.0402
     27 C           5.8374   -2.0990   29.9917 C.ar    1  UNL1        0.0078
     28 C           6.1925   -3.1367   31.0149 C.ar    1  UNL1        0.0566
     29 C           5.6199   -3.0522   32.3987 C.ar    1  UNL1        0.0446
     30 C           4.6922   -1.9300   32.7593 C.ar    1  UNL1        0.1725
     31 C           2.4987    0.8134   31.0572 C.3     1  UNL1        0.2526
     32 O           3.4092    0.2298   32.0965 O.3     1  UNL1       -0.4684
     33 O           4.1195   -1.8455   34.1431 O.3     1  UNL1       -0.4684
     34 C           4.7119   -0.8976   35.1433 C.3     1  UNL1        0.2526
@<TRIPOS>BOND
     1    31    32    1
     2    32    25    1
     3    25    26   ar
     4    26    27   ar
     5    27    28   ar
     6    28    21    1
     7    21    22    2
     8    21    23   am
     9    23    20    1
    10    20     1    1
    11     1     2   ar
    12     2     3   ar
    13     3     4   ar
    14     4     5   ar
    15     5     7    1
    16     7     8    2
    17     7     9   am
    18     9    11    1
    19    11    12    1
    20    12    13    1
    21    13    14    1
    22    14    15    1
    23    15    16    1
    24    16    17    1
    25    17    18    1
    26     5     6   ar
    27    28    29   ar
    28    29    30   ar
    29    30    33    1
    30    33    34    1
    31    30    25   ar
    32     6     1   ar
    33    18    13    1
    34    23    24    1
    35     9    10    1
    36    17    19    1
@<TRIPOS>MOLECULE
*****
 34 36 0 0 0
SMALL
GASTEIGER

@<TRIPOS>ATOM
      1 C          -5.3904  -15.7941   24.5647 C.ar    1  UNL1       -0.0024
      2 C          -5.0027  -16.1828   25.9606 C.ar    1  UNL1       -0.0026
      3 C          -3.8857  -17.1586   26.1846 C.ar    1  UNL1       -0.0001
      4 C          -3.1565  -17.7457   25.0126 C.ar    1  UNL1        0.0045
      5 C          -3.5442  -17.3570   23.6167 C.ar    1  UNL1        0.0531
      6 C          -4.6612  -16.3812   23.3928 C.ar    1  UNL1        0.0019
      7 C          -2.8150  -17.9441   22.4447 C.2     1  UNL1        0.2458
      8 O          -2.3092  -19.3549   22.5062 O.2     1  UNL1       -0.2701
      9 N          -2.5915  -17.1203   21.2112 N.am    1  UNL1       -0.3009
     10 H          -2.9235  -16.1944   21.1708 H       1  UNL1        0.1497
     11 C          -1.8623  -17.7075   20.0392 C.3     1  UNL1        0.0897
     12 C          -2.5365  -18.7281   19.1710 C.3     1  UNL1        0.0226
     13 C          -3.9081  -19.2232   19.5224 C.3     1  UNL1        0.0175
     14 C          -4.1110  -20.6577   19.9110 C.3     1  UNL1        0.0029
     15 C          -5.4826  -21.1528   20.2624 C.3     1  UNL1        0.0171
     16 C          -6.6514  -20.2134   20.2253 C.3     1  UNL1        0.0686
     17 N          -6.4486  -18.7789   19.8367 N.3     1  UNL1       -0.2975
     18 C          -5.0769  -18.2838   19.4853 C.3     1  UNL1        0.0686
     19 H          -6.7742  -18.2128   20.6202 H       1  UNL1        0.1232
     20 C          -6.5075  -14.8183   24.3407 C.3     1  UNL1        0.1166
     21 C          -8.3318  -16.2922   23.2232 C.2     1  UNL1        0.2462
     22 O          -7.3205  -16.7959   22.2365 O.2     1  UNL1       -0.2701
     23 N          -7.9253  -15.3034   24.2753 N.am    1  UNL1       -0.2969
     24 H          -8.5891  -14.9728   24.9228 H       1  UNL1        0.1501
     25 C         -12.5854  -17.7477   23.0267 C.ar    1  UNL1        0.1724
     26 C         -11.7039  -18.1591   24.1685 C.ar    1  UNL1        0.0402
     27 C         -10.2861  -17.6740   24.2339 C.ar    1  UNL1        0.0078
     28 C          -9.7497  -16.7774   23.1577 C.ar    1  UNL1        0.0566
     29 C         -10.6312  -16.3659   22.0160 C.ar    1  UNL1        0.0446
     30 C         -12.0491  -16.8511   21.9505 C.ar    1  UNL1        0.1725
     31 C         -14.7913  -18.4192   24.2239 C.3     1  UNL1        0.2526
     32 O         -14.0033  -18.2328   22.9613 O.3     1  UNL1       -0.4684
     33 O         -12.9306  -16.4396   20.8087 O.3     1  UNL1       -0.4684
     34 C         -12.3215  -15.9180   19.5410 C.3     1  UNL1        0.2526
@<TRIPOS>BOND
     1    31    32    1
     2    32    25    1
     3    25    26   ar
     4    26    27   ar
     5    27    28   ar
     6    28    21    1
     7    21    22    2
     8    21    23   am
     9    23    20    1
    10    20     1    1
    11     1     2   ar
    12     2     3   ar
    13     3     4   ar
    14     4     5   ar
    15     5     7    1
    16     7     8    2
    17     7     9   am
    18     9    11    1
    19    11    12    1
    20    12    13    1
    21    13    14    1
    22    14    15    1
    23    15    16    1
    24    16    17    1
    25    17    18    1
    26     5     6   ar
    27    28    29   ar
    28    29    30   ar
    29    30    33    1
    30    33    34    1
    31    30    25   ar
    32     6     1   ar
    33    18    13    1
    34    23    24    1
    35     9    10    1
    36    17    19    1
@<TRIPOS>MOLECULE
*****
 34 36 0 0 0
SMALL
GASTEIGER

@<TRIPOS>ATOM
      1 C          -1.3117    3.5351   19.1042 C.ar    1  UNL1       -0.0024
      2 C          -1.1652    3.6885   17.6193 C.ar    1  UNL1       -0.0026
      3 C          -2.3730    3.9525   16.7698 C.ar    1  UNL1       -0.0001
      4 C          -3.7272    4.0631   17.4053 C.ar    1  UNL1        0.0045
      5 C          -3.8737    3.9097   18.8903 C.ar    1  UNL1        0.0531
      6 C          -2.6659    3.6457   19.7397 C.ar    1  UNL1        0.0019
      7 C          -5.2279    4.0203   19.5257 C.2     1  UNL1        0.2458
      8 O          -6.3675    3.1914   19.0118 O.2     1  UNL1       -0.2701
      9 N          -5.4425    4.9599   20.6752 N.am    1  UNL1       -0.3009
     10 H          -4.6945    5.5039   21.0126 H       1  UNL1        0.1497
     11 C          -6.7967    5.0705   21.3107 C.3     1  UNL1        0.0897
     12 C          -7.1344    4.2317   22.5075 C.3     1  UNL1        0.0226
     13 C          -6.2744    4.2955   23.7349 C.3     1  UNL1        0.0175
     14 C          -6.6264    5.2359   24.8492 C.3     1  UNL1        0.0029
     15 C          -5.7664    5.2997   26.0765 C.3     1  UNL1        0.0171
     16 C          -4.5545    4.4232   26.1896 C.3     1  UNL1        0.0686
     17 N          -4.2025    3.4828   25.0752 N.3     1  UNL1       -0.2975
     18 C          -5.0624    3.4190   23.8479 C.3     1  UNL1        0.0686
     19 H          -4.1896    2.5445   25.4748 H       1  UNL1        0.1232
     20 C          -0.1039    3.2711   19.9538 C.3     1  UNL1        0.1166
     21 C           0.9955    0.9284   19.7225 C.2     1  UNL1        0.2462
     22 O          -0.1172    0.3268   20.5287 O.2     1  UNL1       -0.2701
     23 N           1.0021    2.4006   19.4351 N.am    1  UNL1       -0.2969
     24 H           1.7324    2.7955   18.9059 H       1  UNL1        0.1501
     25 C           4.3134   -1.6830   18.1664 C.ar    1  UNL1        0.1724
     26 C           4.0080   -0.3777   17.4935 C.ar    1  UNL1        0.0402
     27 C           2.9020    0.4927   18.0122 C.ar    1  UNL1        0.0078
     28 C           2.1014    0.0580   19.2038 C.ar    1  UNL1        0.0566
     29 C           2.4069   -1.2473   19.8768 C.ar    1  UNL1        0.0446
     30 C           3.5129   -2.1178   19.3581 C.ar    1  UNL1        0.1725
     31 C           6.8352   -2.3009   18.0739 C.3     1  UNL1        0.2526
     32 O           5.4194   -2.5535   17.6477 O.3     1  UNL1       -0.4684
     33 O           3.8184   -3.4231   20.0311 O.3     1  UNL1       -0.4684
     34 C           3.3677   -4.7113   19.4088 C.3     1  UNL1        0.2526
@<TRIPOS>BOND
     1    31    32    1
     2    32    25    1
     3    25    26   ar
     4    26    27   ar
     5    27    28   ar
     6    28    21    1
     7    21    22    2
     8    21    23   am
     9    23    20    1
    10    20     1    1
    11     1     2   ar
    12     2     3   ar
    13     3     4   ar
    14     4     5   ar
    15     5     7    1
    16     7     8    2
    17     7     9   am
    18     9    11    1
    19    11    12    1
    20    12    13    1
    21    13    14    1
    22    14    15    1
    23    15    16    1
    24    16    17    1
    25    17    18    1
    26     5     6   ar
    27    28    29   ar
    28    29    30   ar
    29    30    33    1
    30    33    34    1
    31    30    25   ar
    32     6     1   ar
    33    18    13    1
    34    23    24    1
    35     9    10    1
    36    17    19    1
