@<TRIPOS>MOLECULE
*****
 54 57 0 0 0
SMALL
GASTEIGER

@<TRIPOS>ATOM
      1 C           5.6228   -2.3854   23.9291 C.3     1  UNL1        0.0784
      2 C           6.4103   -2.8503   26.3610 C.2     1  UNL1        0.2403
      3 O           7.7473   -2.2494   26.0429 O.2     1  UNL1       -0.2733
      4 N           5.3480   -2.9184   25.3041 N.am    1  UNL1       -0.3042
      5 H           4.4704   -3.3128   25.5128 H       1  UNL1        0.1494
      6 C           6.1354   -3.3833   27.7359 C.3     1  UNL1        0.1496
      7 N           5.5567   -0.6260   30.5310 N.am    1  UNL1       -0.2567
      8 C           6.3432    0.4001   31.2917 C.3     1  UNL1        0.1168
      9 C           6.2393   -1.4916   29.5138 C.2     1  UNL1        0.3046
     10 O           7.7085   -1.3311   29.2571 O.2     1  UNL1       -0.2526
     11 N           5.4527   -2.5177   28.7532 N.am    1  UNL1       -0.2824
     12 H           4.4885   -2.6230   28.9216 H       1  UNL1        0.1514
     13 C           4.0875   -0.7865   30.7877 C.3     1  UNL1        0.1413
     14 C           1.0014    0.3869   28.7470 C.ar    1  UNL1        0.0875
     15 N           1.6059   -0.3976   29.8735 N.ar    1  UNL1       -0.2453
     16 C           3.0908   -0.1875   29.8403 C.ar    1  UNL1        0.0858
     17 C           3.4039    0.7269   28.6932 C.ar    1  UNL1        0.0530
     18 S           2.1126    1.0819   28.0175 S.2     1  UNL1       -0.0705
     19 C          -1.3876   -0.6292   28.8488 C.3     1  UNL1        0.0069
     20 C          -0.4581    0.4630   28.4093 C.3     1  UNL1        0.0465
     21 C          -0.9881    1.6314   27.6321 C.3     1  UNL1        0.0069
     22 C           6.5432   -4.7817   28.0936 C.3     1  UNL1        0.0270
     23 C           6.7672   -5.1536   29.5294 C.3     1  UNL1        0.0022
     24 C           6.7270   -5.8083   27.0155 C.3     1  UNL1        0.0022
     25 C           5.1810   -1.0004   23.5595 C.3     1  UNL1        0.0508
     26 C           3.7580   -0.5823   23.7832 C.3     1  UNL1        0.1304
     27 O           3.0925   -0.8605   25.0985 O.3     1  UNL1       -0.3827
     28 H           3.7167   -1.3127   25.6874 H       1  UNL1        0.2104
     29 C           3.0003    0.1139   22.6918 C.3     1  UNL1        0.1059
     30 N           2.6005    1.5503   22.8549 N.am    1  UNL1       -0.2696
     31 C           1.4306    1.9094   23.7224 C.2     1  UNL1        0.4020
     32 O           0.6605    0.8319   24.4266 O.2     1  UNL1       -0.2264
     33 H           3.1060    2.2575   22.3927 H       1  UNL1        0.1528
     34 O           1.0308    3.3459   23.8855 O.3     1  UNL1       -0.4291
     35 C          -0.1574    3.7026   24.7286 C.3     1  UNL1        0.2447
     36 C          -1.5339    3.6789   24.1330 C.ar    1  UNL1        0.0714
     37 C          -2.8216    3.5612   24.8932 C.ar    1  UNL1        0.1053
     38 N          -3.9479    3.5783   23.9027 N.ar    1  UNL1       -0.2350
     39 C          -3.3563    3.7066   22.5302 C.ar    1  UNL1        0.1343
     40 S          -1.8644    3.7688   22.6726 S.2     1  UNL1       -0.0652
     41 C           2.6426   -0.6264   21.4372 C.3     1  UNL1        0.0485
     42 C           3.3649   -0.3261   20.1573 C.ar    1  UNL1       -0.0204
     43 C           4.7457    0.2587   20.1948 C.ar    1  UNL1       -0.0042
     44 C           5.4680    0.5589   18.9148 C.ar    1  UNL1       -0.0003
     45 C           4.8095    0.2744   17.5975 C.ar    1  UNL1       -0.0000
     46 C           3.4287   -0.3104   17.5601 C.ar    1  UNL1       -0.0003
     47 C           2.7064   -0.6107   18.8399 C.ar    1  UNL1       -0.0042
     48 C           6.3394   -3.2374   22.9239 C.3     1  UNL1        0.0460
     49 C           5.8067   -3.3575   21.5267 C.ar    1  UNL1       -0.0205
     50 C           6.6474   -2.9216   20.3635 C.ar    1  UNL1       -0.0042
     51 C           6.1146   -3.0417   18.9665 C.ar    1  UNL1       -0.0003
     52 C           4.7412   -3.5976   18.7327 C.ar    1  UNL1       -0.0000
     53 C           3.9005   -4.0335   19.8959 C.ar    1  UNL1       -0.0003
     54 C           4.4333   -3.9135   21.2930 C.ar    1  UNL1       -0.0042
@<TRIPOS>BOND
     1    19    20    1
     2    20    21    1
     3    20    14    1
     4    14    15   ar
     5    15    16   ar
     6    16    13    1
     7    13     7    1
     8     7     8    1
     9     7     9   am
    10     9    10    2
    11     9    11   am
    12     6    11    1
    13     6     2    1
    14     2     3    2
    15     2     4   am
    16     4     1    1
    17     1    48    1
    18    48    49    1
    19    49    50   ar
    20    50    51   ar
    21    51    52   ar
    22    52    53   ar
    23    53    54   ar
    24     1    25    1
    25    25    26    1
    26    26    27    1
    27    26    29    1
    28    29    41    1
    29    41    42    1
    30    42    43   ar
    31    43    44   ar
    32    44    45   ar
    33    45    46   ar
    34    46    47   ar
    35    29    30    1
    36    30    31   am
    37    31    32    2
    38    31    34    1
    39    34    35    1
    40    35    36    1
    41    36    37   ar
    42    37    38   ar
    43    38    39   ar
    44    39    40   ar
    45     6    22    1
    46    22    23    1
    47    22    24    1
    48    16    17   ar
    49    17    18   ar
    50    18    14   ar
    51    54    49   ar
    52    47    42   ar
    53    40    36   ar
    54    11    12    1
    55     4     5    1
    56    27    28    1
    57    30    33    1
@<TRIPOS>MOLECULE
*****
 54 57 0 0 0
SMALL
GASTEIGER

@<TRIPOS>ATOM
      1 C           2.7463    0.3577   24.2151 C.3     1  UNL1        0.0784
      2 C           1.8993    1.3357   26.4681 C.2     1  UNL1        0.2403
      3 O           2.5976    2.6291   26.1692 O.2     1  UNL1       -0.2733
      4 N           1.9736    0.2000   25.4911 N.am    1  UNL1       -0.3042
      5 H           1.5153   -0.6490   25.6873 H       1  UNL1        0.1494
      6 C           1.1267    1.1780   27.7441 C.3     1  UNL1        0.1496
      7 N           3.4485   -0.2290   30.6389 N.am    1  UNL1       -0.2567
      8 C           4.3178   -1.4192   30.9177 C.3     1  UNL1        0.1168
      9 C           2.7223   -0.1206   29.3310 C.2     1  UNL1        0.3046
     10 O           2.8653   -1.2024   28.3018 O.2     1  UNL1       -0.2526
     11 N           1.8530    1.0696   29.0522 N.am    1  UNL1       -0.2824
     12 H           1.7591    1.7797   29.7276 H       1  UNL1        0.1514
     13 C           3.3055    0.8529   31.6681 C.3     1  UNL1        0.1413
     14 C           5.3139    0.7761   34.9887 C.ar    1  UNL1        0.0875
     15 N           4.0715    0.4805   34.2018 N.ar    1  UNL1       -0.2453
     16 C           4.2910    0.9514   32.7947 C.ar    1  UNL1        0.0858
     17 C           5.6690    1.5380   32.7118 C.ar    1  UNL1        0.0530
     18 S           6.3012    1.4297   34.0678 S.2     1  UNL1       -0.0705
     19 C           6.8697   -0.0118   36.9145 C.3     1  UNL1        0.0069
     20 C           5.5308    0.4716   36.4413 C.3     1  UNL1        0.0465
     21 C           4.4089    0.6504   37.4208 C.3     1  UNL1        0.0069
     22 C          -0.3721    1.1286   27.7122 C.3     1  UNL1        0.0270
     23 C          -1.1361    2.0925   26.8536 C.3     1  UNL1        0.0022
     24 C          -1.1069    0.1153   28.5387 C.3     1  UNL1        0.0022
     25 C           4.1568   -0.1449   24.1253 C.3     1  UNL1        0.0508
     26 C           4.4909   -1.5295   24.5956 C.3     1  UNL1        0.1304
     27 O           3.9323   -2.0365   25.8922 O.3     1  UNL1       -0.3827
     28 H           3.3801   -1.3494   26.2970 H       1  UNL1        0.2104
     29 C           5.3835   -2.4072   23.7693 C.3     1  UNL1        0.1059
     30 N           5.8099   -3.7471   24.2917 N.am    1  UNL1       -0.2696
     31 C           6.8781   -3.8377   25.3409 C.2     1  UNL1        0.4020
     32 O           7.5199   -2.5885   25.8676 O.2     1  UNL1       -0.2264
     33 H           5.3887   -4.5670   23.9460 H       1  UNL1        0.1528
     34 O           7.3045   -5.1776   25.8633 O.3     1  UNL1       -0.4291
     35 C           8.3784   -5.2688   26.9066 C.3     1  UNL1        0.2447
     36 C           8.0096   -5.4629   28.3475 C.ar    1  UNL1        0.0714
     37 C           8.6892   -6.3863   29.3147 C.ar    1  UNL1        0.1053
     38 N           7.9962   -6.2619   30.6392 N.ar    1  UNL1       -0.2350
     39 C           6.8883   -5.2616   30.4906 C.ar    1  UNL1        0.1343
     40 S           6.8966   -4.7679   29.0742 S.2     1  UNL1       -0.0652
     41 C           5.8498   -1.9451   22.4206 C.3     1  UNL1        0.0485
     42 C           5.4363   -2.6924   21.1875 C.ar    1  UNL1       -0.0204
     43 C           6.0621   -2.3617   19.8649 C.ar    1  UNL1       -0.0042
     44 C           5.6486   -3.1090   18.6318 C.ar    1  UNL1       -0.0003
     45 C           4.6094   -4.1869   18.7212 C.ar    1  UNL1       -0.0000
     46 C           3.9836   -4.5176   20.0437 C.ar    1  UNL1       -0.0003
     47 C           4.3971   -3.7704   21.2768 C.ar    1  UNL1       -0.0042
     48 C           2.1085    1.0180   23.0288 C.3     1  UNL1        0.0460
     49 C           2.4953    0.6016   21.6406 C.ar    1  UNL1       -0.0205
     50 C           2.0284   -0.7154   21.0952 C.ar    1  UNL1       -0.0042
     51 C           2.4152   -1.1317   19.7070 C.ar    1  UNL1       -0.0003
     52 C           3.2690   -0.2311   18.8644 C.ar    1  UNL1       -0.0000
     53 C           3.7359    1.0858   19.4099 C.ar    1  UNL1       -0.0003
     54 C           3.3490    1.5022   20.7980 C.ar    1  UNL1       -0.0042
@<TRIPOS>BOND
     1    19    20    1
     2    20    21    1
     3    20    14    1
     4    14    15   ar
     5    15    16   ar
     6    16    13    1
     7    13     7    1
     8     7     8    1
     9     7     9   am
    10     9    10    2
    11     9    11   am
    12     6    11    1
    13     6     2    1
    14     2     3    2
    15     2     4   am
    16     4     1    1
    17     1    48    1
    18    48    49    1
    19    49    50   ar
    20    50    51   ar
    21    51    52   ar
    22    52    53   ar
    23    53    54   ar
    24     1    25    1
    25    25    26    1
    26    26    27    1
    27    26    29    1
    28    29    41    1
    29    41    42    1
    30    42    43   ar
    31    43    44   ar
    32    44    45   ar
    33    45    46   ar
    34    46    47   ar
    35    29    30    1
    36    30    31   am
    37    31    32    2
    38    31    34    1
    39    34    35    1
    40    35    36    1
    41    36    37   ar
    42    37    38   ar
    43    38    39   ar
    44    39    40   ar
    45     6    22    1
    46    22    23    1
    47    22    24    1
    48    16    17   ar
    49    17    18   ar
    50    18    14   ar
    51    54    49   ar
    52    47    42   ar
    53    40    36   ar
    54    11    12    1
    55     4     5    1
    56    27    28    1
    57    30    33    1
@<TRIPOS>MOLECULE
*****
 54 57 0 0 0
SMALL
GASTEIGER

@<TRIPOS>ATOM
      1 C           0.7119    0.5038   20.0127 C.3     1  UNL1        0.0784
      2 C          -0.6187    2.6238   20.7093 C.2     1  UNL1        0.2403
      3 O           0.5821    3.4736   20.4167 O.2     1  UNL1       -0.2733
      4 N          -0.5539    1.1388   20.5073 N.am    1  UNL1       -0.3042
      5 H          -1.3420    0.5810   20.6994 H       1  UNL1        0.1494
      6 C          -1.8844    3.2588   21.2039 C.3     1  UNL1        0.1496
      7 N          -1.7905    5.3590   24.5700 N.am    1  UNL1       -0.2567
      8 C          -1.4152    6.7335   25.0388 C.3     1  UNL1        0.1168
      9 C          -1.6498    4.9961   23.1214 C.2     1  UNL1        0.3046
     10 O          -1.1338    6.0079   22.1415 O.2     1  UNL1       -0.2526
     11 N          -2.0251    3.6216   22.6526 N.am    1  UNL1       -0.2824
     12 H          -2.3638    2.9575   23.2957 H       1  UNL1        0.1514
     13 C          -2.3065    4.3472   25.5499 C.3     1  UNL1        0.1413
     14 C          -0.4717    1.5921   27.5769 C.ar    1  UNL1        0.0875
     15 N          -1.7332    2.2743   27.1372 N.ar    1  UNL1       -0.2453
     16 C          -1.3560    3.4009   26.2215 C.ar    1  UNL1        0.0858
     17 C           0.1386    3.4151   26.0953 C.ar    1  UNL1        0.0530
     18 S           0.6852    2.2973   26.9330 S.2     1  UNL1       -0.0705
     19 C          -1.6319   -0.1842   29.0764 C.3     1  UNL1        0.0069
     20 C          -0.3827    0.4122   28.4987 C.3     1  UNL1        0.0465
     21 C           0.9556   -0.1715   28.8427 C.3     1  UNL1        0.0069
     22 C          -3.0094    3.5311   20.2499 C.3     1  UNL1        0.0270
     23 C          -2.7204    4.0985   18.8918 C.3     1  UNL1        0.0022
     24 C          -4.4235    3.2359   20.6540 C.3     1  UNL1        0.0022
     25 C           1.5829   -0.2685   20.9588 C.3     1  UNL1        0.0508
     26 C           2.4777    0.4590   21.9180 C.3     1  UNL1        0.1304
     27 O           2.1987    1.8915   22.2647 O.3     1  UNL1       -0.3827
     28 H           1.4103    2.1923   21.7862 H       1  UNL1        0.2104
     29 C           3.6515   -0.2460   22.5304 C.3     1  UNL1        0.1059
     30 N           3.5710   -0.7505   23.9407 N.am    1  UNL1       -0.2696
     31 C           3.5698    0.2191   25.0852 C.2     1  UNL1        0.4020
     32 O           3.6491    1.6932   24.8195 O.2     1  UNL1       -0.2264
     33 H           3.5190   -1.7180   24.1151 H       1  UNL1        0.1528
     34 O           3.4893   -0.2856   26.4956 O.3     1  UNL1       -0.4291
     35 C           3.9830   -1.6622   26.8289 C.3     1  UNL1        0.2447
     36 C           5.0161   -1.8496   27.9001 C.ar    1  UNL1        0.0714
     37 C           6.1437   -2.8384   27.8741 C.ar    1  UNL1        0.1053
     38 N           6.9275   -2.6810   29.1433 N.ar    1  UNL1       -0.2350
     39 C           6.2843   -1.5949   29.9537 C.ar    1  UNL1        0.1343
     40 S           5.1030   -1.0810   29.1853 S.2     1  UNL1       -0.0652
     41 C           4.9059   -0.4463   21.7326 C.3     1  UNL1        0.0485
     42 C           4.9861   -1.5568   20.7275 C.ar    1  UNL1       -0.0204
     43 C           3.7837   -2.4119   20.4570 C.ar    1  UNL1       -0.0042
     44 C           3.8640   -3.5225   19.4519 C.ar    1  UNL1       -0.0003
     45 C           5.1466   -3.7779   18.7173 C.ar    1  UNL1       -0.0000
     46 C           6.3490   -2.9229   18.9878 C.ar    1  UNL1       -0.0003
     47 C           6.2687   -1.8124   19.9929 C.ar    1  UNL1       -0.0042
     48 C           1.1066    0.6410   18.5721 C.3     1  UNL1        0.0460
     49 C           2.5573    0.6777   18.1922 C.ar    1  UNL1       -0.0205
     50 C           3.1529   -0.4460   17.3968 C.ar    1  UNL1       -0.0042
     51 C           4.6035   -0.4093   17.0169 C.ar    1  UNL1       -0.0003
     52 C           5.4585    0.7511   17.4323 C.ar    1  UNL1       -0.0000
     53 C           4.8628    1.8747   18.2277 C.ar    1  UNL1       -0.0003
     54 C           3.4123    1.8380   18.6076 C.ar    1  UNL1       -0.0042
@<TRIPOS>BOND
     1    19    20    1
     2    20    21    1
     3    20    14    1
     4    14    15   ar
     5    15    16   ar
     6    16    13    1
     7    13     7    1
     8     7     8    1
     9     7     9   am
    10     9    10    2
    11     9    11   am
    12     6    11    1
    13     6     2    1
    14     2     3    2
    15     2     4   am
    16     4     1    1
    17     1    48    1
    18    48    49    1
    19    49    50   ar
    20    50    51   ar
    21    51    52   ar
    22    52    53   ar
    23    53    54   ar
    24     1    25    1
    25    25    26    1
    26    26    27    1
    27    26    29    1
    28    29    41    1
    29    41    42    1
    30    42    43   ar
    31    43    44   ar
    32    44    45   ar
    33    45    46   ar
    34    46    47   ar
    35    29    30    1
    36    30    31   am
    37    31    32    2
    38    31    34    1
    39    34    35    1
    40    35    36    1
    41    36    37   ar
    42    37    38   ar
    43    38    39   ar
    44    39    40   ar
    45     6    22    1
    46    22    23    1
    47    22    24    1
    48    16    17   ar
    49    17    18   ar
    50    18    14   ar
    51    54    49   ar
    52    47    42   ar
    53    40    36   ar
    54    11    12    1
    55     4     5    1
    56    27    28    1
    57    30    33    1
@<TRIPOS>MOLECULE
*****
 54 57 0 0 0
SMALL
GASTEIGER

@<TRIPOS>ATOM
      1 C           4.3559   -1.0634   28.3982 C.3     1  UNL1        0.0784
      2 C           2.1705    0.3408   28.3480 C.2     1  UNL1        0.2403
      3 O           2.4576    0.7369   26.9300 O.2     1  UNL1       -0.2733
      4 N           3.1197   -0.5594   29.0821 N.am    1  UNL1       -0.3042
      5 H           2.9313   -0.8193   30.0128 H       1  UNL1        0.1494
      6 C           0.9343    0.8449   29.0319 C.3     1  UNL1        0.1496
      7 N           1.4450    3.8020   31.6290 N.am    1  UNL1       -0.2567
      8 C           1.7334    5.2740   31.6289 C.3     1  UNL1        0.1168
      9 C           1.3338    3.0594   30.3304 C.2     1  UNL1        0.3046
     10 O           1.5110    3.7889   29.0317 O.2     1  UNL1       -0.2526
     11 N           1.0455    1.5874   30.3305 N.am    1  UNL1       -0.2824
     12 H           0.9292    1.1086   31.1828 H       1  UNL1        0.1514
     13 C           1.2679    3.0725   32.9277 C.3     1  UNL1        0.1413
     14 C           4.0884    0.6182   33.9701 C.ar    1  UNL1        0.0875
     15 N           2.9281    0.9841   33.0927 N.ar    1  UNL1       -0.2453
     16 C           2.4199    2.3255   33.5315 C.ar    1  UNL1        0.0858
     17 C           3.2661    2.7886   34.6802 C.ar    1  UNL1        0.0530
     18 S           4.2972    1.7335   34.9513 S.2     1  UNL1       -0.0705
     19 C           6.3809   -0.5971   34.1006 C.3     1  UNL1        0.0069
     20 C           4.8976   -0.6416   33.8820 C.3     1  UNL1        0.0465
     21 C           4.2236   -1.9460   33.5751 C.3     1  UNL1        0.0069
     22 C          -0.4130    0.6064   28.4172 C.3     1  UNL1        0.0270
     23 C          -1.2132   -0.6003   28.8091 C.3     1  UNL1        0.0022
     24 C          -0.9601    1.5747   27.4107 C.3     1  UNL1        0.0022
     25 C           4.2401   -2.0245   27.2523 C.3     1  UNL1        0.0508
     26 C           4.9551   -1.7447   25.9636 C.3     1  UNL1        0.1304
     27 O           4.5621   -0.5615   25.1295 O.3     1  UNL1       -0.3827
     28 H           3.8358   -0.0870   25.5632 H       1  UNL1        0.2104
     29 C           6.0629   -2.6480   25.5092 C.3     1  UNL1        0.1059
     30 N           5.8268   -3.6210   24.3922 N.am    1  UNL1       -0.2696
     31 C           5.8458   -3.1479   22.9689 C.2     1  UNL1        0.4020
     32 O           6.1010   -1.7019   22.6625 O.2     1  UNL1       -0.2264
     33 H           5.6594   -4.5700   24.5933 H       1  UNL1        0.1528
     34 O           5.6097   -4.1209   21.8519 O.3     1  UNL1       -0.4291
     35 C           4.4094   -3.9680   20.9653 C.3     1  UNL1        0.2447
     36 C           4.4780   -3.0830   19.7562 C.ar    1  UNL1        0.0714
     37 C           5.4359   -3.2275   18.6110 C.ar    1  UNL1        0.1053
     38 N           5.1506   -2.1320   17.6270 N.ar    1  UNL1       -0.2350
     39 C           4.0164   -1.3103   18.1640 C.ar    1  UNL1        0.1343
     40 S           3.6007   -1.8981   19.4800 S.2     1  UNL1       -0.0652
     41 C           7.4069   -2.5784   26.1717 C.3     1  UNL1        0.0485
     42 C           7.8013   -3.6177   27.1788 C.ar    1  UNL1       -0.0204
     43 C           6.8568   -4.7336   27.5143 C.ar    1  UNL1       -0.0042
     44 C           7.2513   -5.7728   28.5215 C.ar    1  UNL1       -0.0003
     45 C           8.5903   -5.6962   29.1931 C.ar    1  UNL1       -0.0000
     46 C           9.5349   -4.5803   28.8576 C.ar    1  UNL1       -0.0003
     47 C           9.1404   -3.5411   27.8505 C.ar    1  UNL1       -0.0042
     48 C           5.7078   -0.6065   28.8601 C.3     1  UNL1        0.0460
     49 C           6.4753   -1.4231   29.8573 C.ar    1  UNL1       -0.0205
     50 C           7.8355   -0.9762   30.3046 C.ar    1  UNL1       -0.0042
     51 C           8.6028   -1.7929   31.3017 C.ar    1  UNL1       -0.0003
     52 C           8.0100   -3.0563   31.8514 C.ar    1  UNL1       -0.0000
     53 C           6.6498   -3.5032   31.4041 C.ar    1  UNL1       -0.0003
     54 C           5.8825   -2.6866   30.4070 C.ar    1  UNL1       -0.0042
@<TRIPOS>BOND
     1    19    20    1
     2    20    21    1
     3    20    14    1
     4    14    15   ar
     5    15    16   ar
     6    16    13    1
     7    13     7    1
     8     7     8    1
     9     7     9   am
    10     9    10    2
    11     9    11   am
    12     6    11    1
    13     6     2    1
    14     2     3    2
    15     2     4   am
    16     4     1    1
    17     1    48    1
    18    48    49    1
    19    49    50   ar
    20    50    51   ar
    21    51    52   ar
    22    52    53   ar
    23    53    54   ar
    24     1    25    1
    25    25    26    1
    26    26    27    1
    27    26    29    1
    28    29    41    1
    29    41    42    1
    30    42    43   ar
    31    43    44   ar
    32    44    45   ar
    33    45    46   ar
    34    46    47   ar
    35    29    30    1
    36    30    31   am
    37    31    32    2
    38    31    34    1
    39    34    35    1
    40    35    36    1
    41    36    37   ar
    42    37    38   ar
    43    38    39   ar
    44    39    40   ar
    45     6    22    1
    46    22    23    1
    47    22    24    1
    48    16    17   ar
    49    17    18   ar
    50    18    14   ar
    51    54    49   ar
    52    47    42   ar
    53    40    36   ar
    54    11    12    1
    55     4     5    1
    56    27    28    1
    57    30    33    1
@<TRIPOS>MOLECULE
*****
 54 57 0 0 0
SMALL
GASTEIGER

@<TRIPOS>ATOM
      1 C           2.9565   -0.7393   22.3881 C.3     1  UNL1        0.0784
      2 C           4.8928   -1.4121   23.9845 C.2     1  UNL1        0.2403
      3 O           5.7378   -0.3060   23.4258 O.2     1  UNL1       -0.2733
      4 N           3.5021   -1.6288   23.4657 N.am    1  UNL1       -0.3042
      5 H           2.9474   -2.3548   23.8324 H       1  UNL1        0.1494
      6 C           5.4383   -2.3017   25.0620 C.3     1  UNL1        0.1496
      7 N           5.9319   -0.6411   28.6326 N.am    1  UNL1       -0.2567
      8 C           6.8579    0.3193   29.3183 C.3     1  UNL1        0.1168
      9 C           6.1481   -0.9912   27.1902 C.2     1  UNL1        0.3046
     10 O           7.2904   -0.3809   26.4333 O.2     1  UNL1       -0.2526
     11 N           5.2221   -1.9516   26.5046 N.am    1  UNL1       -0.2824
     12 H           4.4724   -2.3522   27.0013 H       1  UNL1        0.1514
     13 C           4.7896   -1.2515   29.3895 C.3     1  UNL1        0.1413
     14 C           1.1817    0.1192   28.9784 C.ar    1  UNL1        0.0875
     15 N           2.2831   -0.8137   28.5705 N.ar    1  UNL1       -0.2453
     16 C           3.4678   -0.5452   29.4506 C.ar    1  UNL1        0.0858
     17 C           3.0985    0.5537   30.4024 C.ar    1  UNL1        0.0530
     18 S           1.6856    0.9643   30.1106 S.2     1  UNL1       -0.0705
     19 C          -0.4350    1.1134   27.2041 C.3     1  UNL1        0.0069
     20 C          -0.1839    0.1938   28.3623 C.3     1  UNL1        0.0465
     21 C          -1.2985   -0.6511   28.9045 C.3     1  UNL1        0.0069
     22 C           6.2000   -3.5412   24.6971 C.3     1  UNL1        0.0270
     23 C           6.8498   -4.3651   25.7691 C.3     1  UNL1        0.0022
     24 C           6.3120   -3.9569   23.2603 C.3     1  UNL1        0.0022
     25 C           2.6723    0.7044   22.6798 C.3     1  UNL1        0.0508
     26 C           3.2527    1.7749   21.8040 C.3     1  UNL1        0.1304
     27 O           4.7270    2.0500   21.8327 O.3     1  UNL1       -0.3827
     28 H           5.1551    1.4525   22.4656 H       1  UNL1        0.2104
     29 C           2.3588    2.5703   20.8994 C.3     1  UNL1        0.1059
     30 N           1.0367    3.0701   21.4016 N.am    1  UNL1       -0.2696
     31 C          -0.2024    2.2502   21.1957 C.2     1  UNL1        0.4020
     32 O          -0.1194    0.9306   20.4875 O.2     1  UNL1       -0.2264
     33 H           0.9823    3.9362   21.8665 H       1  UNL1        0.1528
     34 O          -1.5245    2.7500   21.6980 O.3     1  UNL1       -0.4291
     35 C          -2.0904    4.0348   21.1697 C.3     1  UNL1        0.2447
     36 C          -3.3308    4.0174   20.3265 C.ar    1  UNL1        0.0714
     37 C          -3.5507    4.7992   19.0655 C.ar    1  UNL1        0.1053
     38 N          -4.9249    4.4801   18.5559 N.ar    1  UNL1       -0.2350
     39 C          -5.5544    3.5010   19.5021 C.ar    1  UNL1        0.1343
     40 S          -4.5692    3.2151   20.5964 S.2     1  UNL1       -0.0652
     41 C           2.7870    2.8660   19.4925 C.3     1  UNL1        0.0485
     42 C           3.4140    1.7892   18.6574 C.ar    1  UNL1       -0.0204
     43 C           2.5729    0.6663   18.1267 C.ar    1  UNL1       -0.0042
     44 C           3.1999   -0.4105   17.2916 C.ar    1  UNL1       -0.0003
     45 C           4.6679   -0.3644   16.9872 C.ar    1  UNL1       -0.0000
     46 C           5.5090    0.7585   17.5179 C.ar    1  UNL1       -0.0003
     47 C           4.8821    1.8353   18.3530 C.ar    1  UNL1       -0.0042
     48 C           2.6952   -1.2933   21.0190 C.3     1  UNL1        0.0460
     49 C           3.7653   -2.0654   20.3055 C.ar    1  UNL1       -0.0205
     50 C           5.1874   -1.5903   20.3475 C.ar    1  UNL1       -0.0042
     51 C           6.2574   -2.3623   19.6341 C.ar    1  UNL1       -0.0003
     52 C           5.9053   -3.6094   18.8786 C.ar    1  UNL1       -0.0000
     53 C           4.4832   -4.0845   18.8365 C.ar    1  UNL1       -0.0003
     54 C           3.4132   -3.3124   19.5500 C.ar    1  UNL1       -0.0042
@<TRIPOS>BOND
     1    19    20    1
     2    20    21    1
     3    20    14    1
     4    14    15   ar
     5    15    16   ar
     6    16    13    1
     7    13     7    1
     8     7     8    1
     9     7     9   am
    10     9    10    2
    11     9    11   am
    12     6    11    1
    13     6     2    1
    14     2     3    2
    15     2     4   am
    16     4     1    1
    17     1    48    1
    18    48    49    1
    19    49    50   ar
    20    50    51   ar
    21    51    52   ar
    22    52    53   ar
    23    53    54   ar
    24     1    25    1
    25    25    26    1
    26    26    27    1
    27    26    29    1
    28    29    41    1
    29    41    42    1
    30    42    43   ar
    31    43    44   ar
    32    44    45   ar
    33    45    46   ar
    34    46    47   ar
    35    29    30    1
    36    30    31   am
    37    31    32    2
    38    31    34    1
    39    34    35    1
    40    35    36    1
    41    36    37   ar
    42    37    38   ar
    43    38    39   ar
    44    39    40   ar
    45     6    22    1
    46    22    23    1
    47    22    24    1
    48    16    17   ar
    49    17    18   ar
    50    18    14   ar
    51    54    49   ar
    52    47    42   ar
    53    40    36   ar
    54    11    12    1
    55     4     5    1
    56    27    28    1
    57    30    33    1
@<TRIPOS>MOLECULE
*****
 54 57 0 0 0
SMALL
GASTEIGER

@<TRIPOS>ATOM
      1 C           3.6069    1.0501   28.7849 C.3     1  UNL1        0.0784
      2 C           3.4447   -0.6709   26.8452 C.2     1  UNL1        0.2403
      3 O           2.7748   -1.6464   27.7669 O.2     1  UNL1       -0.2733
      4 N           3.8608    0.6774   27.3542 N.am    1  UNL1       -0.3042
      5 H           4.3005    1.3178   26.7493 H       1  UNL1        0.1494
      6 C           3.6985   -1.0435   25.4146 C.3     1  UNL1        0.1496
      7 N           7.1340   -3.0236   25.2508 N.am    1  UNL1       -0.2567
      8 C           8.5424   -2.8939   25.7504 C.3     1  UNL1        0.1168
      9 C           6.1205   -1.9688   25.5825 C.2     1  UNL1        0.3046
     10 O           6.5153   -0.7842   26.4139 O.2     1  UNL1       -0.2526
     11 N           4.7121   -2.0984   25.0829 N.am    1  UNL1       -0.2824
     12 H           4.4529   -2.8758   24.5373 H       1  UNL1        0.1514
     13 C           6.7392   -4.2081   24.4194 C.3     1  UNL1        0.1413
     14 C           5.1455   -3.7671   20.9079 C.ar    1  UNL1        0.0875
     15 N           5.0174   -3.9508   22.3911 N.ar    1  UNL1       -0.2453
     16 C           6.3992   -4.0271   22.9698 C.ar    1  UNL1        0.0858
     17 C           7.3813   -3.8907   21.8442 C.ar    1  UNL1        0.0530
     18 S           6.6065   -3.7300   20.5699 S.2     1  UNL1       -0.0705
     19 C           3.4615   -2.2895   19.5924 C.3     1  UNL1        0.0069
     20 C           4.0118   -3.6425   19.9337 C.3     1  UNL1        0.0465
     21 C           3.4283   -4.8710   19.3009 C.3     1  UNL1        0.0069
     22 C           2.9389   -0.3614   24.3158 C.3     1  UNL1        0.0270
     23 C           1.9479    0.7153   24.6455 C.3     1  UNL1        0.0022
     24 C           3.1703   -0.7559   22.8872 C.3     1  UNL1        0.0022
     25 C           4.2704    0.2816   29.8891 C.3     1  UNL1        0.0508
     26 C           3.4389   -0.3690   30.9547 C.3     1  UNL1        0.1304
     27 O           2.1110   -0.9730   30.6055 O.3     1  UNL1       -0.3827
     28 H           1.9427   -0.8578   29.6571 H       1  UNL1        0.2104
     29 C           3.9353   -0.4156   32.3694 C.3     1  UNL1        0.1059
     30 N           4.8855   -1.4952   32.7956 N.am    1  UNL1       -0.2696
     31 C           6.3633   -1.3048   32.6227 C.2     1  UNL1        0.4020
     32 O           6.8909   -0.0349   32.0237 O.2     1  UNL1       -0.2264
     33 H           4.5392   -2.3287   33.1887 H       1  UNL1        0.1528
     34 O           7.3135   -2.3845   33.0490 O.3     1  UNL1       -0.4291
     35 C           8.1915   -3.0544   32.0340 C.3     1  UNL1        0.2447
     36 C           7.5775   -3.7888   30.8792 C.ar    1  UNL1        0.0714
     37 C           7.2296   -5.2475   30.8466 C.ar    1  UNL1        0.1053
     38 N           6.6407   -5.5537   29.5015 N.ar    1  UNL1       -0.2350
     39 C           6.6247   -4.2841   28.7026 C.ar    1  UNL1        0.1343
     40 S           7.2037   -3.1934   29.5541 S.2     1  UNL1       -0.0652
     41 C           3.4816    0.6174   33.3578 C.3     1  UNL1        0.0485
     42 C           2.9540    1.9361   32.8757 C.ar    1  UNL1       -0.0204
     43 C           1.4758    2.1437   32.7277 C.ar    1  UNL1       -0.0042
     44 C           0.9482    3.4625   32.2455 C.ar    1  UNL1       -0.0003
     45 C           1.8988    4.5737   31.9113 C.ar    1  UNL1       -0.0000
     46 C           3.3770    4.3661   32.0593 C.ar    1  UNL1       -0.0003
     47 C           3.9046    3.0473   32.5414 C.ar    1  UNL1       -0.0042
     48 C           2.6897    2.1912   29.1112 C.3     1  UNL1        0.0460
     49 C           1.3728    2.3206   28.4047 C.ar    1  UNL1       -0.0205
     50 C           1.0083    3.6086   27.7278 C.ar    1  UNL1       -0.0042
     51 C          -0.3085    3.7380   27.0213 C.ar    1  UNL1       -0.0003
     52 C          -1.2609    2.5794   26.9918 C.ar    1  UNL1       -0.0000
     53 C          -0.8964    1.2915   27.6687 C.ar    1  UNL1       -0.0003
     54 C           0.4205    1.1621   28.3752 C.ar    1  UNL1       -0.0042
@<TRIPOS>BOND
     1    19    20    1
     2    20    21    1
     3    20    14    1
     4    14    15   ar
     5    15    16   ar
     6    16    13    1
     7    13     7    1
     8     7     8    1
     9     7     9   am
    10     9    10    2
    11     9    11   am
    12     6    11    1
    13     6     2    1
    14     2     3    2
    15     2     4   am
    16     4     1    1
    17     1    48    1
    18    48    49    1
    19    49    50   ar
    20    50    51   ar
    21    51    52   ar
    22    52    53   ar
    23    53    54   ar
    24     1    25    1
    25    25    26    1
    26    26    27    1
    27    26    29    1
    28    29    41    1
    29    41    42    1
    30    42    43   ar
    31    43    44   ar
    32    44    45   ar
    33    45    46   ar
    34    46    47   ar
    35    29    30    1
    36    30    31   am
    37    31    32    2
    38    31    34    1
    39    34    35    1
    40    35    36    1
    41    36    37   ar
    42    37    38   ar
    43    38    39   ar
    44    39    40   ar
    45     6    22    1
    46    22    23    1
    47    22    24    1
    48    16    17   ar
    49    17    18   ar
    50    18    14   ar
    51    54    49   ar
    52    47    42   ar
    53    40    36   ar
    54    11    12    1
    55     4     5    1
    56    27    28    1
    57    30    33    1
@<TRIPOS>MOLECULE
*****
 54 57 0 0 0
SMALL
GASTEIGER

@<TRIPOS>ATOM
      1 C           7.4384   -1.7702   26.6843 C.3     1  UNL1        0.0784
      2 C           6.6272   -2.8687   28.8946 C.2     1  UNL1        0.2403
      3 O           6.1682   -4.0732   28.1276 O.2     1  UNL1       -0.2733
      4 N           7.2623   -1.7171   28.1730 N.am    1  UNL1       -0.3042
      5 H           7.5636   -0.9265   28.6764 H       1  UNL1        0.1494
      6 C           6.4512   -2.8156   30.3833 C.3     1  UNL1        0.1496
      7 N           4.9509    0.5476   31.8626 N.am    1  UNL1       -0.2567
      8 C           5.3799    1.9602   32.1282 C.3     1  UNL1        0.1168
      9 C           5.9155   -0.4277   31.2557 C.2     1  UNL1        0.3046
     10 O           7.3092    0.0096   30.9145 O.2     1  UNL1       -0.2526
     11 N           5.4865   -1.8403   30.9902 N.am    1  UNL1       -0.2824
     12 H           4.5718   -2.1273   31.2141 H       1  UNL1        0.1514
     13 C           3.5572    0.1103   32.2038 C.3     1  UNL1        0.1413
     14 C           0.6338    0.7422   29.7300 C.ar    1  UNL1        0.0875
     15 N           1.7529   -0.1140   30.2444 N.ar    1  UNL1       -0.2453
     16 C           2.3962    0.6050   31.3930 C.ar    1  UNL1        0.0858
     17 C           1.6747    1.9054   31.5885 C.ar    1  UNL1        0.0530
     18 S           0.5855    1.9902   30.5607 S.2     1  UNL1       -0.0705
     19 C          -0.0470    1.0280   27.2390 C.3     1  UNL1        0.0069
     20 C          -0.2770    0.4088   28.5858 C.3     1  UNL1        0.0465
     21 C          -1.4179   -0.5438   28.7883 C.3     1  UNL1        0.0069
     22 C           7.2398   -3.7378   31.2651 C.3     1  UNL1        0.0270
     23 C           6.9255   -5.2043   31.2883 C.3     1  UNL1        0.0022
     24 C           8.3427   -3.1934   32.1237 C.3     1  UNL1        0.0022
     25 C           6.4949   -1.0212   25.7903 C.3     1  UNL1        0.0508
     26 C           5.1054   -1.5390   25.5645 C.3     1  UNL1        0.1304
     27 O           4.3572   -2.1936   26.6878 O.3     1  UNL1       -0.3827
     28 H           4.9108   -2.2006   27.4843 H       1  UNL1        0.2104
     29 C           4.4640   -1.4023   24.2155 C.3     1  UNL1        0.1059
     30 N           3.0136   -1.0354   24.1084 N.am    1  UNL1       -0.2696
     31 C           2.6168    0.3892   23.8574 C.2     1  UNL1        0.4020
     32 O           3.6705    1.4470   23.7135 O.2     1  UNL1       -0.2264
     33 H           2.3220   -1.7297   24.2028 H       1  UNL1        0.1528
     34 O           1.1662    0.7560   23.7503 O.3     1  UNL1       -0.4291
     35 C           0.7077    1.6954   22.6746 C.3     1  UNL1        0.2447
     36 C           0.9811    1.3774   21.2345 C.ar    1  UNL1        0.0714
     37 C           0.2445    0.3736   20.3980 C.ar    1  UNL1        0.1053
     38 N           0.8473    0.3831   19.0245 N.ar    1  UNL1       -0.2350
     39 C           1.9566    1.3928   19.0121 C.ar    1  UNL1        0.1343
     40 S           2.0392    2.0073   20.3779 S.2     1  UNL1       -0.0652
     41 C           5.2731   -1.6324   22.9736 C.3     1  UNL1        0.0485
     42 C           4.6424   -2.2804   21.7768 C.ar    1  UNL1       -0.0204
     43 C           4.6449   -3.7745   21.6445 C.ar    1  UNL1       -0.0042
     44 C           4.0141   -4.4225   20.4477 C.ar    1  UNL1       -0.0003
     45 C           3.3809   -3.5764   19.3833 C.ar    1  UNL1       -0.0000
     46 C           3.3784   -2.0823   19.5156 C.ar    1  UNL1       -0.0003
     47 C           4.0092   -1.4342   20.7123 C.ar    1  UNL1       -0.0042
     48 C           8.5578   -2.5722   26.0895 C.3     1  UNL1        0.0460
     49 C           8.4297   -3.1236   24.7004 C.ar    1  UNL1       -0.0205
     50 C           8.9419   -2.3364   23.5308 C.ar    1  UNL1       -0.0042
     51 C           8.8138   -2.8878   22.1418 C.ar    1  UNL1       -0.0003
     52 C           8.1735   -4.2264   21.9223 C.ar    1  UNL1       -0.0000
     53 C           7.6613   -5.0136   23.0919 C.ar    1  UNL1       -0.0003
     54 C           7.7894   -4.4622   24.4809 C.ar    1  UNL1       -0.0042
@<TRIPOS>BOND
     1    19    20    1
     2    20    21    1
     3    20    14    1
     4    14    15   ar
     5    15    16   ar
     6    16    13    1
     7    13     7    1
     8     7     8    1
     9     7     9   am
    10     9    10    2
    11     9    11   am
    12     6    11    1
    13     6     2    1
    14     2     3    2
    15     2     4   am
    16     4     1    1
    17     1    48    1
    18    48    49    1
    19    49    50   ar
    20    50    51   ar
    21    51    52   ar
    22    52    53   ar
    23    53    54   ar
    24     1    25    1
    25    25    26    1
    26    26    27    1
    27    26    29    1
    28    29    41    1
    29    41    42    1
    30    42    43   ar
    31    43    44   ar
    32    44    45   ar
    33    45    46   ar
    34    46    47   ar
    35    29    30    1
    36    30    31   am
    37    31    32    2
    38    31    34    1
    39    34    35    1
    40    35    36    1
    41    36    37   ar
    42    37    38   ar
    43    38    39   ar
    44    39    40   ar
    45     6    22    1
    46    22    23    1
    47    22    24    1
    48    16    17   ar
    49    17    18   ar
    50    18    14   ar
    51    54    49   ar
    52    47    42   ar
    53    40    36   ar
    54    11    12    1
    55     4     5    1
    56    27    28    1
    57    30    33    1
@<TRIPOS>MOLECULE
*****
 54 57 0 0 0
SMALL
GASTEIGER

@<TRIPOS>ATOM
      1 C           2.0137    2.6843   20.3311 C.3     1  UNL1        0.0784
      2 C          -0.4856    2.5827   21.0335 C.2     1  UNL1        0.2403
      3 O          -0.5159    1.1175   20.7140 O.2     1  UNL1       -0.2733
      4 N           0.7792    3.3662   20.8421 N.am    1  UNL1       -0.3042
      5 H           0.7991    4.3279   21.0519 H       1  UNL1        0.1494
      6 C          -1.7201    3.2646   21.5446 C.3     1  UNL1        0.1496
      7 N          -1.1622    4.7109   25.1979 N.am    1  UNL1       -0.2567
      8 C          -0.2639    5.6789   25.9093 C.3     1  UNL1        0.1168
      9 C          -0.9920    4.4717   23.7270 C.2     1  UNL1        0.3046
     10 O           0.0766    5.2005   22.9673 O.2     1  UNL1       -0.2526
     11 N          -1.8904    3.5038   23.0156 N.am    1  UNL1       -0.2824
     12 H          -2.5917    3.0255   23.5142 H       1  UNL1        0.1514
     13 C          -2.2308    3.9822   25.9576 C.3     1  UNL1        0.1413
     14 C          -5.8802    5.0264   25.1469 C.ar    1  UNL1        0.0875
     15 N          -4.5676    4.4264   24.7381 N.ar    1  UNL1       -0.2453
     16 C          -3.6466    4.4763   25.9210 C.ar    1  UNL1        0.0858
     17 C          -4.3900    5.1071   27.0610 C.ar    1  UNL1        0.0530
     18 S          -5.7704    5.4471   26.5826 S.2     1  UNL1       -0.0705
     19 C          -7.3234    4.2227   23.1416 C.3     1  UNL1        0.0069
     20 C          -7.0901    5.1789   24.2735 C.3     1  UNL1        0.0465
     21 C          -8.0667    6.2877   24.5320 C.3     1  UNL1        0.0069
     22 C          -2.7842    3.7073   20.5846 C.3     1  UNL1        0.0270
     23 C          -2.4190    4.0730   19.1765 C.3     1  UNL1        0.0022
     24 C          -4.2136    3.7842   21.0328 C.3     1  UNL1        0.0022
     25 C           3.0090    2.1126   21.2969 C.3     1  UNL1        0.0508
     26 C           2.5366    1.4579   22.5611 C.3     1  UNL1        0.1304
     27 O           1.9496    2.2901   23.6625 O.3     1  UNL1       -0.3827
     28 H           1.9490    3.2232   23.3976 H       1  UNL1        0.2104
     29 C           2.6512   -0.0287   22.7239 C.3     1  UNL1        0.1059
     30 N           2.7559   -0.6271   24.0953 N.am    1  UNL1       -0.2696
     31 C           3.9920   -0.4089   24.9165 C.2     1  UNL1        0.4020
     32 O           5.1235    0.4077   24.3662 O.2     1  UNL1       -0.2264
     33 H           2.0132   -1.1631   24.4565 H       1  UNL1        0.1528
     34 O           4.0966   -1.0073   26.2880 O.3     1  UNL1       -0.4291
     35 C           3.0685   -0.6793   27.3298 C.3     1  UNL1        0.2447
     36 C           2.5367    0.7185   27.4448 C.ar    1  UNL1        0.0714
     37 C           1.1589    1.1718   27.0626 C.ar    1  UNL1        0.1053
     38 N           1.0600    2.6419   27.3438 N.ar    1  UNL1       -0.2350
     39 C           2.3767    3.0972   27.8997 C.ar    1  UNL1        0.1343
     40 S           3.2894    1.9084   27.9622 S.2     1  UNL1       -0.0652
     41 C           2.6611   -0.9171   21.5153 C.3     1  UNL1        0.0485
     42 C           3.9541   -1.4920   21.0176 C.ar    1  UNL1       -0.0204
     43 C           3.9827   -2.8679   20.4209 C.ar    1  UNL1       -0.0042
     44 C           5.2757   -3.4428   19.9233 C.ar    1  UNL1       -0.0003
     45 C           6.5401   -2.6418   20.0224 C.ar    1  UNL1       -0.0000
     46 C           6.5114   -1.2659   20.6191 C.ar    1  UNL1       -0.0003
     47 C           5.2185   -0.6910   21.1167 C.ar    1  UNL1       -0.0042
     48 C           2.2529    2.5741   18.8544 C.3     1  UNL1        0.0460
     49 C           3.2413    1.5766   18.3271 C.ar    1  UNL1       -0.0205
     50 C           4.6924    1.9418   18.2228 C.ar    1  UNL1       -0.0042
     51 C           5.6808    0.9443   17.6955 C.ar    1  UNL1       -0.0003
     52 C           5.2180   -0.4184   17.2725 C.ar    1  UNL1       -0.0000
     53 C           3.7670   -0.7836   17.3768 C.ar    1  UNL1       -0.0003
     54 C           2.7786    0.2139   17.9041 C.ar    1  UNL1       -0.0042
@<TRIPOS>BOND
     1    19    20    1
     2    20    21    1
     3    20    14    1
     4    14    15   ar
     5    15    16   ar
     6    16    13    1
     7    13     7    1
     8     7     8    1
     9     7     9   am
    10     9    10    2
    11     9    11   am
    12     6    11    1
    13     6     2    1
    14     2     3    2
    15     2     4   am
    16     4     1    1
    17     1    48    1
    18    48    49    1
    19    49    50   ar
    20    50    51   ar
    21    51    52   ar
    22    52    53   ar
    23    53    54   ar
    24     1    25    1
    25    25    26    1
    26    26    27    1
    27    26    29    1
    28    29    41    1
    29    41    42    1
    30    42    43   ar
    31    43    44   ar
    32    44    45   ar
    33    45    46   ar
    34    46    47   ar
    35    29    30    1
    36    30    31   am
    37    31    32    2
    38    31    34    1
    39    34    35    1
    40    35    36    1
    41    36    37   ar
    42    37    38   ar
    43    38    39   ar
    44    39    40   ar
    45     6    22    1
    46    22    23    1
    47    22    24    1
    48    16    17   ar
    49    17    18   ar
    50    18    14   ar
    51    54    49   ar
    52    47    42   ar
    53    40    36   ar
    54    11    12    1
    55     4     5    1
    56    27    28    1
    57    30    33    1
@<TRIPOS>MOLECULE
*****
 54 57 0 0 0
SMALL
GASTEIGER

@<TRIPOS>ATOM
      1 C           6.1972   -3.0262   23.5804 C.3     1  UNL1        0.0784
      2 C           7.5225   -3.4904   25.7664 C.2     1  UNL1        0.2403
      3 O           8.7065   -2.7618   25.2033 O.2     1  UNL1       -0.2733
      4 N           6.2678   -3.6227   24.9549 N.am    1  UNL1       -0.3042
      5 H           5.4907   -4.1009   25.3245 H       1  UNL1        0.1494
      6 C           7.5931   -4.0869   27.1409 C.3     1  UNL1        0.1496
      7 N           6.0748   -1.5479   29.7864 N.am    1  UNL1       -0.2567
      8 C           4.8127   -0.7709   30.0173 C.3     1  UNL1        0.1168
      9 C           6.2029   -2.4289   28.5791 C.2     1  UNL1        0.3046
     10 O           5.0688   -2.5329   27.6028 O.2     1  UNL1       -0.2526
     11 N           7.4650   -3.2059   28.3482 N.am    1  UNL1       -0.2824
     12 H           8.2093   -3.1376   28.9890 H       1  UNL1        0.1514
     13 C           7.2088   -1.4440   30.7628 C.3     1  UNL1        0.1413
     14 C           6.5622   -0.0792   34.3383 C.ar    1  UNL1        0.0875
     15 N           6.5939   -1.2102   33.3536 N.ar    1  UNL1       -0.2453
     16 C           7.0377   -0.6605   32.0303 C.ar    1  UNL1        0.0858
     17 C           7.2803    0.8103   32.1973 C.ar    1  UNL1        0.0530
     18 S           6.9865    1.1696   33.6237 S.2     1  UNL1       -0.0705
     19 C           7.2348   -0.2134   36.8442 C.3     1  UNL1        0.0069
     20 C           6.1744   -0.1793   35.7838 C.3     1  UNL1        0.0465
     21 C           4.7262   -0.2454   36.1690 C.3     1  UNL1        0.0069
     22 C           7.7917   -5.5642   27.3081 C.3     1  UNL1        0.0270
     23 C           9.0206   -6.0828   27.9943 C.3     1  UNL1        0.0022
     24 C           6.7614   -6.5229   26.7892 C.3     1  UNL1        0.0022
     25 C           5.8878   -1.5683   23.4104 C.3     1  UNL1        0.0508
     26 C           4.8424   -0.9186   24.2678 C.3     1  UNL1        0.1304
     27 O           5.2038   -0.4014   25.6287 O.3     1  UNL1       -0.3827
     28 H           6.1448   -0.5652   25.7974 H       1  UNL1        0.2104
     29 C           3.4356   -0.7862   23.7643 C.3     1  UNL1        0.1059
     30 N           2.4203   -0.0275   24.5665 N.am    1  UNL1       -0.2696
     31 C           2.3798    1.4705   24.5008 C.2     1  UNL1        0.4020
     32 O           3.3547    2.2098   23.6330 O.2     1  UNL1       -0.2264
     33 H           1.7805   -0.5127   25.1360 H       1  UNL1        0.1528
     34 O           1.3645    2.2293   25.3030 O.3     1  UNL1       -0.4291
     35 C           1.5246    2.3551   26.7891 C.3     1  UNL1        0.2447
     36 C           0.8345    1.3859   27.7025 C.ar    1  UNL1        0.0714
     37 C           1.4575    0.6759   28.8677 C.ar    1  UNL1        0.1053
     38 N           0.4083   -0.1923   29.4965 N.ar    1  UNL1       -0.2350
     39 C          -0.8633   -0.0188   28.7198 C.ar    1  UNL1        0.1343
     40 S          -0.5998    0.9565   27.6111 S.2     1  UNL1       -0.0652
     41 C           3.0442   -1.4125   22.4587 C.3     1  UNL1        0.0485
     42 C           3.0591   -0.5957   21.2008 C.ar    1  UNL1       -0.0204
     43 C           4.2419    0.2703   20.8828 C.ar    1  UNL1       -0.0042
     44 C           4.2568    1.0871   19.6247 C.ar    1  UNL1       -0.0003
     45 C           3.0889    1.0380   18.6847 C.ar    1  UNL1       -0.0000
     46 C           1.9061    0.1720   19.0028 C.ar    1  UNL1       -0.0003
     47 C           1.8912   -0.6448   20.2607 C.ar    1  UNL1       -0.0042
     48 C           6.4361   -3.8876   22.3759 C.3     1  UNL1        0.0460
     49 C           5.7952   -3.5387   21.0653 C.ar    1  UNL1       -0.0205
     50 C           6.5105   -2.6465   20.0946 C.ar    1  UNL1       -0.0042
     51 C           5.8696   -2.2977   18.7841 C.ar    1  UNL1       -0.0003
     52 C           4.5134   -2.8411   18.4442 C.ar    1  UNL1       -0.0000
     53 C           3.7981   -3.7333   19.4149 C.ar    1  UNL1       -0.0003
     54 C           4.4390   -4.0821   20.7254 C.ar    1  UNL1       -0.0042
@<TRIPOS>BOND
     1    19    20    1
     2    20    21    1
     3    20    14    1
     4    14    15   ar
     5    15    16   ar
     6    16    13    1
     7    13     7    1
     8     7     8    1
     9     7     9   am
    10     9    10    2
    11     9    11   am
    12     6    11    1
    13     6     2    1
    14     2     3    2
    15     2     4   am
    16     4     1    1
    17     1    48    1
    18    48    49    1
    19    49    50   ar
    20    50    51   ar
    21    51    52   ar
    22    52    53   ar
    23    53    54   ar
    24     1    25    1
    25    25    26    1
    26    26    27    1
    27    26    29    1
    28    29    41    1
    29    41    42    1
    30    42    43   ar
    31    43    44   ar
    32    44    45   ar
    33    45    46   ar
    34    46    47   ar
    35    29    30    1
    36    30    31   am
    37    31    32    2
    38    31    34    1
    39    34    35    1
    40    35    36    1
    41    36    37   ar
    42    37    38   ar
    43    38    39   ar
    44    39    40   ar
    45     6    22    1
    46    22    23    1
    47    22    24    1
    48    16    17   ar
    49    17    18   ar
    50    18    14   ar
    51    54    49   ar
    52    47    42   ar
    53    40    36   ar
    54    11    12    1
    55     4     5    1
    56    27    28    1
    57    30    33    1
