@<TRIPOS>MOLECULE
*****
 29 33 0 0 0
SMALL
GASTEIGER

@<TRIPOS>ATOM
      1 C          -9.9136  -17.1128   23.4322 C.ar    1  UNL1        0.0004
      2 C          -9.5534  -15.9009   24.2393 C.ar    1  UNL1        0.0031
      3 C          -8.1127  -15.5364   24.4428 C.ar    1  UNL1        0.0370
      4 C          -7.0322  -16.3838   23.8391 C.ar    1  UNL1        0.1415
      5 C          -7.3924  -17.5957   23.0320 C.ar    1  UNL1        0.0699
      6 C          -8.8331  -17.9602   22.8286 C.ar    1  UNL1        0.0061
      7 C          -6.4790  -18.5693   22.3481 C.ar    1  UNL1        0.1718
      8 N          -6.9682  -19.7514   21.5650 N.ar    1  UNL1       -0.1258
      9 N          -5.7712  -20.4841   21.0353 N.ar    1  UNL1       -0.0913
     10 C          -4.5423  -19.7548   21.4911 C.ar    1  UNL1        0.3248
     11 N          -4.9797  -18.5714   22.3025 N.ar    1  UNL1       -0.2613
     12 C          -4.0235  -17.6004   22.9294 C.3     1  UNL1        0.1592
     13 C          -4.3305  -16.3876   23.7568 C.3     1  UNL1        0.2299
     14 O          -5.6696  -15.8461   24.1617 O.3     1  UNL1       -0.4733
     15 C         -14.5092  -18.5553   25.3818 C.3     1  UNL1        0.0521
     16 C         -13.6522  -18.1986   24.2035 C.ar    1  UNL1        0.0594
     17 C         -12.2114  -17.8341   24.4070 C.ar    1  UNL1        0.0147
     18 C         -11.3544  -17.4774   23.2288 C.ar    1  UNL1        0.0027
     19 C         -11.9381  -17.4852   21.8470 C.ar    1  UNL1        0.0207
     20 C         -13.3788  -17.8498   21.6435 C.ar    1  UNL1        0.0984
     21 N         -14.2359  -18.2065   22.8218 N.ar    1  UNL1       -0.2481
     22 O          -3.1248  -20.1411   21.1886 O.3     1  UNL1       -0.4224
     23 C          -2.2596  -19.2340   20.3647 C.ar    1  UNL1        0.1495
     24 C          -2.7618  -18.7056   19.0538 C.ar    1  UNL1        0.0377
     25 C          -1.8965  -17.7984   18.2300 C.ar    1  UNL1        0.0040
     26 C          -0.5293  -17.4199   18.7171 C.ar    1  UNL1        0.0116
     27 C          -0.0272  -17.9484   20.0281 C.ar    1  UNL1        0.0607
     28 CL          1.3400  -17.5699   20.5152 Cl      1  UNL1       -0.0821
     29 C          -0.8924  -18.8555   20.8519 C.ar    1  UNL1        0.0490
@<TRIPOS>BOND
     1    15    16    1
     2    16    17   ar
     3    17    18   ar
     4    18     1    1
     5     1     2   ar
     6     2     3   ar
     7     3     4   ar
     8     4     5   ar
     9     5     6   ar
    10     5     7    1
    11     7     8   ar
    12     8     9   ar
    13     9    10   ar
    14    10    22    1
    15    22    23    1
    16    23    24   ar
    17    24    25   ar
    18    25    26   ar
    19    26    27   ar
    20    27    28    1
    21    27    29   ar
    22    10    11   ar
    23    11    12    1
    24    12    13    1
    25    13    14    1
    26    18    19   ar
    27    19    20   ar
    28    20    21   ar
    29    21    16   ar
    30     6     1   ar
    31    11     7   ar
    32    14     4    1
    33    29    23   ar
@<TRIPOS>MOLECULE
*****
 29 33 0 0 0
SMALL
GASTEIGER

@<TRIPOS>ATOM
      1 C           2.4139   -0.6895   20.1801 C.ar    1  UNL1        0.0004
      2 C           2.2263   -0.2860   18.7476 C.ar    1  UNL1        0.0031
      3 C           1.4169    0.9313   18.4113 C.ar    1  UNL1        0.0370
      4 C           0.7951    1.7450   19.5073 C.ar    1  UNL1        0.1415
      5 C           0.9827    1.3414   20.9398 C.ar    1  UNL1        0.0699
      6 C           1.7921    0.1241   21.2761 C.ar    1  UNL1        0.0061
      7 C           0.4537    2.0064   22.1758 C.ar    1  UNL1        0.1718
      8 N           0.7146    1.4994   23.5632 N.ar    1  UNL1       -0.1258
      9 N           0.0285    2.4190   24.5295 N.ar    1  UNL1       -0.0913
     10 C          -0.6564    3.4944   23.7392 C.ar    1  UNL1        0.3248
     11 N          -0.3936    3.2394   22.2846 N.ar    1  UNL1       -0.2613
     12 C          -0.9211    4.1118   21.1843 C.3     1  UNL1        0.1592
     13 C          -0.7317    3.9668   19.7034 C.3     1  UNL1        0.2299
     14 O           0.0322    2.9133   18.9571 O.3     1  UNL1       -0.4733
     15 C           4.5276   -5.2205   18.7649 C.3     1  UNL1        0.0521
     16 C           4.2801   -4.1724   19.8089 C.ar    1  UNL1        0.0594
     17 C           3.4707   -2.9550   19.4725 C.ar    1  UNL1        0.0147
     18 C           3.2233   -1.9069   20.5165 C.ar    1  UNL1        0.0027
     19 C           3.7851   -2.0759   21.8970 C.ar    1  UNL1        0.0207
     20 C           4.5945   -3.2931   22.2334 C.ar    1  UNL1        0.0984
     21 N           4.8420   -4.3414   21.1894 N.ar    1  UNL1       -0.2481
     22 O          -1.4625    4.6260   24.3045 O.3     1  UNL1       -0.4224
     23 C          -2.9376    4.4612   24.5213 C.ar    1  UNL1        0.1495
     24 C          -3.7510    3.6488   23.5579 C.ar    1  UNL1        0.0377
     25 C          -5.2261    3.4840   23.7748 C.ar    1  UNL1        0.0040
     26 C          -5.8876    4.1316   24.9549 C.ar    1  UNL1        0.0116
     27 C          -5.0742    4.9441   25.9184 C.ar    1  UNL1        0.0607
     28 CL         -5.7357    5.5917   27.0985 Cl      1  UNL1       -0.0821
     29 C          -3.5991    5.1089   25.7015 C.ar    1  UNL1        0.0490
@<TRIPOS>BOND
     1    15    16    1
     2    16    17   ar
     3    17    18   ar
     4    18     1    1
     5     1     2   ar
     6     2     3   ar
     7     3     4   ar
     8     4     5   ar
     9     5     6   ar
    10     5     7    1
    11     7     8   ar
    12     8     9   ar
    13     9    10   ar
    14    10    22    1
    15    22    23    1
    16    23    24   ar
    17    24    25   ar
    18    25    26   ar
    19    26    27   ar
    20    27    28    1
    21    27    29   ar
    22    10    11   ar
    23    11    12    1
    24    12    13    1
    25    13    14    1
    26    18    19   ar
    27    19    20   ar
    28    20    21   ar
    29    21    16   ar
    30     6     1   ar
    31    11     7   ar
    32    14     4    1
    33    29    23   ar
@<TRIPOS>MOLECULE
*****
 29 33 0 0 0
SMALL
GASTEIGER

@<TRIPOS>ATOM
      1 C           3.6802   -0.3545   19.5876 C.ar    1  UNL1        0.0004
      2 C           4.7232    0.3276   18.7527 C.ar    1  UNL1        0.0031
      3 C           4.4668    1.7012   18.2074 C.ar    1  UNL1        0.0370
      4 C           3.1676    2.3927   18.4969 C.ar    1  UNL1        0.1415
      5 C           2.1247    1.7106   19.3317 C.ar    1  UNL1        0.0699
      6 C           2.3810    0.3370   19.8771 C.ar    1  UNL1        0.0061
      7 C           0.7723    2.2174   19.7367 C.ar    1  UNL1        0.1718
      8 N          -0.1860    1.4312   20.5815 N.ar    1  UNL1       -0.1258
      9 N          -1.4217    2.2595   20.7737 N.ar    1  UNL1       -0.0913
     10 C          -1.2271    3.5576   20.0478 C.ar    1  UNL1        0.3248
     11 N           0.1288    3.5317   19.4069 N.ar    1  UNL1       -0.2613
     12 C           0.6788    4.6636   18.5906 C.3     1  UNL1        0.1592
     13 C           2.0081    4.7609   17.9025 C.3     1  UNL1        0.2299
     14 O           3.1157    3.7502   17.8608 O.3     1  UNL1       -0.4733
     15 C           4.4684   -5.4311   18.8080 C.3     1  UNL1        0.0521
     16 C           4.3306   -4.2665   19.7432 C.ar    1  UNL1        0.0594
     17 C           4.0743   -2.8928   19.1978 C.ar    1  UNL1        0.0147
     18 C           3.9365   -1.7282   20.1330 C.ar    1  UNL1        0.0027
     19 C           4.0550   -1.9372   21.6136 C.ar    1  UNL1        0.0207
     20 C           4.3112   -3.3108   22.1590 C.ar    1  UNL1        0.0984
     21 N           4.4491   -4.4755   21.2238 N.ar    1  UNL1       -0.2481
     22 O          -2.2152    4.6840   19.9755 O.3     1  UNL1       -0.4224
     23 C          -3.6755    4.3906   19.7988 C.ar    1  UNL1        0.1495
     24 C          -4.1813    3.8627   18.4889 C.ar    1  UNL1        0.0377
     25 C          -5.6417    3.5693   18.3123 C.ar    1  UNL1        0.0040
     26 C          -6.5962    3.8037   19.4453 C.ar    1  UNL1        0.0116
     27 C          -6.0905    4.3316   20.7551 C.ar    1  UNL1        0.0607
     28 CL         -7.0450    4.5660   21.8882 Cl      1  UNL1       -0.0821
     29 C          -4.6300    4.6250   20.9318 C.ar    1  UNL1        0.0490
@<TRIPOS>BOND
     1    15    16    1
     2    16    17   ar
     3    17    18   ar
     4    18     1    1
     5     1     2   ar
     6     2     3   ar
     7     3     4   ar
     8     4     5   ar
     9     5     6   ar
    10     5     7    1
    11     7     8   ar
    12     8     9   ar
    13     9    10   ar
    14    10    22    1
    15    22    23    1
    16    23    24   ar
    17    24    25   ar
    18    25    26   ar
    19    26    27   ar
    20    27    28    1
    21    27    29   ar
    22    10    11   ar
    23    11    12    1
    24    12    13    1
    25    13    14    1
    26    18    19   ar
    27    19    20   ar
    28    20    21   ar
    29    21    16   ar
    30     6     1   ar
    31    11     7   ar
    32    14     4    1
    33    29    23   ar
@<TRIPOS>MOLECULE
*****
 29 33 0 0 0
SMALL
GASTEIGER

@<TRIPOS>ATOM
      1 C           0.3255    1.8526   26.9118 C.ar    1  UNL1        0.0004
      2 C          -0.7704    2.8629   26.7444 C.ar    1  UNL1        0.0031
      3 C          -1.2229    3.2578   25.3700 C.ar    1  UNL1        0.0370
      4 C          -0.5795    2.6423   24.1628 C.ar    1  UNL1        0.1415
      5 C           0.5164    1.6319   24.3302 C.ar    1  UNL1        0.0699
      6 C           0.9689    1.2370   25.7047 C.ar    1  UNL1        0.0061
      7 C           1.2859    0.9023   23.2693 C.ar    1  UNL1        0.1718
      8 N           2.3675   -0.0926   23.5696 N.ar    1  UNL1       -0.1258
      9 N           2.8996   -0.6069   22.2648 N.ar    1  UNL1       -0.0913
     10 C           2.1468    0.0702   21.1581 C.ar    1  UNL1        0.3248
     11 N           1.1494    1.0030   21.7789 N.ar    1  UNL1       -0.2613
     12 C           0.2099    1.8580   20.9814 C.3     1  UNL1        0.1592
     13 C          -0.8253    2.8236   21.4772 C.3     1  UNL1        0.2299
     14 O          -1.1766    3.1726   22.8931 O.3     1  UNL1       -0.4733
     15 C           0.8003    2.9237   31.9742 C.3     1  UNL1        0.0521
     16 C           1.0154    1.9932   30.8176 C.ar    1  UNL1        0.0594
     17 C           0.5629    2.3881   29.4430 C.ar    1  UNL1        0.0147
     18 C           0.7780    1.4576   28.2864 C.ar    1  UNL1        0.0027
     19 C           1.4457    0.1322   28.5042 C.ar    1  UNL1        0.0207
     20 C           1.8983   -0.2627   29.8787 C.ar    1  UNL1        0.0984
     21 N           1.6831    0.6678   31.0354 N.ar    1  UNL1       -0.2481
     22 O           2.3548   -0.1473   19.6886 O.3     1  UNL1       -0.4224
     23 C           3.4474   -1.0580   19.2124 C.ar    1  UNL1        0.1495
     24 C           4.6902   -0.4825   18.6007 C.ar    1  UNL1        0.0377
     25 C           5.7828   -1.3934   18.1245 C.ar    1  UNL1        0.0040
     26 C           5.6325   -2.8796   18.2601 C.ar    1  UNL1        0.0116
     27 C           4.3897   -3.4552   18.8719 C.ar    1  UNL1        0.0607
     28 CL          4.2394   -4.9414   19.0075 Cl      1  UNL1       -0.0821
     29 C           3.2971   -2.5443   19.3480 C.ar    1  UNL1        0.0490
@<TRIPOS>BOND
     1    15    16    1
     2    16    17   ar
     3    17    18   ar
     4    18     1    1
     5     1     2   ar
     6     2     3   ar
     7     3     4   ar
     8     4     5   ar
     9     5     6   ar
    10     5     7    1
    11     7     8   ar
    12     8     9   ar
    13     9    10   ar
    14    10    22    1
    15    22    23    1
    16    23    24   ar
    17    24    25   ar
    18    25    26   ar
    19    26    27   ar
    20    27    28    1
    21    27    29   ar
    22    10    11   ar
    23    11    12    1
    24    12    13    1
    25    13    14    1
    26    18    19   ar
    27    19    20   ar
    28    20    21   ar
    29    21    16   ar
    30     6     1   ar
    31    11     7   ar
    32    14     4    1
    33    29    23   ar
@<TRIPOS>MOLECULE
*****
 29 33 0 0 0
SMALL
GASTEIGER

@<TRIPOS>ATOM
      1 C           2.5690   -0.0356   19.2480 C.ar    1  UNL1        0.0004
      2 C           1.8270    0.6578   18.1441 C.ar    1  UNL1        0.0031
      3 C           0.7336    1.6310   18.4713 C.ar    1  UNL1        0.0370
      4 C           0.3820    1.9108   19.9024 C.ar    1  UNL1        0.1415
      5 C           1.1239    1.2174   21.0063 C.ar    1  UNL1        0.0699
      6 C           2.2174    0.2442   20.6791 C.ar    1  UNL1        0.0061
      7 C           0.9343    1.3507   22.4883 C.ar    1  UNL1        0.1718
      8 N           1.7480    0.5953   23.4968 N.ar    1  UNL1       -0.1258
      9 N           1.2724    0.9880   24.8642 N.ar    1  UNL1       -0.0913
     10 C           0.1648    1.9862   24.7007 C.ar    1  UNL1        0.3248
     11 N          -0.0442    2.2104   23.2323 N.ar    1  UNL1       -0.2613
     12 C          -1.0747    3.1490   22.6782 C.3     1  UNL1        0.1592
     13 C          -1.3812    3.4599   21.2431 C.3     1  UNL1        0.2299
     14 O          -0.7328    2.9088   20.0078 O.3     1  UNL1       -0.4733
     15 C           4.3352   -4.9182   19.0439 C.3     1  UNL1        0.0521
     16 C           4.5456   -3.4502   18.8188 C.ar    1  UNL1        0.0594
     17 C           3.4521   -2.4769   19.1460 C.ar    1  UNL1        0.0147
     18 C           3.6625   -1.0089   18.9209 C.ar    1  UNL1        0.0027
     19 C           4.9664   -0.5141   18.3686 C.ar    1  UNL1        0.0207
     20 C           6.0599   -1.4873   18.0414 C.ar    1  UNL1        0.0984
     21 N           5.8496   -2.9554   18.2666 N.ar    1  UNL1       -0.2481
     22 O          -0.5996    2.6446   25.8108 O.3     1  UNL1       -0.4224
     23 C          -0.2982    2.2965   27.2383 C.ar    1  UNL1        0.1495
     24 C          -0.8362    1.0278   27.8306 C.ar    1  UNL1        0.0377
     25 C          -0.5347    0.6798   29.2583 C.ar    1  UNL1        0.0040
     26 C           0.3048    1.6005   30.0934 C.ar    1  UNL1        0.0116
     27 C           0.8428    2.8692   29.5011 C.ar    1  UNL1        0.0607
     28 CL          1.6822    3.7899   30.3363 Cl      1  UNL1       -0.0821
     29 C           0.5413    3.2172   28.0735 C.ar    1  UNL1        0.0490
@<TRIPOS>BOND
     1    15    16    1
     2    16    17   ar
     3    17    18   ar
     4    18     1    1
     5     1     2   ar
     6     2     3   ar
     7     3     4   ar
     8     4     5   ar
     9     5     6   ar
    10     5     7    1
    11     7     8   ar
    12     8     9   ar
    13     9    10   ar
    14    10    22    1
    15    22    23    1
    16    23    24   ar
    17    24    25   ar
    18    25    26   ar
    19    26    27   ar
    20    27    28    1
    21    27    29   ar
    22    10    11   ar
    23    11    12    1
    24    12    13    1
    25    13    14    1
    26    18    19   ar
    27    19    20   ar
    28    20    21   ar
    29    21    16   ar
    30     6     1   ar
    31    11     7   ar
    32    14     4    1
    33    29    23   ar
@<TRIPOS>MOLECULE
*****
 29 33 0 0 0
SMALL
GASTEIGER

@<TRIPOS>ATOM
      1 C           3.4025   -1.1203   22.2021 C.ar    1  UNL1        0.0004
      2 C           3.2724   -0.8859   23.6779 C.ar    1  UNL1        0.0031
      3 C           2.3663    0.1949   24.1886 C.ar    1  UNL1        0.0370
      4 C           1.5903    1.0412   23.2235 C.ar    1  UNL1        0.1415
      5 C           1.7204    0.8068   21.7477 C.ar    1  UNL1        0.0699
      6 C           2.6265   -0.2740   21.2370 C.ar    1  UNL1        0.0061
      7 C           1.0422    1.5305   20.6224 C.ar    1  UNL1        0.1718
      8 N           1.2588    1.1973   19.1760 N.ar    1  UNL1       -0.1258
      9 N           0.4169    2.1283   18.3547 N.ar    1  UNL1       -0.0913
     10 C          -0.3200    3.0368   19.2935 C.ar    1  UNL1        0.3248
     11 N           0.0664    2.6674   20.6950 N.ar    1  UNL1       -0.2613
     12 C          -0.4722    3.3614   21.9108 C.3     1  UNL1        0.1592
     13 C          -0.1681    3.0899   23.3544 C.3     1  UNL1        0.2299
     14 O           0.7498    2.0573   23.9385 O.3     1  UNL1       -0.4733
     15 C           4.4777   -4.8136   18.7086 C.3     1  UNL1        0.0521
     16 C           4.8463   -4.0478   19.9446 C.ar    1  UNL1        0.0594
     17 C           3.9401   -2.9669   20.4554 C.ar    1  UNL1        0.0147
     18 C           4.3086   -2.2012   21.6914 C.ar    1  UNL1        0.0027
     19 C           5.5833   -2.5161   22.4167 C.ar    1  UNL1        0.0207
     20 C           6.4894   -3.5969   21.9060 C.ar    1  UNL1        0.0984
     21 N           6.1209   -4.3627   20.6699 N.ar    1  UNL1       -0.2481
     22 O          -1.2756    4.1240   18.8998 O.3     1  UNL1       -0.4224
     23 C          -2.7539    3.9087   19.0356 C.ar    1  UNL1        0.1495
     24 C          -3.6262    3.9037   17.8153 C.ar    1  UNL1        0.0377
     25 C          -5.1045    3.6884   17.9512 C.ar    1  UNL1        0.0040
     26 C          -5.7103    3.4781   19.3071 C.ar    1  UNL1        0.0116
     27 C          -4.8380    3.4831   20.5274 C.ar    1  UNL1        0.0607
     28 CL         -5.4438    3.2728   21.8833 Cl      1  UNL1       -0.0821
     29 C          -3.3597    3.6984   20.3915 C.ar    1  UNL1        0.0490
@<TRIPOS>BOND
     1    15    16    1
     2    16    17   ar
     3    17    18   ar
     4    18     1    1
     5     1     2   ar
     6     2     3   ar
     7     3     4   ar
     8     4     5   ar
     9     5     6   ar
    10     5     7    1
    11     7     8   ar
    12     8     9   ar
    13     9    10   ar
    14    10    22    1
    15    22    23    1
    16    23    24   ar
    17    24    25   ar
    18    25    26   ar
    19    26    27   ar
    20    27    28    1
    21    27    29   ar
    22    10    11   ar
    23    11    12    1
    24    12    13    1
    25    13    14    1
    26    18    19   ar
    27    19    20   ar
    28    20    21   ar
    29    21    16   ar
    30     6     1   ar
    31    11     7   ar
    32    14     4    1
    33    29    23   ar
@<TRIPOS>MOLECULE
*****
 29 33 0 0 0
SMALL
GASTEIGER

@<TRIPOS>ATOM
      1 C           3.1007   -0.7417   21.4303 C.ar    1  UNL1        0.0004
      2 C           3.5059   -1.2134   22.7953 C.ar    1  UNL1        0.0031
      3 C           2.8961   -0.5902   24.0158 C.ar    1  UNL1        0.0370
      4 C           1.8810    0.5047   23.8714 C.ar    1  UNL1        0.1415
      5 C           1.4758    0.9764   22.5064 C.ar    1  UNL1        0.0699
      6 C           2.0856    0.3532   21.2859 C.ar    1  UNL1        0.0061
      7 C           0.4897    2.0459   22.1410 C.ar    1  UNL1        0.1718
      8 N           0.1701    2.4269   20.7258 N.ar    1  UNL1       -0.1258
      9 N          -0.8518    3.5244   20.7606 N.ar    1  UNL1       -0.0913
     10 C          -1.1638    3.8217   22.1973 C.ar    1  UNL1        0.3248
     11 N          -0.3348    2.9081   23.0505 N.ar    1  UNL1       -0.2613
     12 C          -0.3767    2.9135   24.5499 C.3     1  UNL1        0.1592
     13 C           0.3954    2.0582   25.5102 C.3     1  UNL1        0.2299
     14 O           1.4003    0.9861   25.2082 O.3     1  UNL1       -0.4733
     15 C           4.5691   -4.9713   18.7932 C.3     1  UNL1        0.0521
     16 C           4.4447   -3.4797   18.8911 C.ar    1  UNL1        0.0594
     17 C           3.8349   -2.8565   20.1118 C.ar    1  UNL1        0.0147
     18 C           3.7105   -1.3649   20.2097 C.ar    1  UNL1        0.0027
     19 C           4.1959   -0.4964   19.0872 C.ar    1  UNL1        0.0207
     20 C           4.8057   -1.1196   17.8666 C.ar    1  UNL1        0.0984
     21 N           4.9301   -2.6112   17.7686 N.ar    1  UNL1       -0.2481
     22 O          -2.1345    4.8520   22.6937 O.3     1  UNL1       -0.4224
     23 C          -3.6069    4.5660   22.6746 C.ar    1  UNL1        0.1495
     24 C          -4.3503    4.3737   23.9631 C.ar    1  UNL1        0.0377
     25 C          -5.8227    4.0877   23.9440 C.ar    1  UNL1        0.0040
     26 C          -6.5516    3.9941   22.6363 C.ar    1  UNL1        0.0116
     27 C          -5.8082    4.1864   21.3478 C.ar    1  UNL1        0.0607
     28 CL         -6.5370    4.0928   20.0402 Cl      1  UNL1       -0.0821
     29 C          -4.3358    4.4724   21.3670 C.ar    1  UNL1        0.0490
@<TRIPOS>BOND
     1    15    16    1
     2    16    17   ar
     3    17    18   ar
     4    18     1    1
     5     1     2   ar
     6     2     3   ar
     7     3     4   ar
     8     4     5   ar
     9     5     6   ar
    10     5     7    1
    11     7     8   ar
    12     8     9   ar
    13     9    10   ar
    14    10    22    1
    15    22    23    1
    16    23    24   ar
    17    24    25   ar
    18    25    26   ar
    19    26    27   ar
    20    27    28    1
    21    27    29   ar
    22    10    11   ar
    23    11    12    1
    24    12    13    1
    25    13    14    1
    26    18    19   ar
    27    19    20   ar
    28    20    21   ar
    29    21    16   ar
    30     6     1   ar
    31    11     7   ar
    32    14     4    1
    33    29    23   ar
@<TRIPOS>MOLECULE
*****
 29 33 0 0 0
SMALL
GASTEIGER

@<TRIPOS>ATOM
      1 C           3.0470   -1.0359   21.5584 C.ar    1  UNL1        0.0004
      2 C           3.0403   -0.8537   23.0472 C.ar    1  UNL1        0.0031
      3 C           2.2421    0.2569   23.6632 C.ar    1  UNL1        0.0370
      4 C           1.4507    1.1853   22.7904 C.ar    1  UNL1        0.1415
      5 C           1.4575    1.0030   21.3015 C.ar    1  UNL1        0.0699
      6 C           2.2556   -0.1076   20.6855 C.ar    1  UNL1        0.0061
      7 C           0.7442    1.8097   20.2573 C.ar    1  UNL1        0.1718
      8 N           0.8332    1.5227   18.7877 N.ar    1  UNL1       -0.1258
      9 N          -0.0081    2.5336   18.0662 N.ar    1  UNL1       -0.0913
     10 C          -0.6169    3.4453   19.0899 C.ar    1  UNL1        0.3248
     11 N          -0.1520    2.9980   20.4441 N.ar    1  UNL1       -0.2613
     12 C          -0.5563    3.6729   21.7212 C.3     1  UNL1        0.1592
     13 C          -0.1642    3.3264   23.1270 C.3     1  UNL1        0.2299
     14 O           0.7290    2.2192   23.6028 O.3     1  UNL1       -0.4733
     15 C           7.2568   -4.0819   21.5466 C.3     1  UNL1        0.0521
     16 C           5.9501   -3.6695   20.9364 C.ar    1  UNL1        0.0594
     17 C           5.1519   -2.5589   21.5525 C.ar    1  UNL1        0.0147
     18 C           3.8452   -2.1466   20.9423 C.ar    1  UNL1        0.0027
     19 C           3.3366   -2.8448   19.7160 C.ar    1  UNL1        0.0207
     20 C           4.1347   -3.9554   19.0999 C.ar    1  UNL1        0.0984
     21 N           5.4415   -4.3678   19.7101 N.ar    1  UNL1       -0.2481
     22 O          -1.5304    4.6014   18.8088 O.3     1  UNL1       -0.4224
     23 C          -3.0108    4.3810   18.7101 C.ar    1  UNL1        0.1495
     24 C          -3.7191    3.5679   19.7528 C.ar    1  UNL1        0.0377
     25 C          -5.1996    3.3474   19.6541 C.ar    1  UNL1        0.0040
     26 C          -5.9716    3.9401   18.5129 C.ar    1  UNL1        0.0116
     27 C          -5.2634    4.7532   17.4702 C.ar    1  UNL1        0.0607
     28 CL         -6.0354    5.3459   16.3289 Cl      1  UNL1       -0.0821
     29 C          -3.7829    4.9737   17.5689 C.ar    1  UNL1        0.0490
@<TRIPOS>BOND
     1    15    16    1
     2    16    17   ar
     3    17    18   ar
     4    18     1    1
     5     1     2   ar
     6     2     3   ar
     7     3     4   ar
     8     4     5   ar
     9     5     6   ar
    10     5     7    1
    11     7     8   ar
    12     8     9   ar
    13     9    10   ar
    14    10    22    1
    15    22    23    1
    16    23    24   ar
    17    24    25   ar
    18    25    26   ar
    19    26    27   ar
    20    27    28    1
    21    27    29   ar
    22    10    11   ar
    23    11    12    1
    24    12    13    1
    25    13    14    1
    26    18    19   ar
    27    19    20   ar
    28    20    21   ar
    29    21    16   ar
    30     6     1   ar
    31    11     7   ar
    32    14     4    1
    33    29    23   ar
@<TRIPOS>MOLECULE
*****
 29 33 0 0 0
SMALL
GASTEIGER

@<TRIPOS>ATOM
      1 C           4.3154    1.0136   36.2755 C.ar    1  UNL1        0.0004
      2 C           5.5530    0.1716   36.3722 C.ar    1  UNL1        0.0031
      3 C           6.0344   -0.5942   35.1757 C.ar    1  UNL1        0.0370
      4 C           5.2782   -0.5181   33.8825 C.ar    1  UNL1        0.1415
      5 C           4.0406    0.3238   33.7858 C.ar    1  UNL1        0.0699
      6 C           3.5592    1.0897   34.9822 C.ar    1  UNL1        0.0061
      7 C           3.1450    0.5374   32.6017 C.ar    1  UNL1        0.1718
      8 N           1.9265    1.4117   32.6341 N.ar    1  UNL1       -0.1258
      9 N           1.2943    1.3764   31.2743 N.ar    1  UNL1       -0.0913
     10 C           2.1220    0.4803   30.4015 C.ar    1  UNL1        0.3248
     11 N           3.2658   -0.0382   31.2218 N.ar    1  UNL1       -0.2613
     12 C           4.3120   -0.9696   30.6852 C.3     1  UNL1        0.1592
     13 C           5.4959   -1.5554   31.3960 C.3     1  UNL1        0.2299
     14 O           5.9259   -1.3545   32.8190 O.3     1  UNL1       -0.4733
     15 C           0.5686    2.1187   39.7019 C.3     1  UNL1        0.0521
     16 C           1.9605    2.3320   39.1852 C.ar    1  UNL1        0.0594
     17 C           2.4420    1.5661   37.9887 C.ar    1  UNL1        0.0147
     18 C           3.8339    1.7795   37.4720 C.ar    1  UNL1        0.0027
     19 C           4.7443    2.7588   38.1517 C.ar    1  UNL1        0.0207
     20 C           4.2629    3.5247   39.3482 C.ar    1  UNL1        0.0984
     21 N           2.8709    3.3113   39.8650 N.ar    1  UNL1       -0.2481
     22 O           1.8530    0.1592   28.9611 O.3     1  UNL1       -0.4224
     23 C           1.0886    1.1267   28.1070 C.ar    1  UNL1        0.1495
     24 C          -0.4088    1.0572   28.0512 C.ar    1  UNL1        0.0377
     25 C          -1.1731    2.0248   27.1970 C.ar    1  UNL1        0.0040
     26 C          -0.4401    3.0618   26.3987 C.ar    1  UNL1        0.0116
     27 C           1.0572    3.1313   26.4545 C.ar    1  UNL1        0.0607
     28 CL          1.7902    4.1682   25.6562 Cl      1  UNL1       -0.0821
     29 C           1.8216    2.1636   27.3087 C.ar    1  UNL1        0.0490
@<TRIPOS>BOND
     1    15    16    1
     2    16    17   ar
     3    17    18   ar
     4    18     1    1
     5     1     2   ar
     6     2     3   ar
     7     3     4   ar
     8     4     5   ar
     9     5     6   ar
    10     5     7    1
    11     7     8   ar
    12     8     9   ar
    13     9    10   ar
    14    10    22    1
    15    22    23    1
    16    23    24   ar
    17    24    25   ar
    18    25    26   ar
    19    26    27   ar
    20    27    28    1
    21    27    29   ar
    22    10    11   ar
    23    11    12    1
    24    12    13    1
    25    13    14    1
    26    18    19   ar
    27    19    20   ar
    28    20    21   ar
    29    21    16   ar
    30     6     1   ar
    31    11     7   ar
    32    14     4    1
    33    29    23   ar
