@<TRIPOS>MOLECULE
*****
 24 26 0 0 0
SMALL
GASTEIGER

@<TRIPOS>ATOM
      1 N          -4.5397  -16.9455   23.2884 N.ar    1  UNL1       -0.3165
      2 C          -3.1631  -17.4781   23.0213 C.ar    1  UNL1        0.0779
      3 C          -3.3018  -18.7471   22.2337 C.ar    1  UNL1        0.0392
      4 C          -4.7641  -18.9989   22.0140 C.ar    1  UNL1        0.0985
      5 N          -5.4978  -20.0981   21.3046 N.ar    1  UNL1       -0.2423
      6 C          -6.9966  -20.0839   21.2471 C.ar    1  UNL1        0.0994
      7 C          -7.7617  -18.9705   21.8989 C.ar    1  UNL1        0.0266
      8 C          -7.0280  -17.8712   22.6083 C.ar    1  UNL1        0.0208
      9 C          -5.5292  -17.8854   22.6658 C.ar    1  UNL1        0.0782
     10 C          -9.2606  -18.9563   21.8413 C.ar    1  UNL1        0.0309
     11 C         -10.1063  -19.5345   20.7456 C.ar    1  UNL1        0.0070
     12 C         -11.5452  -19.2970   21.0964 C.ar    1  UNL1        0.0109
     13 C         -11.5888  -18.5720   22.4088 C.ar    1  UNL1        0.1009
     14 S         -10.1768  -18.3615   22.8692 S.2     1  UNL1       -0.0831
     15 C         -12.8270  -18.1344   23.1337 C.3     1  UNL1        0.4241
     16 F         -14.0653  -17.6968   23.8585 F       1  UNL1       -0.1654
     17 F         -13.4872  -17.8294   21.8217 F       1  UNL1       -0.1654
     18 F         -12.1668  -18.4394   24.4456 F       1  UNL1       -0.1654
     19 C          -4.8690  -15.6930   24.0451 C.3     1  UNL1        0.1920
     20 C          -7.7246  -15.4550   26.7909 C.3     1  UNL1        0.1150
     21 N          -7.0165  -15.3697   25.4713 N.am    1  UNL1       -0.2744
     22 C          -7.7478  -14.8758   24.2583 C.3     1  UNL1        0.1150
     23 C          -5.5772  -15.7783   25.3648 C.2     1  UNL1        0.2488
     24 O          -4.8460  -16.2721   26.5778 O.2     1  UNL1       -0.2728
@<TRIPOS>BOND
     1    20    21    1
     2    21    22    1
     3    21    23   am
     4    23    24    2
     5    23    19    1
     6    19     1    1
     7     1     2   ar
     8     2     3   ar
     9     3     4   ar
    10     4     5   ar
    11     5     6   ar
    12     6     7   ar
    13     7    10    1
    14    10    11   ar
    15    11    12   ar
    16    12    13   ar
    17    13    15    1
    18    15    16    1
    19    15    17    1
    20    15    18    1
    21    13    14   ar
    22     7     8   ar
    23     8     9   ar
    24     9     1   ar
    25     9     4   ar
    26    14    10   ar
@<TRIPOS>MOLECULE
*****
 24 26 0 0 0
SMALL
GASTEIGER

@<TRIPOS>ATOM
      1 N         -10.3448  -17.0873   22.6047 N.ar    1  UNL1       -0.3165
      2 C         -11.7761  -16.9696   22.1718 C.ar    1  UNL1        0.0779
      3 C         -11.9419  -17.7508   20.9020 C.ar    1  UNL1        0.0392
      4 C         -10.6131  -18.3512   20.5502 C.ar    1  UNL1        0.0985
      5 N         -10.1744  -19.2183   19.4076 N.ar    1  UNL1       -0.2423
      6 C          -8.7486  -19.6753   19.3173 C.ar    1  UNL1        0.0994
      7 C          -7.7615  -19.2652   20.3697 C.ar    1  UNL1        0.0266
      8 C          -8.2002  -18.3981   21.5123 C.ar    1  UNL1        0.0208
      9 C          -9.6260  -17.9411   21.6026 C.ar    1  UNL1        0.0782
     10 C          -6.3356  -19.7223   20.2793 C.ar    1  UNL1        0.0309
     11 C          -5.8718  -21.1426   20.1467 C.ar    1  UNL1        0.0070
     12 C          -4.3728  -21.1374   20.0912 C.ar    1  UNL1        0.0109
     13 C          -3.9103  -19.7139   20.1895 C.ar    1  UNL1        0.1009
     14 S          -5.1234  -18.8393   20.3058 S.2     1  UNL1       -0.0831
     15 C          -2.4849  -19.2469   20.1742 C.3     1  UNL1        0.4241
     16 F          -1.0595  -18.7800   20.1590 F       1  UNL1       -0.1654
     17 F          -2.7281  -18.5470   18.8700 F       1  UNL1       -0.1654
     18 F          -2.2416  -19.9468   21.4785 F       1  UNL1       -0.1654
     19 C          -9.7386  -16.4610   23.8255 C.3     1  UNL1        0.1920
     20 C          -6.1796  -15.0959   24.9302 C.3     1  UNL1        0.1150
     21 N          -7.5482  -15.7057   25.0011 N.am    1  UNL1       -0.2744
     22 C          -8.0951  -16.1699   26.3184 C.3     1  UNL1        0.1150
     23 C          -8.3699  -15.8512   23.7547 C.2     1  UNL1        0.2488
     24 O          -7.8230  -15.3869   22.4374 O.2     1  UNL1       -0.2728
@<TRIPOS>BOND
     1    20    21    1
     2    21    22    1
     3    21    23   am
     4    23    24    2
     5    23    19    1
     6    19     1    1
     7     1     2   ar
     8     2     3   ar
     9     3     4   ar
    10     4     5   ar
    11     5     6   ar
    12     6     7   ar
    13     7    10    1
    14    10    11   ar
    15    11    12   ar
    16    12    13   ar
    17    13    15    1
    18    15    16    1
    19    15    17    1
    20    15    18    1
    21    13    14   ar
    22     7     8   ar
    23     8     9   ar
    24     9     1   ar
    25     9     4   ar
    26    14    10   ar
@<TRIPOS>MOLECULE
*****
 24 26 0 0 0
SMALL
GASTEIGER

@<TRIPOS>ATOM
      1 N         -10.2160  -17.7444   22.0313 N.ar    1  UNL1       -0.3165
      2 C         -11.4854  -18.1709   21.3554 C.ar    1  UNL1        0.0779
      3 C         -11.1248  -19.1072   20.2404 C.ar    1  UNL1        0.0392
      4 C          -9.6326  -19.2595   20.2273 C.ar    1  UNL1        0.0985
      5 N          -8.7127  -20.0563   19.3504 N.ar    1  UNL1       -0.2423
      6 C          -7.2312  -20.0108   19.5804 C.ar    1  UNL1        0.0994
      7 C          -6.6695  -19.1685   20.6872 C.ar    1  UNL1        0.0266
      8 C          -7.5894  -18.3717   21.5641 C.ar    1  UNL1        0.0208
      9 C          -9.0709  -18.4172   21.3341 C.ar    1  UNL1        0.0782
     10 C          -5.1879  -19.1231   20.9172 C.ar    1  UNL1        0.0309
     11 C          -4.4852  -19.4404   22.2039 C.ar    1  UNL1        0.0070
     12 C          -3.0119  -19.2658   21.9828 C.ar    1  UNL1        0.0109
     13 C          -2.8041  -18.8404   20.5594 C.ar    1  UNL1        0.1009
     14 S          -4.1489  -18.7522   19.9009 S.2     1  UNL1       -0.0831
     15 C          -1.4833  -18.5537   19.9089 C.3     1  UNL1        0.4241
     16 F          -0.1624  -18.2669   19.2583 F       1  UNL1       -0.1654
     17 F          -2.1227  -18.6744   18.5574 F       1  UNL1       -0.1654
     18 F          -0.8438  -18.4329   21.2604 F       1  UNL1       -0.1654
     19 C         -10.1103  -16.8093   23.1994 C.3     1  UNL1        0.1920
     20 C          -8.4307  -17.0504   26.7870 C.3     1  UNL1        0.1150
     21 N          -8.8233  -16.5243   25.4383 N.am    1  UNL1       -0.2744
     22 C          -8.3218  -15.1871   24.9798 C.3     1  UNL1        0.1150
     23 C          -9.7176  -17.3354   24.5482 C.2     1  UNL1        0.2488
     24 O         -10.2191  -18.6726   25.0067 O.2     1  UNL1       -0.2728
@<TRIPOS>BOND
     1    20    21    1
     2    21    22    1
     3    21    23   am
     4    23    24    2
     5    23    19    1
     6    19     1    1
     7     1     2   ar
     8     2     3   ar
     9     3     4   ar
    10     4     5   ar
    11     5     6   ar
    12     6     7   ar
    13     7    10    1
    14    10    11   ar
    15    11    12   ar
    16    12    13   ar
    17    13    15    1
    18    15    16    1
    19    15    17    1
    20    15    18    1
    21    13    14   ar
    22     7     8   ar
    23     8     9   ar
    24     9     1   ar
    25     9     4   ar
    26    14    10   ar
@<TRIPOS>MOLECULE
*****
 24 26 0 0 0
SMALL
GASTEIGER

@<TRIPOS>ATOM
      1 N          -5.0068  -16.6721   24.1028 N.ar    1  UNL1       -0.3165
      2 C          -5.0211  -15.6754   25.2238 C.ar    1  UNL1        0.0779
      3 C          -6.4242  -15.1667   25.3737 C.ar    1  UNL1        0.0392
      4 C          -7.2770  -15.8490   24.3455 C.ar    1  UNL1        0.0985
      5 N          -8.7381  -15.7433   24.0230 N.ar    1  UNL1       -0.2423
      6 C          -9.3231  -16.5680   22.9150 C.ar    1  UNL1        0.0994
      7 C          -8.4471  -17.4983   22.1296 C.ar    1  UNL1        0.0266
      8 C          -6.9860  -17.6040   22.4521 C.ar    1  UNL1        0.0208
      9 C          -6.4010  -16.7794   23.5601 C.ar    1  UNL1        0.0782
     10 C          -9.0321  -18.3230   21.0215 C.ar    1  UNL1        0.0309
     11 C         -10.4499  -18.2671   20.5349 C.ar    1  UNL1        0.0070
     12 C         -10.5963  -19.2578   19.4183 C.ar    1  UNL1        0.0109
     13 C          -9.2688  -19.9261   19.2147 C.ar    1  UNL1        0.1009
     14 S          -8.3022  -19.3483   20.2056 S.2     1  UNL1       -0.0831
     15 C          -8.9619  -20.9861   18.1987 C.3     1  UNL1        0.4241
     16 F          -8.6551  -22.0460   17.1826 F       1  UNL1       -0.1654
     17 F         -10.2129  -20.6314   17.4508 F       1  UNL1       -0.1654
     18 F          -7.7109  -21.3408   18.9465 F       1  UNL1       -0.1654
     19 C          -3.8085  -17.4286   23.6110 C.3     1  UNL1        0.1920
     20 C          -1.6970  -17.4795   20.2511 C.3     1  UNL1        0.1150
     21 N          -2.4340  -17.9517   21.4692 N.am    1  UNL1       -0.2744
     22 C          -2.5336  -19.4191   21.7637 C.3     1  UNL1        0.1150
     23 C          -3.0715  -16.9564   22.3928 C.2     1  UNL1        0.2488
     24 O          -2.9719  -15.4890   22.0983 O.2     1  UNL1       -0.2728
@<TRIPOS>BOND
     1    20    21    1
     2    21    22    1
     3    21    23   am
     4    23    24    2
     5    23    19    1
     6    19     1    1
     7     1     2   ar
     8     2     3   ar
     9     3     4   ar
    10     4     5   ar
    11     5     6   ar
    12     6     7   ar
    13     7    10    1
    14    10    11   ar
    15    11    12   ar
    16    12    13   ar
    17    13    15    1
    18    15    16    1
    19    15    17    1
    20    15    18    1
    21    13    14   ar
    22     7     8   ar
    23     8     9   ar
    24     9     1   ar
    25     9     4   ar
    26    14    10   ar
@<TRIPOS>MOLECULE
*****
 24 26 0 0 0
SMALL
GASTEIGER

@<TRIPOS>ATOM
      1 N          -7.4827  -19.6384   20.2830 N.ar    1  UNL1       -0.3165
      2 C          -8.2919  -19.8576   19.0392 C.ar    1  UNL1        0.0779
      3 C          -9.6485  -19.2555   19.2566 C.ar    1  UNL1        0.0392
      4 C          -9.6777  -18.6642   20.6349 C.ar    1  UNL1        0.0985
      5 N         -10.7502  -17.9409   21.3942 N.ar    1  UNL1       -0.2423
      6 C         -10.4841  -17.4542   22.7878 C.ar    1  UNL1        0.0994
      7 C          -9.1456  -17.6908   23.4222 C.ar    1  UNL1        0.0266
      8 C          -8.0731  -18.4141   22.6629 C.ar    1  UNL1        0.0208
      9 C          -8.3392  -18.9008   21.2692 C.ar    1  UNL1        0.0782
     10 C          -8.8796  -17.2041   24.8159 C.ar    1  UNL1        0.0309
     11 C          -9.3705  -17.8424   26.0814 C.ar    1  UNL1        0.0070
     12 C          -8.8703  -17.0265   27.2365 C.ar    1  UNL1        0.0109
     13 C          -8.0702  -15.8839   26.6847 C.ar    1  UNL1        0.1009
     14 S          -8.0759  -15.9937   25.1888 S.2     1  UNL1       -0.0831
     15 C          -7.3847  -14.8185   27.4880 C.3     1  UNL1        0.4241
     16 F          -6.6992  -13.7532   28.2912 F       1  UNL1       -0.1654
     17 F          -8.7117  -14.3681   28.0231 F       1  UNL1       -0.1654
     18 F          -6.0577  -15.2689   26.9528 F       1  UNL1       -0.1654
     19 C          -6.0659  -20.0793   20.5022 C.3     1  UNL1        0.1920
     20 C          -2.8667  -17.8547   21.2549 C.3     1  UNL1        0.1150
     21 N          -3.9925  -18.8278   21.4432 N.am    1  UNL1       -0.2744
     22 C          -4.1710  -19.5226   22.7605 C.3     1  UNL1        0.1150
     23 C          -4.9399  -19.1061   20.3140 C.2     1  UNL1        0.2488
     24 O          -4.7614  -18.4114   18.9967 O.2     1  UNL1       -0.2728
@<TRIPOS>BOND
     1    20    21    1
     2    21    22    1
     3    21    23   am
     4    23    24    2
     5    23    19    1
     6    19     1    1
     7     1     2   ar
     8     2     3   ar
     9     3     4   ar
    10     4     5   ar
    11     5     6   ar
    12     6     7   ar
    13     7    10    1
    14    10    11   ar
    15    11    12   ar
    16    12    13   ar
    17    13    15    1
    18    15    16    1
    19    15    17    1
    20    15    18    1
    21    13    14   ar
    22     7     8   ar
    23     8     9   ar
    24     9     1   ar
    25     9     4   ar
    26    14    10   ar
@<TRIPOS>MOLECULE
*****
 24 26 0 0 0
SMALL
GASTEIGER

@<TRIPOS>ATOM
      1 N          -9.4313  -17.3883   23.5870 N.ar    1  UNL1       -0.3165
      2 C         -10.6656  -18.2058   23.3462 C.ar    1  UNL1        0.0779
      3 C         -10.2667  -19.4333   22.5818 C.ar    1  UNL1        0.0392
      4 C          -8.7859  -19.3743   22.3502 C.ar    1  UNL1        0.0985
      5 N          -7.8409  -20.3082   21.6539 N.ar    1  UNL1       -0.2423
      6 C          -6.3796  -19.9782   21.5789 C.ar    1  UNL1        0.0994
      7 C          -5.8633  -18.7143   22.2001 C.ar    1  UNL1        0.0266
      8 C          -6.8082  -17.7804   22.8964 C.ar    1  UNL1        0.0208
      9 C          -8.2695  -18.1104   22.9714 C.ar    1  UNL1        0.0782
     10 C          -4.4019  -18.3843   22.1250 C.ar    1  UNL1        0.0309
     11 C          -3.5319  -17.9678   23.2738 C.ar    1  UNL1        0.0070
     12 C          -2.1463  -17.7390   22.7468 C.ar    1  UNL1        0.0109
     13 C          -2.1600  -18.0140   21.2722 C.ar    1  UNL1        0.1009
     14 S          -3.5540  -18.4129   20.8880 S.2     1  UNL1       -0.0831
     15 C          -0.9858  -17.9087   20.3448 C.3     1  UNL1        0.4241
     16 F           0.1885  -17.8034   19.4174 F       1  UNL1       -0.1654
     17 F          -0.7566  -16.4964   20.7953 F       1  UNL1       -0.1654
     18 F          -1.2149  -19.3210   19.8943 F       1  UNL1       -0.1654
     19 C          -9.3695  -16.0785   24.3154 C.3     1  UNL1        0.1920
     20 C          -6.2843  -15.2315   26.6637 C.3     1  UNL1        0.1150
     21 N          -7.6048  -15.7685   26.1969 N.am    1  UNL1       -0.2744
     22 C          -8.4812  -16.5325   27.1447 C.3     1  UNL1        0.1150
     23 C          -8.0489  -15.5415   24.7823 C.2     1  UNL1        0.2488
     24 O          -7.1726  -14.7775   23.8345 O.2     1  UNL1       -0.2728
@<TRIPOS>BOND
     1    20    21    1
     2    21    22    1
     3    21    23   am
     4    23    24    2
     5    23    19    1
     6    19     1    1
     7     1     2   ar
     8     2     3   ar
     9     3     4   ar
    10     4     5   ar
    11     5     6   ar
    12     6     7   ar
    13     7    10    1
    14    10    11   ar
    15    11    12   ar
    16    12    13   ar
    17    13    15    1
    18    15    16    1
    19    15    17    1
    20    15    18    1
    21    13    14   ar
    22     7     8   ar
    23     8     9   ar
    24     9     1   ar
    25     9     4   ar
    26    14    10   ar
@<TRIPOS>MOLECULE
*****
 24 26 0 0 0
SMALL
GASTEIGER

@<TRIPOS>ATOM
      1 N          -8.0214  -19.9577   19.6251 N.ar    1  UNL1       -0.3165
      2 C          -9.0592  -20.3464   18.6142 C.ar    1  UNL1        0.0779
      3 C         -10.3213  -19.6023   18.9360 C.ar    1  UNL1        0.0392
      4 C         -10.0635  -18.7538   20.1459 C.ar    1  UNL1        0.0985
      5 N         -10.9395  -17.8096   20.9147 N.ar    1  UNL1       -0.2423
      6 C         -10.3940  -17.0850   22.1094 C.ar    1  UNL1        0.0994
      7 C          -8.9726  -17.3046   22.5353 C.ar    1  UNL1        0.0266
      8 C          -8.0966  -18.2489   21.7664 C.ar    1  UNL1        0.0208
      9 C          -8.6421  -18.9734   20.5717 C.ar    1  UNL1        0.0782
     10 C          -8.4271  -16.5800   23.7300 C.ar    1  UNL1        0.0309
     11 C          -9.2194  -16.1111   24.9143 C.ar    1  UNL1        0.0070
     12 C          -8.2756  -15.4383   25.8665 C.ar    1  UNL1        0.0109
     13 C          -6.9000  -15.4914   25.2707 C.ar    1  UNL1        0.1009
     14 S          -6.9937  -16.1970   23.9503 S.2     1  UNL1       -0.0831
     15 C          -5.6502  -14.9364   25.8871 C.3     1  UNL1        0.4241
     16 F          -4.4004  -14.3814   26.5035 F       1  UNL1       -0.1654
     17 F          -4.9453  -15.0597   24.5688 F       1  UNL1       -0.1654
     18 F          -6.3551  -14.8130   27.2054 F       1  UNL1       -0.1654
     19 C          -6.6106  -20.4643   19.6798 C.3     1  UNL1        0.1920
     20 C          -3.7135  -19.4049   22.1768 C.3     1  UNL1        0.1150
     21 N          -4.5157  -19.5543   20.9182 N.am    1  UNL1       -0.2744
     22 C          -4.0252  -18.9430   19.6392 C.3     1  UNL1        0.1150
     23 C          -5.8084  -20.3149   20.9385 C.2     1  UNL1        0.2488
     24 O          -6.2988  -20.9262   22.2175 O.2     1  UNL1       -0.2728
@<TRIPOS>BOND
     1    20    21    1
     2    21    22    1
     3    21    23   am
     4    23    24    2
     5    23    19    1
     6    19     1    1
     7     1     2   ar
     8     2     3   ar
     9     3     4   ar
    10     4     5   ar
    11     5     6   ar
    12     6     7   ar
    13     7    10    1
    14    10    11   ar
    15    11    12   ar
    16    12    13   ar
    17    13    15    1
    18    15    16    1
    19    15    17    1
    20    15    18    1
    21    13    14   ar
    22     7     8   ar
    23     8     9   ar
    24     9     1   ar
    25     9     4   ar
    26    14    10   ar
@<TRIPOS>MOLECULE
*****
 24 26 0 0 0
SMALL
GASTEIGER

@<TRIPOS>ATOM
      1 N         -10.0180  -18.6805   21.7807 N.ar    1  UNL1       -0.3165
      2 C         -11.0802  -19.2084   20.8626 C.ar    1  UNL1        0.0779
      3 C         -10.4040  -19.7815   19.6525 C.ar    1  UNL1        0.0392
      4 C          -8.9238  -19.6077   19.8228 C.ar    1  UNL1        0.0985
      5 N          -7.7625  -19.9812   18.9500 N.ar    1  UNL1       -0.2423
      6 C          -6.3626  -19.6743   19.3926 C.ar    1  UNL1        0.0994
      7 C          -6.1240  -18.9938   20.7080 C.ar    1  UNL1        0.0266
      8 C          -7.2854  -18.6204   21.5807 C.ar    1  UNL1        0.0208
      9 C          -8.6853  -18.9273   21.1381 C.ar    1  UNL1        0.0782
     10 C          -4.7240  -18.6869   21.1506 C.ar    1  UNL1        0.0309
     11 C          -4.2199  -18.7143   22.5631 C.ar    1  UNL1        0.0070
     12 C          -2.7667  -18.3430   22.5439 C.ar    1  UNL1        0.0109
     13 C          -2.3727  -18.0862   21.1195 C.ar    1  UNL1        0.1009
     14 S          -3.5824  -18.2987   20.2584 S.2     1  UNL1       -0.0831
     15 C          -1.0085  -17.6869   20.6403 C.3     1  UNL1        0.4241
     16 F           0.3557  -17.2876   20.1612 F       1  UNL1       -0.1654
     17 F          -0.8419  -19.0306   19.9948 F       1  UNL1       -0.1654
     18 F          -1.1750  -16.3432   21.2859 F       1  UNL1       -0.1654
     19 C         -10.2481  -18.0215   23.1084 C.3     1  UNL1        0.1920
     20 C         -13.9409  -18.1509   24.5563 C.3     1  UNL1        0.1150
     21 N         -12.7597  -17.7588   23.7191 N.am    1  UNL1       -0.2744
     22 C         -12.9089  -16.7119   22.6552 C.3     1  UNL1        0.1150
     23 C         -11.4294  -18.4136   23.9457 C.2     1  UNL1        0.2488
     24 O         -11.2802  -19.4605   25.0095 O.2     1  UNL1       -0.2728
@<TRIPOS>BOND
     1    20    21    1
     2    21    22    1
     3    21    23   am
     4    23    24    2
     5    23    19    1
     6    19     1    1
     7     1     2   ar
     8     2     3   ar
     9     3     4   ar
    10     4     5   ar
    11     5     6   ar
    12     6     7   ar
    13     7    10    1
    14    10    11   ar
    15    11    12   ar
    16    12    13   ar
    17    13    15    1
    18    15    16    1
    19    15    17    1
    20    15    18    1
    21    13    14   ar
    22     7     8   ar
    23     8     9   ar
    24     9     1   ar
    25     9     4   ar
    26    14    10   ar
@<TRIPOS>MOLECULE
*****
 24 26 0 0 0
SMALL
GASTEIGER

@<TRIPOS>ATOM
      1 N         -11.1922   -3.6212   18.1733 N.ar    1  UNL1       -0.3165
      2 C          -9.8934   -3.4757   17.4373 C.ar    1  UNL1        0.0779
      3 C          -9.6345   -4.7542   16.6968 C.ar    1  UNL1        0.0392
      4 C         -10.7733   -5.6899   16.9751 C.ar    1  UNL1        0.0985
      5 N         -11.0581   -7.0890   16.5155 N.ar    1  UNL1       -0.2423
      6 C         -12.3055   -7.7880   16.9685 C.ar    1  UNL1        0.0994
      7 C         -13.2683   -7.0877   17.8811 C.ar    1  UNL1        0.0266
      8 C         -12.9836   -5.6886   18.3407 C.ar    1  UNL1        0.0208
      9 C         -11.7361   -4.9897   17.8877 C.ar    1  UNL1        0.0782
     10 C         -14.5158   -7.7868   18.3341 C.ar    1  UNL1        0.0309
     11 C         -14.8639   -9.2233   18.0784 C.ar    1  UNL1        0.0070
     12 C         -16.1974   -9.4963   18.7085 C.ar    1  UNL1        0.0109
     13 C         -16.6736   -8.2286   19.3536 C.ar    1  UNL1        0.1009
     14 S         -15.6343   -7.1720   19.1222 S.2     1  UNL1       -0.0831
     15 C         -17.9627   -8.0489   20.0992 C.3     1  UNL1        0.4241
     16 F         -19.2518   -7.8693   20.8449 F       1  UNL1       -0.1654
     17 F         -18.1123   -9.5381   20.1994 F       1  UNL1       -0.1654
     18 F         -17.8131   -6.5597   19.9991 F       1  UNL1       -0.1654
     19 C         -11.8345   -2.5810   19.0424 C.3     1  UNL1        0.1920
     20 C         -15.7440   -2.1036   19.5309 C.3     1  UNL1        0.1150
     21 N         -14.3244   -2.5182   19.7819 N.am    1  UNL1       -0.2744
     22 C         -13.9751   -3.2846   21.0231 C.3     1  UNL1        0.1150
     23 C         -13.2542   -2.1664   18.7915 C.2     1  UNL1        0.2488
     24 O         -13.6035   -1.4000   17.5503 O.2     1  UNL1       -0.2728
@<TRIPOS>BOND
     1    20    21    1
     2    21    22    1
     3    21    23   am
     4    23    24    2
     5    23    19    1
     6    19     1    1
     7     1     2   ar
     8     2     3   ar
     9     3     4   ar
    10     4     5   ar
    11     5     6   ar
    12     6     7   ar
    13     7    10    1
    14    10    11   ar
    15    11    12   ar
    16    12    13   ar
    17    13    15    1
    18    15    16    1
    19    15    17    1
    20    15    18    1
    21    13    14   ar
    22     7     8   ar
    23     8     9   ar
    24     9     1   ar
    25     9     4   ar
    26    14    10   ar
