@<TRIPOS>MOLECULE
*****
 30 31 0 0 0
SMALL
GASTEIGER

@<TRIPOS>ATOM
      1 C          -9.3406  -17.3056   22.6778 C.ar    1  UNL1       -0.0022
      2 C         -10.7311  -17.1462   23.2174 C.ar    1  UNL1        0.0012
      3 C         -11.6750  -18.3120   23.2140 C.ar    1  UNL1        0.0712
      4 C         -11.2285  -19.6370   22.6710 C.ar    1  UNL1        0.0038
      5 C          -9.8381  -19.7964   22.1315 C.ar    1  UNL1       -0.0002
      6 C          -8.8941  -18.6306   22.1349 C.ar    1  UNL1        0.0005
      7 C          -7.5035  -18.7900   21.5954 C.ar    1  UNL1        0.0334
      8 C          -6.3258  -18.7038   22.5202 C.ar    1  UNL1       -0.0009
      9 C          -4.9353  -18.8632   21.9807 C.ar    1  UNL1       -0.0164
     10 C          -4.7225  -19.1088   20.5163 C.ar    1  UNL1       -0.0008
     11 C          -5.9003  -19.1950   19.5914 C.ar    1  UNL1        0.0366
     12 C          -7.2908  -19.0356   20.1310 C.ar    1  UNL1        0.1386
     13 O          -8.4686  -19.1218   19.2061 O.3     1  UNL1       -0.4714
     14 C          -8.8572  -20.4413   18.6075 C.3     1  UNL1        0.2525
     15 C          -3.7575  -18.7770   22.9056 C.3     1  UNL1        0.0679
     16 C          -2.4723  -18.1681   22.4286 C.2     1  UNL1        0.0547
     17 O          -1.3440  -19.0507   21.9836 O.co2   1  UNL1       -0.5488
     18 O          -2.3154  -16.6767   22.3966 O.co2   1  UNL1       -0.5488
     19 C         -13.0656  -18.1526   23.7535 C.3     1  UNL1        0.4186
     20 F         -14.4560  -17.9932   24.2931 F       1  UNL1       -0.1659
     21 F         -12.5959  -18.6158   25.1006 F       1  UNL1       -0.1659
     22 F         -13.5353  -17.6893   22.4064 F       1  UNL1       -0.1659
     23 C          -8.3966  -16.1399   22.6812 C.3     1  UNL1        0.1234
     24 N          -7.8457  -15.6247   23.9778 N.am    1  UNL1       -0.2419
     25 C          -6.4005  -15.2351   24.0766 C.2     1  UNL1        0.4052
     26 O          -5.5063  -15.3608   22.8789 O.2     1  UNL1       -0.2262
     27 C          -8.6601  -16.5103   26.2805 C.3     1  UNL1        0.0234
     28 C          -8.7400  -15.4990   25.1755 C.3     1  UNL1        0.0971
     29 O          -5.8496  -14.7199   25.3732 O.3     1  UNL1       -0.4304
     30 C          -5.1632  -15.6575   26.3218 C.3     1  UNL1        0.2573
@<TRIPOS>UNITY_ATOM_ATTR
17 1
charge -1
@<TRIPOS>BOND
     1    27    28    1
     2    28    24    1
     3    24    23    1
     4    23     1    1
     5     1     2   ar
     6     2     3   ar
     7     3    19    1
     8    19    20    1
     9    19    21    1
    10    19    22    1
    11     3     4   ar
    12     4     5   ar
    13     5     6   ar
    14     6     7    1
    15     7     8   ar
    16     8     9   ar
    17     9    15    1
    18    15    16    1
    19    16    17   ar
    20    16    18   ar
    21     9    10   ar
    22    10    11   ar
    23    11    12   ar
    24    12    13    1
    25    13    14    1
    26    24    25   am
    27    25    26    2
    28    25    29    1
    29    29    30    1
    30     6     1   ar
    31    12     7   ar
@<TRIPOS>MOLECULE
*****
 30 31 0 0 0
SMALL
GASTEIGER

@<TRIPOS>ATOM
      1 C          -9.1632  -17.4490   22.6503 C.ar    1  UNL1       -0.0022
      2 C         -10.5148  -17.2351   23.2646 C.ar    1  UNL1        0.0012
      3 C         -11.5040  -18.3617   23.3117 C.ar    1  UNL1        0.0712
      4 C         -11.1416  -19.7022   22.7447 C.ar    1  UNL1        0.0038
      5 C          -9.7899  -19.9161   22.1305 C.ar    1  UNL1       -0.0002
      6 C          -8.8008  -18.7895   22.0833 C.ar    1  UNL1        0.0005
      7 C          -7.4491  -19.0034   21.4690 C.ar    1  UNL1        0.0334
      8 C          -6.2299  -19.0628   22.3409 C.ar    1  UNL1       -0.0009
      9 C          -4.8783  -19.2768   21.7267 C.ar    1  UNL1       -0.0164
     10 C          -4.7458  -19.4314   20.2405 C.ar    1  UNL1       -0.0008
     11 C          -5.9649  -19.3720   19.3686 C.ar    1  UNL1        0.0366
     12 C          -7.3166  -19.1580   19.9829 C.ar    1  UNL1        0.1386
     13 O          -8.5357  -19.0987   19.1110 O.3     1  UNL1       -0.4714
     14 C          -9.0894  -20.3562   18.5093 C.3     1  UNL1        0.2525
     15 C          -3.6592  -19.3361   22.5986 C.3     1  UNL1        0.0679
     16 C          -2.4023  -18.6331   22.1793 C.2     1  UNL1        0.0547
     17 O          -2.1657  -17.2102   22.5909 O.co2   1  UNL1       -0.5488
     18 O          -1.3818  -19.3530   21.3483 O.co2   1  UNL1       -0.5488
     19 C         -12.8557  -18.1477   23.9260 C.3     1  UNL1        0.4186
     20 F         -14.2073  -17.9337   24.5402 F       1  UNL1       -0.1659
     21 F         -13.2817  -17.3687   22.7171 F       1  UNL1       -0.1659
     22 F         -12.4296  -18.9267   25.1350 F       1  UNL1       -0.1659
     23 C          -8.1740  -16.3223   22.6031 C.3     1  UNL1        0.1234
     24 N          -7.2868  -16.0533   23.7823 N.am    1  UNL1       -0.2419
     25 C          -7.8649  -15.4727   25.0389 C.2     1  UNL1        0.4052
     26 O          -9.3302  -15.1611   25.1161 O.2     1  UNL1       -0.2262
     27 C          -4.8277  -15.2563   23.5220 C.3     1  UNL1        0.0234
     28 C          -5.8216  -16.3649   23.7051 C.3     1  UNL1        0.0971
     29 O          -6.9778  -15.2037   26.2181 O.3     1  UNL1       -0.4304
     30 C          -7.1592  -15.9835   27.4865 C.3     1  UNL1        0.2573
@<TRIPOS>UNITY_ATOM_ATTR
17 1
charge -1
@<TRIPOS>BOND
     1    27    28    1
     2    28    24    1
     3    24    23    1
     4    23     1    1
     5     1     2   ar
     6     2     3   ar
     7     3    19    1
     8    19    20    1
     9    19    21    1
    10    19    22    1
    11     3     4   ar
    12     4     5   ar
    13     5     6   ar
    14     6     7    1
    15     7     8   ar
    16     8     9   ar
    17     9    15    1
    18    15    16    1
    19    16    17   ar
    20    16    18   ar
    21     9    10   ar
    22    10    11   ar
    23    11    12   ar
    24    12    13    1
    25    13    14    1
    26    24    25   am
    27    25    26    2
    28    25    29    1
    29    29    30    1
    30     6     1   ar
    31    12     7   ar
@<TRIPOS>MOLECULE
*****
 30 31 0 0 0
SMALL
GASTEIGER

@<TRIPOS>ATOM
      1 C          -7.4371  -16.8928   23.5603 C.ar    1  UNL1       -0.0022
      2 C          -6.7485  -16.1254   24.6497 C.ar    1  UNL1        0.0012
      3 C          -7.4929  -15.7703   25.9027 C.ar    1  UNL1        0.0712
      4 C          -8.9257  -16.1827   26.0662 C.ar    1  UNL1        0.0038
      5 C          -9.6143  -16.9501   24.9767 C.ar    1  UNL1       -0.0002
      6 C          -8.8699  -17.3051   23.7237 C.ar    1  UNL1        0.0005
      7 C          -9.5586  -18.0725   22.6342 C.ar    1  UNL1        0.0334
      8 C         -10.1053  -17.3504   21.4386 C.ar    1  UNL1       -0.0009
      9 C         -10.7938  -18.1178   20.3491 C.ar    1  UNL1       -0.0164
     10 C         -10.9358  -19.6073   20.4553 C.ar    1  UNL1       -0.0008
     11 C         -10.3891  -20.3294   21.6510 C.ar    1  UNL1        0.0366
     12 C          -9.7005  -19.5620   22.7405 C.ar    1  UNL1        0.1386
     13 O          -9.1538  -20.2841   23.9362 O.3     1  UNL1       -0.4714
     14 C         -10.0504  -20.5991   25.0968 C.3     1  UNL1        0.2525
     15 C         -11.3405  -17.3956   19.1534 C.3     1  UNL1        0.0679
     16 C         -11.7011  -15.9432   19.2545 C.2     1  UNL1        0.0547
     17 O         -13.0637  -15.5403   19.7352 O.co2   1  UNL1       -0.5488
     18 O         -10.6990  -14.8935   18.8751 O.co2   1  UNL1       -0.5488
     19 C          -6.8042  -15.0029   26.9922 C.3     1  UNL1        0.4186
     20 F          -6.1157  -14.2355   28.0816 F       1  UNL1       -0.1659
     21 F          -8.1220  -14.7930   27.6771 F       1  UNL1       -0.1659
     22 F          -5.4864  -15.2129   26.3072 F       1  UNL1       -0.1659
     23 C          -6.6927  -17.2478   22.3073 C.3     1  UNL1        0.1234
     24 N          -5.7595  -18.4221   22.2966 N.am    1  UNL1       -0.2419
     25 C          -4.3020  -18.2245   22.5912 C.2     1  UNL1        0.4052
     26 O          -3.7778  -16.8527   22.8966 O.2     1  UNL1       -0.2262
     27 C          -6.6732  -20.1527   20.5877 C.3     1  UNL1        0.0234
     28 C          -6.2837  -19.7939   21.9912 C.3     1  UNL1        0.0971
     29 O          -3.3688  -19.3988   22.5805 O.3     1  UNL1       -0.4304
     30 C          -2.5799  -19.7186   21.3454 C.3     1  UNL1        0.2573
@<TRIPOS>UNITY_ATOM_ATTR
17 1
charge -1
@<TRIPOS>BOND
     1    27    28    1
     2    28    24    1
     3    24    23    1
     4    23     1    1
     5     1     2   ar
     6     2     3   ar
     7     3    19    1
     8    19    20    1
     9    19    21    1
    10    19    22    1
    11     3     4   ar
    12     4     5   ar
    13     5     6   ar
    14     6     7    1
    15     7     8   ar
    16     8     9   ar
    17     9    15    1
    18    15    16    1
    19    16    17   ar
    20    16    18   ar
    21     9    10   ar
    22    10    11   ar
    23    11    12   ar
    24    12    13    1
    25    13    14    1
    26    24    25   am
    27    25    26    2
    28    25    29    1
    29    29    30    1
    30     6     1   ar
    31    12     7   ar
@<TRIPOS>MOLECULE
*****
 30 31 0 0 0
SMALL
GASTEIGER

@<TRIPOS>ATOM
      1 C          -6.5210  -17.7239   22.4161 C.ar    1  UNL1       -0.0022
      2 C          -5.0358  -17.6729   22.6200 C.ar    1  UNL1        0.0012
      3 C          -4.1969  -18.8820   22.3298 C.ar    1  UNL1        0.0712
      4 C          -4.8432  -20.1422   21.8358 C.ar    1  UNL1        0.0038
      5 C          -6.3284  -20.1933   21.6319 C.ar    1  UNL1       -0.0002
      6 C          -7.1673  -18.9841   21.9221 C.ar    1  UNL1        0.0005
      7 C          -8.6525  -19.0352   21.7181 C.ar    1  UNL1        0.0334
      8 C          -9.2819  -18.2687   20.5928 C.ar    1  UNL1       -0.0009
      9 C         -10.7670  -18.3198   20.3889 C.ar    1  UNL1       -0.0164
     10 C         -11.6229  -19.1374   21.3103 C.ar    1  UNL1       -0.0008
     11 C         -10.9936  -19.9039   22.4356 C.ar    1  UNL1        0.0366
     12 C          -9.5084  -19.8528   22.6396 C.ar    1  UNL1        0.1386
     13 O          -8.8791  -20.6194   23.7649 O.3     1  UNL1       -0.4714
     14 C          -9.7169  -21.0753   24.9226 C.3     1  UNL1        0.2525
     15 C         -11.3963  -17.5533   19.2635 C.3     1  UNL1        0.0679
     16 C         -11.7325  -16.1022   19.4402 C.2     1  UNL1        0.0547
     17 O         -10.7521  -15.0483   19.0181 O.co2   1  UNL1       -0.5488
     18 O         -13.0492  -15.7049   20.0391 O.co2   1  UNL1       -0.5488
     19 C          -2.7117  -18.8309   22.5337 C.3     1  UNL1        0.4186
     20 F          -1.2265  -18.7798   22.7377 F       1  UNL1       -0.1659
     21 F          -2.8871  -17.7270   23.5340 F       1  UNL1       -0.1659
     22 F          -2.5363  -19.9349   21.5335 F       1  UNL1       -0.1659
     23 C          -7.3599  -16.5148   22.7063 C.3     1  UNL1        0.1234
     24 N          -7.8623  -16.2668   24.0977 N.am    1  UNL1       -0.2419
     25 C          -7.0380  -15.4652   25.0610 C.2     1  UNL1        0.4052
     26 O          -5.7113  -14.9115   24.6329 O.2     1  UNL1       -0.2262
     27 C         -10.4267  -16.4903   23.7454 C.3     1  UNL1        0.0234
     28 C          -9.1890  -16.8205   24.5259 C.3     1  UNL1        0.0971
     29 O          -7.5404  -15.2172   26.4525 O.3     1  UNL1       -0.4304
     30 C          -6.9893  -16.0092   27.6011 C.3     1  UNL1        0.2573
@<TRIPOS>UNITY_ATOM_ATTR
17 1
charge -1
@<TRIPOS>BOND
     1    27    28    1
     2    28    24    1
     3    24    23    1
     4    23     1    1
     5     1     2   ar
     6     2     3   ar
     7     3    19    1
     8    19    20    1
     9    19    21    1
    10    19    22    1
    11     3     4   ar
    12     4     5   ar
    13     5     6   ar
    14     6     7    1
    15     7     8   ar
    16     8     9   ar
    17     9    15    1
    18    15    16    1
    19    16    17   ar
    20    16    18   ar
    21     9    10   ar
    22    10    11   ar
    23    11    12   ar
    24    12    13    1
    25    13    14    1
    26    24    25   am
    27    25    26    2
    28    25    29    1
    29    29    30    1
    30     6     1   ar
    31    12     7   ar
@<TRIPOS>MOLECULE
*****
 30 31 0 0 0
SMALL
GASTEIGER

@<TRIPOS>ATOM
      1 C          -6.8568  -17.6514   22.6863 C.ar    1  UNL1       -0.0022
      2 C          -5.4153  -17.9902   22.4468 C.ar    1  UNL1        0.0012
      3 C          -5.0303  -19.3793   22.0319 C.ar    1  UNL1        0.0712
      4 C          -6.0867  -20.4296   21.8566 C.ar    1  UNL1        0.0038
      5 C          -7.5281  -20.0909   22.0961 C.ar    1  UNL1       -0.0002
      6 C          -7.9132  -18.7018   22.5110 C.ar    1  UNL1        0.0005
      7 C          -9.3547  -18.3630   22.7505 C.ar    1  UNL1        0.0334
      8 C         -10.0731  -17.4371   21.8143 C.ar    1  UNL1       -0.0009
      9 C         -11.5146  -17.0984   22.0538 C.ar    1  UNL1       -0.0164
     10 C         -12.2377  -17.6855   23.2295 C.ar    1  UNL1       -0.0008
     11 C         -11.5193  -18.6115   24.1658 C.ar    1  UNL1        0.0366
     12 C         -10.0778  -18.9502   23.9263 C.ar    1  UNL1        0.1386
     13 O          -9.3593  -19.8761   24.8625 O.3     1  UNL1       -0.4714
     14 C          -9.5802  -21.3569   24.7692 C.3     1  UNL1        0.2525
     15 C         -12.2330  -16.1725   21.1175 C.3     1  UNL1        0.0679
     16 C         -11.9686  -16.2435   19.6427 C.2     1  UNL1        0.0547
     17 O         -11.7997  -17.5758   18.9744 O.co2   1  UNL1       -0.5488
     18 O         -11.8731  -14.9824   18.8363 O.co2   1  UNL1       -0.5488
     19 C          -3.5888  -19.7180   21.7923 C.3     1  UNL1        0.4186
     20 F          -2.1473  -20.0567   21.5529 F       1  UNL1       -0.1659
     21 F          -3.1928  -18.8529   22.9519 F       1  UNL1       -0.1659
     22 F          -3.9847  -20.5832   20.6328 F       1  UNL1       -0.1659
     23 C          -7.2418  -16.2623   23.1012 C.3     1  UNL1        0.1234
     24 N          -6.8681  -15.7554   24.4625 N.am    1  UNL1       -0.2419
     25 C          -7.9214  -15.5950   25.5184 C.2     1  UNL1        0.4052
     26 O          -9.3485  -15.9416   25.2129 O.2     1  UNL1       -0.2262
     27 C          -4.6995  -16.1573   25.8358 C.3     1  UNL1        0.0234
     28 C          -5.4410  -15.4089   24.7680 C.3     1  UNL1        0.0971
     29 O          -7.5476  -15.0881   26.8798 O.3     1  UNL1       -0.4304
     30 C          -8.6174  -14.7797   27.8851 C.3     1  UNL1        0.2573
@<TRIPOS>UNITY_ATOM_ATTR
17 1
charge -1
@<TRIPOS>BOND
     1    27    28    1
     2    28    24    1
     3    24    23    1
     4    23     1    1
     5     1     2   ar
     6     2     3   ar
     7     3    19    1
     8    19    20    1
     9    19    21    1
    10    19    22    1
    11     3     4   ar
    12     4     5   ar
    13     5     6   ar
    14     6     7    1
    15     7     8   ar
    16     8     9   ar
    17     9    15    1
    18    15    16    1
    19    16    17   ar
    20    16    18   ar
    21     9    10   ar
    22    10    11   ar
    23    11    12   ar
    24    12    13    1
    25    13    14    1
    26    24    25   am
    27    25    26    2
    28    25    29    1
    29    29    30    1
    30     6     1   ar
    31    12     7   ar
@<TRIPOS>MOLECULE
*****
 30 31 0 0 0
SMALL
GASTEIGER

@<TRIPOS>ATOM
      1 C          -6.5911  -17.9972   22.1827 C.ar    1  UNL1       -0.0022
      2 C          -5.0920  -18.0176   22.2282 C.ar    1  UNL1        0.0012
      3 C          -4.3517  -19.3003   21.9897 C.ar    1  UNL1        0.0712
      4 C          -5.1106  -20.5625   21.7058 C.ar    1  UNL1        0.0038
      5 C          -6.6098  -20.5422   21.6603 C.ar    1  UNL1       -0.0002
      6 C          -7.3500  -19.2595   21.8988 C.ar    1  UNL1        0.0005
      7 C          -8.8492  -19.2392   21.8534 C.ar    1  UNL1        0.0334
      8 C          -9.6379  -19.2139   23.1290 C.ar    1  UNL1       -0.0009
      9 C         -11.1371  -19.1936   23.0837 C.ar    1  UNL1       -0.0164
     10 C         -11.8476  -19.1986   21.7626 C.ar    1  UNL1       -0.0008
     11 C         -11.0589  -19.2239   20.4869 C.ar    1  UNL1        0.0366
     12 C          -9.5597  -19.2442   20.5323 C.ar    1  UNL1        0.1386
     13 O          -8.7710  -19.2695   19.2567 O.3     1  UNL1       -0.4714
     14 C          -8.8618  -20.4551   18.3421 C.3     1  UNL1        0.2525
     15 C         -11.9258  -19.1683   24.3593 C.3     1  UNL1        0.0679
     16 C         -13.1731  -18.3405   24.4536 C.2     1  UNL1        0.0547
     17 O         -13.3527  -17.1500   23.5588 O.co2   1  UNL1       -0.5488
     18 O         -14.2410  -18.7032   25.4426 O.co2   1  UNL1       -0.5488
     19 C          -2.8525  -19.3206   22.0351 C.3     1  UNL1        0.4186
     20 F          -1.3534  -19.3409   22.0806 F       1  UNL1       -0.1659
     21 F          -2.8692  -18.2352   23.0703 F       1  UNL1       -0.1659
     22 F          -2.8358  -20.4059   20.9999 F       1  UNL1       -0.1659
     23 C          -7.3313  -16.7146   22.4212 C.3     1  UNL1        0.1234
     24 N          -7.3271  -16.0885   23.7842 N.am    1  UNL1       -0.2419
     25 C          -6.1854  -15.2100   24.2025 C.2     1  UNL1        0.4052
     26 O          -5.0480  -14.9576   23.2577 O.2     1  UNL1       -0.2262
     27 C          -9.8575  -15.9315   24.3521 C.3     1  UNL1        0.0234
     28 C          -8.4645  -16.3408   24.7291 C.3     1  UNL1        0.0971
     29 O          -6.1812  -14.5839   25.5656 O.3     1  UNL1       -0.4304
     30 C          -5.9494  -15.4330   26.7803 C.3     1  UNL1        0.2573
@<TRIPOS>UNITY_ATOM_ATTR
17 1
charge -1
@<TRIPOS>BOND
     1    27    28    1
     2    28    24    1
     3    24    23    1
     4    23     1    1
     5     1     2   ar
     6     2     3   ar
     7     3    19    1
     8    19    20    1
     9    19    21    1
    10    19    22    1
    11     3     4   ar
    12     4     5   ar
    13     5     6   ar
    14     6     7    1
    15     7     8   ar
    16     8     9   ar
    17     9    15    1
    18    15    16    1
    19    16    17   ar
    20    16    18   ar
    21     9    10   ar
    22    10    11   ar
    23    11    12   ar
    24    12    13    1
    25    13    14    1
    26    24    25   am
    27    25    26    2
    28    25    29    1
    29    29    30    1
    30     6     1   ar
    31    12     7   ar
@<TRIPOS>MOLECULE
*****
 30 31 0 0 0
SMALL
GASTEIGER

@<TRIPOS>ATOM
      1 C          -7.8279  -16.5671   23.4352 C.ar    1  UNL1       -0.0022
      2 C          -6.5621  -16.0457   24.0482 C.ar    1  UNL1        0.0012
      3 C          -6.5839  -15.4572   25.4278 C.ar    1  UNL1        0.0712
      4 C          -7.8714  -15.3900   26.1943 C.ar    1  UNL1        0.0038
      5 C          -9.1372  -15.9113   25.5813 C.ar    1  UNL1       -0.0002
      6 C          -9.1155  -16.4999   24.2017 C.ar    1  UNL1        0.0005
      7 C         -10.3814  -17.0213   23.5887 C.ar    1  UNL1        0.0334
      8 C         -10.9735  -16.3356   22.3932 C.ar    1  UNL1       -0.0009
      9 C         -12.2394  -16.8569   21.7802 C.ar    1  UNL1       -0.0164
     10 C         -12.9131  -18.0639   22.3627 C.ar    1  UNL1       -0.0008
     11 C         -12.3210  -18.7496   23.5582 C.ar    1  UNL1        0.0366
     12 C         -11.0551  -18.2282   24.1712 C.ar    1  UNL1        0.1386
     13 O         -10.4629  -18.9139   25.3667 O.3     1  UNL1       -0.4714
     14 C          -9.8922  -20.2946   25.2331 C.3     1  UNL1        0.2525
     15 C         -12.8315  -16.1713   20.5847 C.3     1  UNL1        0.0679
     16 C         -11.9714  -15.8610   19.3956 C.2     1  UNL1        0.0547
     17 O         -10.6969  -16.6201   19.1732 O.co2   1  UNL1       -0.5488
     18 O         -12.3858  -14.7915   18.4289 O.co2   1  UNL1       -0.5488
     19 C          -5.3179  -14.9358   26.0408 C.3     1  UNL1        0.4186
     20 F          -4.0521  -14.4144   26.6538 F       1  UNL1       -0.1659
     21 F          -4.6097  -15.1154   24.7308 F       1  UNL1       -0.1659
     22 F          -6.0262  -14.7562   27.3508 F       1  UNL1       -0.1659
     23 C          -7.8061  -17.1556   22.0557 C.3     1  UNL1        0.1234
     24 N          -7.5662  -18.6247   21.8707 N.am    1  UNL1       -0.2419
     25 C          -6.1642  -19.1500   21.7793 C.2     1  UNL1        0.4052
     26 O          -5.0021  -18.2062   21.8728 O.2     1  UNL1       -0.2262
     27 C          -9.7165  -19.4327   20.6568 C.3     1  UNL1        0.0234
     28 C          -8.7283  -19.5685   21.7771 C.3     1  UNL1        0.0971
     29 O          -5.9243  -20.6191   21.5943 O.3     1  UNL1       -0.4304
     30 C          -5.8345  -21.1963   20.2126 C.3     1  UNL1        0.2573
@<TRIPOS>UNITY_ATOM_ATTR
17 1
charge -1
@<TRIPOS>BOND
     1    27    28    1
     2    28    24    1
     3    24    23    1
     4    23     1    1
     5     1     2   ar
     6     2     3   ar
     7     3    19    1
     8    19    20    1
     9    19    21    1
    10    19    22    1
    11     3     4   ar
    12     4     5   ar
    13     5     6   ar
    14     6     7    1
    15     7     8   ar
    16     8     9   ar
    17     9    15    1
    18    15    16    1
    19    16    17   ar
    20    16    18   ar
    21     9    10   ar
    22    10    11   ar
    23    11    12   ar
    24    12    13    1
    25    13    14    1
    26    24    25   am
    27    25    26    2
    28    25    29    1
    29    29    30    1
    30     6     1   ar
    31    12     7   ar
@<TRIPOS>MOLECULE
*****
 30 31 0 0 0
SMALL
GASTEIGER

@<TRIPOS>ATOM
      1 C         -10.0665  -17.7367   22.4947 C.ar    1  UNL1       -0.0022
      2 C         -11.5429  -17.9123   22.6928 C.ar    1  UNL1        0.0012
      3 C         -12.0831  -18.2432   24.0525 C.ar    1  UNL1        0.0712
      4 C         -11.1468  -18.3984   25.2141 C.ar    1  UNL1        0.0038
      5 C          -9.6704  -18.2228   25.0160 C.ar    1  UNL1       -0.0002
      6 C          -9.1302  -17.8919   23.6563 C.ar    1  UNL1        0.0005
      7 C          -7.6537  -17.7162   23.4582 C.ar    1  UNL1        0.0334
      8 C          -6.8682  -18.7544   22.7131 C.ar    1  UNL1       -0.0009
      9 C          -5.3918  -18.5788   22.5150 C.ar    1  UNL1       -0.0164
     10 C          -4.7008  -17.3650   23.0621 C.ar    1  UNL1       -0.0008
     11 C          -5.4863  -16.3268   23.8073 C.ar    1  UNL1        0.0366
     12 C          -6.9628  -16.5025   24.0053 C.ar    1  UNL1        0.1386
     13 O          -7.7483  -15.4643   24.7505 O.3     1  UNL1       -0.4714
     14 C          -7.6858  -15.4085   26.2482 C.3     1  UNL1        0.2525
     15 C          -4.6063  -19.6169   21.7698 C.3     1  UNL1        0.0679
     16 C          -3.2736  -19.2668   21.1773 C.2     1  UNL1        0.0547
     17 O          -2.0475  -20.0280   21.5867 O.co2   1  UNL1       -0.5488
     18 O          -3.1667  -18.1556   20.1754 O.co2   1  UNL1       -0.5488
     19 C         -13.5596  -18.4189   24.2505 C.3     1  UNL1        0.4186
     20 F         -15.0360  -18.5945   24.4485 F       1  UNL1       -0.1659
     21 F         -13.7932  -18.0815   22.8078 F       1  UNL1       -0.1659
     22 F         -13.3260  -18.7563   25.6933 F       1  UNL1       -0.1659
     23 C          -9.5263  -17.4058   21.1350 C.3     1  UNL1        0.1234
     24 N         -10.0374  -18.1340   19.9274 N.am    1  UNL1       -0.2419
     25 C          -9.2909  -19.3216   19.3960 C.2     1  UNL1        0.4052
     26 O          -8.0334  -19.7811   20.0723 O.2     1  UNL1       -0.2262
     27 C         -11.7686  -16.2622   19.4277 C.3     1  UNL1        0.0234
     28 C         -11.2950  -17.6745   19.2510 C.3     1  UNL1        0.0971
     29 O          -9.8021  -20.0498   18.1883 O.3     1  UNL1       -0.4304
     30 C          -9.0793  -21.2629   17.6823 C.3     1  UNL1        0.2573
@<TRIPOS>UNITY_ATOM_ATTR
17 1
charge -1
@<TRIPOS>BOND
     1    27    28    1
     2    28    24    1
     3    24    23    1
     4    23     1    1
     5     1     2   ar
     6     2     3   ar
     7     3    19    1
     8    19    20    1
     9    19    21    1
    10    19    22    1
    11     3     4   ar
    12     4     5   ar
    13     5     6   ar
    14     6     7    1
    15     7     8   ar
    16     8     9   ar
    17     9    15    1
    18    15    16    1
    19    16    17   ar
    20    16    18   ar
    21     9    10   ar
    22    10    11   ar
    23    11    12   ar
    24    12    13    1
    25    13    14    1
    26    24    25   am
    27    25    26    2
    28    25    29    1
    29    29    30    1
    30     6     1   ar
    31    12     7   ar
@<TRIPOS>MOLECULE
*****
 30 31 0 0 0
SMALL
GASTEIGER

@<TRIPOS>ATOM
      1 C          -9.1736  -16.9798   21.5193 C.ar    1  UNL1       -0.0022
      2 C         -10.3758  -16.1504   21.1778 C.ar    1  UNL1        0.0012
      3 C         -11.3604  -16.6411   20.1580 C.ar    1  UNL1        0.0712
      4 C         -11.1428  -17.9611   19.4798 C.ar    1  UNL1        0.0038
      5 C          -9.9406  -18.7906   19.8214 C.ar    1  UNL1       -0.0002
      6 C          -8.9560  -18.2999   20.8411 C.ar    1  UNL1        0.0005
      7 C          -7.7537  -19.1294   21.1827 C.ar    1  UNL1        0.0334
      8 C          -6.4799  -18.9579   20.4094 C.ar    1  UNL1       -0.0009
      9 C          -5.2777  -19.7873   20.7509 C.ar    1  UNL1       -0.0164
     10 C          -5.3493  -20.7884   21.8658 C.ar    1  UNL1       -0.0008
     11 C          -6.6231  -20.9599   22.6391 C.ar    1  UNL1        0.0366
     12 C          -7.8253  -20.1304   22.2975 C.ar    1  UNL1        0.1386
     13 O          -9.0991  -20.3020   23.0708 O.3     1  UNL1       -0.4714
     14 C          -9.1191  -21.1572   24.3030 C.3     1  UNL1        0.2525
     15 C          -4.0039  -19.6157   19.9776 C.3     1  UNL1        0.0679
     16 C          -2.7491  -19.1947   20.6833 C.2     1  UNL1        0.0547
     17 O          -2.3350  -17.7529   20.6810 O.co2   1  UNL1       -0.5488
     18 O          -1.9082  -20.2153   21.3913 O.co2   1  UNL1       -0.5488
     19 C         -12.5626  -15.8116   19.8164 C.3     1  UNL1        0.4186
     20 F         -13.7648  -14.9821   19.4749 F       1  UNL1       -0.1659
     21 F         -11.8375  -15.2492   18.6300 F       1  UNL1       -0.1659
     22 F         -13.2878  -16.3740   21.0029 F       1  UNL1       -0.1659
     23 C          -8.1891  -16.4892   22.5391 C.3     1  UNL1        0.1234
     24 N          -8.5513  -16.4945   23.9946 N.am    1  UNL1       -0.2419
     25 C          -8.0129  -15.4312   24.9055 C.2     1  UNL1        0.4052
     26 O          -7.1122  -14.3626   24.3607 O.2     1  UNL1       -0.2262
     27 C         -10.8888  -17.6225   24.1126 C.3     1  UNL1        0.0234
     28 C          -9.4520  -17.5632   24.5394 C.3     1  UNL1        0.0971
     29 O          -8.3751  -15.4366   26.3610 O.3     1  UNL1       -0.4304
     30 C          -7.3391  -15.7784   27.3906 C.3     1  UNL1        0.2573
@<TRIPOS>UNITY_ATOM_ATTR
17 1
charge -1
@<TRIPOS>BOND
     1    27    28    1
     2    28    24    1
     3    24    23    1
     4    23     1    1
     5     1     2   ar
     6     2     3   ar
     7     3    19    1
     8    19    20    1
     9    19    21    1
    10    19    22    1
    11     3     4   ar
    12     4     5   ar
    13     5     6   ar
    14     6     7    1
    15     7     8   ar
    16     8     9   ar
    17     9    15    1
    18    15    16    1
    19    16    17   ar
    20    16    18   ar
    21     9    10   ar
    22    10    11   ar
    23    11    12   ar
    24    12    13    1
    25    13    14    1
    26    24    25   am
    27    25    26    2
    28    25    29    1
    29    29    30    1
    30     6     1   ar
    31    12     7   ar
