@<TRIPOS>MOLECULE
*****
 29 31 0 0 0
SMALL
GASTEIGER

@<TRIPOS>ATOM
      1 C          -9.3798  -17.1278   23.1219 C.2     1  UNL1        0.0106
      2 C          -9.0064  -16.0625   24.1097 C.2     1  UNL1        0.0576
      3 CL        -10.0554  -15.1313   24.6410 Cl      1  UNL1       -0.0822
      4 C          -6.2326  -19.9216   21.5283 C.ar    1  UNL1        0.1386
      5 C          -6.3203  -18.5167   21.0101 C.ar    1  UNL1        0.0369
      6 C          -7.3693  -17.5854   21.5413 C.ar    1  UNL1        0.0031
      7 C          -8.3307  -18.0590   22.5907 C.ar    1  UNL1        0.0010
      8 C          -8.2431  -19.4639   23.1089 C.ar    1  UNL1        0.0031
      9 C          -7.1940  -20.3952   22.5777 C.ar    1  UNL1        0.0369
     10 O          -5.1835  -20.8528   20.9971 O.3     1  UNL1       -0.4740
     11 C          -4.0119  -20.3069   20.2360 C.3     1  UNL1        0.2226
     12 C          -2.7357  -19.9832   20.9546 C.3     1  UNL1        0.1200
     13 N          -2.1916  -18.5856   20.9242 N.3     1  UNL1       -0.2696
     14 C          -2.1867  -16.1663   21.8710 C.3     1  UNL1        0.0188
     15 C          -2.5658  -17.6116   22.0018 C.3     1  UNL1        0.0722
     16 C          -1.2734  -18.1622   19.8163 C.3     1  UNL1        0.0722
     17 C          -1.8391  -17.7491   18.4899 C.3     1  UNL1        0.0188
     18 C          -7.5838  -15.9285   24.5664 C.ar    1  UNL1        0.0106
     19 C          -7.2477  -16.0616   26.0222 C.ar    1  UNL1        0.0008
     20 C          -5.8253  -15.9276   26.4788 C.ar    1  UNL1        0.0000
     21 C          -4.7388  -15.6605   25.4796 C.ar    1  UNL1        0.0000
     22 C          -5.0748  -15.5274   24.0238 C.ar    1  UNL1        0.0000
     23 C          -6.4974  -15.6615   23.5672 C.ar    1  UNL1        0.0008
     24 C         -10.8023  -17.2617   22.6654 C.ar    1  UNL1        0.0008
     25 C         -11.8043  -17.9673   23.5303 C.ar    1  UNL1        0.0000
     26 C         -13.2269  -18.1013   23.0737 C.ar    1  UNL1        0.0000
     27 C         -13.6474  -17.5297   21.7522 C.ar    1  UNL1        0.0000
     28 C         -12.6454  -16.8241   20.8873 C.ar    1  UNL1        0.0000
     29 C         -11.2229  -16.6901   21.3438 C.ar    1  UNL1        0.0000
@<TRIPOS>BOND
     1    14    15    1
     2    15    13    1
     3    13    16    1
     4    16    17    1
     5    13    12    1
     6    12    11    1
     7    11    10    1
     8    10     4    1
     9     4     5   ar
    10     5     6   ar
    11     6     7   ar
    12     7     1    1
    13     1     2    2
    14     2     3    1
    15     2    18    1
    16    18    19   ar
    17    19    20   ar
    18    20    21   ar
    19    21    22   ar
    20    22    23   ar
    21     1    24    1
    22    24    25   ar
    23    25    26   ar
    24    26    27   ar
    25    27    28   ar
    26    28    29   ar
    27     7     8   ar
    28     8     9   ar
    29     9     4   ar
    30    23    18   ar
    31    29    24   ar
@<TRIPOS>MOLECULE
*****
 29 31 0 0 0
SMALL
GASTEIGER

@<TRIPOS>ATOM
      1 C         -14.5233   -6.5571   18.3004 C.2     1  UNL1        0.0106
      2 C         -13.1877   -7.0807   17.8623 C.2     1  UNL1        0.0576
      3 CL        -13.0273   -8.5317   17.5178 Cl      1  UNL1       -0.0822
      4 C         -15.0046   -2.2039   19.3340 C.ar    1  UNL1        0.1386
      5 C         -15.3135   -2.6840   17.9469 C.ar    1  UNL1        0.0369
      6 C         -15.1530   -4.1351   17.6024 C.ar    1  UNL1        0.0031
      7 C         -14.6838   -5.1060   18.6450 C.ar    1  UNL1        0.0010
      8 C         -14.3750   -4.6259   20.0321 C.ar    1  UNL1        0.0031
      9 C         -14.5354   -3.1749   20.3766 C.ar    1  UNL1        0.0369
     10 O         -15.1651   -0.7529   19.6786 O.3     1  UNL1       -0.4740
     11 C         -14.9200    0.2971   18.6358 C.3     1  UNL1        0.2226
     12 C         -13.5504    0.8865   18.4722 C.3     1  UNL1        0.1200
     13 N         -12.6302    0.3621   17.4100 N.3     1  UNL1       -0.2696
     14 C         -11.5268   -1.4916   18.8578 C.3     1  UNL1        0.0188
     15 C         -12.0483   -1.0148   17.5347 C.3     1  UNL1        0.0722
     16 C         -12.2919    1.2146   16.2231 C.3     1  UNL1        0.0722
     17 C         -12.8079    2.6205   16.1379 C.3     1  UNL1        0.0188
     18 C         -12.0125   -6.1532   17.7687 C.ar    1  UNL1        0.0106
     19 C         -11.1104   -5.9639   18.9521 C.ar    1  UNL1        0.0008
     20 C          -9.9352   -5.0365   18.8585 C.ar    1  UNL1        0.0000
     21 C          -9.6621   -4.2983   17.5815 C.ar    1  UNL1        0.0000
     22 C         -10.5642   -4.4877   16.3982 C.ar    1  UNL1        0.0000
     23 C         -11.7394   -5.4151   16.4918 C.ar    1  UNL1        0.0008
     24 C         -15.6985   -7.4845   18.3940 C.ar    1  UNL1        0.0008
     25 C         -16.5552   -7.7336   17.1883 C.ar    1  UNL1        0.0000
     26 C         -17.7304   -8.6611   17.2819 C.ar    1  UNL1        0.0000
     27 C         -18.0488   -9.3395   18.5813 C.ar    1  UNL1        0.0000
     28 C         -17.1920   -9.0904   19.7871 C.ar    1  UNL1        0.0000
     29 C         -16.0169   -8.1630   19.6935 C.ar    1  UNL1        0.0000
@<TRIPOS>BOND
     1    14    15    1
     2    15    13    1
     3    13    16    1
     4    16    17    1
     5    13    12    1
     6    12    11    1
     7    11    10    1
     8    10     4    1
     9     4     5   ar
    10     5     6   ar
    11     6     7   ar
    12     7     1    1
    13     1     2    2
    14     2     3    1
    15     2    18    1
    16    18    19   ar
    17    19    20   ar
    18    20    21   ar
    19    21    22   ar
    20    22    23   ar
    21     1    24    1
    22    24    25   ar
    23    25    26   ar
    24    26    27   ar
    25    27    28   ar
    26    28    29   ar
    27     7     8   ar
    28     8     9   ar
    29     9     4   ar
    30    23    18   ar
    31    29    24   ar
@<TRIPOS>MOLECULE
*****
 29 31 0 0 0
SMALL
GASTEIGER

@<TRIPOS>ATOM
      1 C         -10.5496  -18.4813   22.9960 C.2     1  UNL1        0.0106
      2 C         -10.2017  -19.5738   22.0289 C.2     1  UNL1        0.0576
      3 CL        -11.2500  -20.5568   21.5990 Cl      1  UNL1       -0.0822
      4 C          -7.4047  -15.5324   24.2859 C.ar    1  UNL1        0.1386
      5 C          -8.0617  -16.4202   25.3008 C.ar    1  UNL1        0.0369
      6 C          -9.1100  -17.4032   24.8709 C.ar    1  UNL1        0.0031
      7 C          -9.5013  -17.4983   23.4260 C.ar    1  UNL1        0.0010
      8 C          -8.8443  -16.6105   22.4110 C.ar    1  UNL1        0.0031
      9 C          -7.7960  -15.6275   22.8410 C.ar    1  UNL1        0.0369
     10 O          -6.3565  -14.5494   24.7159 O.3     1  UNL1       -0.4740
     11 C          -4.9049  -14.8571   24.4965 C.3     1  UNL1        0.2226
     12 C          -4.3896  -15.0920   23.1075 C.3     1  UNL1        0.1200
     13 N          -3.6268  -16.3447   22.7925 N.3     1  UNL1       -0.2696
     14 C          -3.3888  -18.9276   22.9396 C.3     1  UNL1        0.0188
     15 C          -4.1919  -17.6819   23.1700 C.3     1  UNL1        0.0722
     16 C          -2.2989  -16.2600   22.0999 C.3     1  UNL1        0.0722
     17 C          -2.1572  -16.7459   20.6879 C.3     1  UNL1        0.0188
     18 C          -8.8054  -19.6835   21.4918 C.ar    1  UNL1        0.0106
     19 C          -7.6993  -20.1811   22.3744 C.ar    1  UNL1        0.0008
     20 C          -6.3031  -20.2908   21.8373 C.ar    1  UNL1        0.0000
     21 C          -6.0129  -19.9028   20.4177 C.ar    1  UNL1        0.0000
     22 C          -7.1190  -19.4051   19.5351 C.ar    1  UNL1        0.0000
     23 C          -8.5153  -19.2955   20.0722 C.ar    1  UNL1        0.0008
     24 C         -11.9459  -18.3716   23.5330 C.ar    1  UNL1        0.0008
     25 C         -13.0369  -17.8026   22.6752 C.ar    1  UNL1        0.0000
     26 C         -14.4332  -17.6930   23.2124 C.ar    1  UNL1        0.0000
     27 C         -14.7384  -18.1525   24.6072 C.ar    1  UNL1        0.0000
     28 C         -13.6474  -18.7215   25.4650 C.ar    1  UNL1        0.0000
     29 C         -12.2511  -18.8311   24.9280 C.ar    1  UNL1        0.0000
@<TRIPOS>BOND
     1    14    15    1
     2    15    13    1
     3    13    16    1
     4    16    17    1
     5    13    12    1
     6    12    11    1
     7    11    10    1
     8    10     4    1
     9     4     5   ar
    10     5     6   ar
    11     6     7   ar
    12     7     1    1
    13     1     2    2
    14     2     3    1
    15     2    18    1
    16    18    19   ar
    17    19    20   ar
    18    20    21   ar
    19    21    22   ar
    20    22    23   ar
    21     1    24    1
    22    24    25   ar
    23    25    26   ar
    24    26    27   ar
    25    27    28   ar
    26    28    29   ar
    27     7     8   ar
    28     8     9   ar
    29     9     4   ar
    30    23    18   ar
    31    29    24   ar
@<TRIPOS>MOLECULE
*****
 29 31 0 0 0
SMALL
GASTEIGER

@<TRIPOS>ATOM
      1 C         -14.5627   -6.5478   18.3725 C.2     1  UNL1        0.0106
      2 C         -13.2173   -7.0025   17.8896 C.2     1  UNL1        0.0576
      3 CL        -13.0152   -8.4265   17.4638 Cl      1  UNL1       -0.0822
      4 C         -15.1690   -2.2757   19.6498 C.ar    1  UNL1        0.1386
      5 C         -14.5295   -3.2556   20.5883 C.ar    1  UNL1        0.0369
      6 C         -14.3273   -4.6796   20.1625 C.ar    1  UNL1        0.0031
      7 C         -14.7648   -5.1238   18.7983 C.ar    1  UNL1        0.0010
      8 C         -15.4043   -4.1440   17.8598 C.ar    1  UNL1        0.0031
      9 C         -15.6065   -2.7199   18.2855 C.ar    1  UNL1        0.0369
     10 O         -15.3711   -0.8517   20.0755 O.3     1  UNL1       -0.4740
     11 C         -15.4004    0.2412   19.0486 C.3     1  UNL1        0.2226
     12 C         -14.1379    0.9675   18.6901 C.3     1  UNL1        0.1200
     13 N         -13.3385    0.5374   17.4958 N.3     1  UNL1       -0.2696
     14 C         -12.8635    2.8543   16.4206 C.3     1  UNL1        0.0188
     15 C         -13.2701    1.4171   16.2828 C.3     1  UNL1        0.0722
     16 C         -12.6076   -0.7722   17.5147 C.3     1  UNL1        0.0722
     17 C         -11.8049   -1.1659   18.7192 C.3     1  UNL1        0.0188
     18 C         -12.0740   -6.0331   17.8323 C.ar    1  UNL1        0.0106
     19 C         -11.8887   -5.1624   16.6250 C.ar    1  UNL1        0.0008
     20 C         -10.7454   -4.1931   16.5678 C.ar    1  UNL1        0.0000
     21 C          -9.7875   -4.0944   17.7179 C.ar    1  UNL1        0.0000
     22 C          -9.9728   -4.9650   18.9252 C.ar    1  UNL1        0.0000
     23 C         -11.1161   -5.9344   18.9824 C.ar    1  UNL1        0.0008
     24 C         -15.7059   -7.5172   18.4297 C.ar    1  UNL1        0.0008
     25 C         -16.5812   -7.7163   17.2280 C.ar    1  UNL1        0.0000
     26 C         -17.7245   -8.6858   17.2852 C.ar    1  UNL1        0.0000
     27 C         -17.9924   -9.4560   18.5441 C.ar    1  UNL1        0.0000
     28 C         -17.1170   -9.2569   19.7458 C.ar    1  UNL1        0.0000
     29 C         -15.9738   -8.2875   19.6887 C.ar    1  UNL1        0.0000
@<TRIPOS>BOND
     1    14    15    1
     2    15    13    1
     3    13    16    1
     4    16    17    1
     5    13    12    1
     6    12    11    1
     7    11    10    1
     8    10     4    1
     9     4     5   ar
    10     5     6   ar
    11     6     7   ar
    12     7     1    1
    13     1     2    2
    14     2     3    1
    15     2    18    1
    16    18    19   ar
    17    19    20   ar
    18    20    21   ar
    19    21    22   ar
    20    22    23   ar
    21     1    24    1
    22    24    25   ar
    23    25    26   ar
    24    26    27   ar
    25    27    28   ar
    26    28    29   ar
    27     7     8   ar
    28     8     9   ar
    29     9     4   ar
    30    23    18   ar
    31    29    24   ar
@<TRIPOS>MOLECULE
*****
 29 31 0 0 0
SMALL
GASTEIGER

@<TRIPOS>ATOM
      1 C          -5.1583  -16.9399   23.8398 C.2     1  UNL1        0.0106
      2 C          -4.9661  -16.6904   25.3063 C.2     1  UNL1        0.0576
      3 CL         -3.6352  -16.9576   25.9445 Cl      1  UNL1       -0.0822
      4 C          -9.1510  -16.1384   21.9253 C.ar    1  UNL1        0.1386
      5 C          -8.3835  -15.0155   22.5575 C.ar    1  UNL1        0.0369
      6 C          -7.0525  -15.2826   23.1957 C.ar    1  UNL1        0.0031
      7 C          -6.4892  -16.6728   23.2016 C.ar    1  UNL1        0.0010
      8 C          -7.2567  -17.7957   22.5694 C.ar    1  UNL1        0.0031
      9 C          -8.5877  -17.5286   21.9312 C.ar    1  UNL1        0.0369
     10 O         -10.4819  -15.8712   21.2871 O.3     1  UNL1       -0.4740
     11 C         -11.7464  -16.1595   22.0407 C.3     1  UNL1        0.2226
     12 C         -12.3612  -17.5263   21.9792 C.3     1  UNL1        0.1200
     13 N         -11.7411  -18.6623   22.7376 N.3     1  UNL1       -0.2696
     14 C         -10.3233  -18.8625   24.9055 C.3     1  UNL1        0.0188
     15 C         -11.6376  -18.5981   24.2326 C.3     1  UNL1        0.0722
     16 C         -11.2246  -19.8625   22.0009 C.3     1  UNL1        0.0722
     17 C         -10.9087  -19.7658   20.5377 C.3     1  UNL1        0.0188
     18 C          -6.1049  -16.1737   26.1348 C.ar    1  UNL1        0.0106
     19 C          -7.3670  -16.9749   26.2577 C.ar    1  UNL1        0.0008
     20 C          -8.5057  -16.4583   27.0860 C.ar    1  UNL1        0.0000
     21 C          -8.3824  -15.1402   27.7916 C.ar    1  UNL1        0.0000
     22 C          -7.1203  -14.3390   27.6687 C.ar    1  UNL1        0.0000
     23 C          -5.9815  -14.8557   26.8403 C.ar    1  UNL1        0.0008
     24 C          -4.0195  -17.4566   23.0115 C.ar    1  UNL1        0.0008
     25 C          -3.8951  -18.9269   22.7415 C.ar    1  UNL1        0.0000
     26 C          -2.7563  -19.4436   21.9131 C.ar    1  UNL1        0.0000
     27 C          -1.7419  -18.4901   21.3547 C.ar    1  UNL1        0.0000
     28 C          -1.8664  -17.0198   21.6247 C.ar    1  UNL1        0.0000
     29 C          -3.0051  -16.5031   22.4530 C.ar    1  UNL1        0.0000
@<TRIPOS>BOND
     1    14    15    1
     2    15    13    1
     3    13    16    1
     4    16    17    1
     5    13    12    1
     6    12    11    1
     7    11    10    1
     8    10     4    1
     9     4     5   ar
    10     5     6   ar
    11     6     7   ar
    12     7     1    1
    13     1     2    2
    14     2     3    1
    15     2    18    1
    16    18    19   ar
    17    19    20   ar
    18    20    21   ar
    19    21    22   ar
    20    22    23   ar
    21     1    24    1
    22    24    25   ar
    23    25    26   ar
    24    26    27   ar
    25    27    28   ar
    26    28    29   ar
    27     7     8   ar
    28     8     9   ar
    29     9     4   ar
    30    23    18   ar
    31    29    24   ar
@<TRIPOS>MOLECULE
*****
 29 31 0 0 0
SMALL
GASTEIGER

@<TRIPOS>ATOM
      1 C         -14.3928   -6.1957   18.1333 C.2     1  UNL1        0.0106
      2 C         -13.0983   -6.8357   17.7275 C.2     1  UNL1        0.0576
      3 CL        -13.0400   -8.3123   17.4700 Cl      1  UNL1       -0.0822
      4 C         -14.5676   -1.7660   18.9060 C.ar    1  UNL1        0.1386
      5 C         -14.9032   -2.3040   17.5467 C.ar    1  UNL1        0.0369
      6 C         -14.8449   -3.7806   17.2891 C.ar    1  UNL1        0.0031
      7 C         -14.4510   -4.7191   18.3909 C.ar    1  UNL1        0.0010
      8 C         -14.1154   -4.1811   19.7502 C.ar    1  UNL1        0.0031
      9 C         -14.1737   -2.7046   20.0078 C.ar    1  UNL1        0.0369
     10 O         -14.6259   -0.2894   19.1636 O.3     1  UNL1       -0.4740
     11 C         -15.9455    0.3754   19.4217 C.3     1  UNL1        0.2226
     12 C         -16.9811   -0.3136   20.2600 C.3     1  UNL1        0.1200
     13 N         -18.0487   -1.1389   19.6049 N.3     1  UNL1       -0.2696
     14 C         -18.3758   -1.2625   17.0304 C.3     1  UNL1        0.0188
     15 C         -18.7162   -0.6465   18.3551 C.3     1  UNL1        0.0722
     16 C         -18.4488   -2.4566   20.1995 C.3     1  UNL1        0.0722
     17 C         -17.8120   -3.7240   19.7114 C.3     1  UNL1        0.0188
     18 C         -11.8620   -5.9992   17.5794 C.ar    1  UNL1        0.0106
     19 C         -10.9495   -5.7952   18.7523 C.ar    1  UNL1        0.0008
     20 C          -9.7133   -4.9587   18.6042 C.ar    1  UNL1        0.0000
     21 C          -9.3895   -4.3262   17.2831 C.ar    1  UNL1        0.0000
     22 C         -10.3020   -4.5301   16.1102 C.ar    1  UNL1        0.0000
     23 C         -11.5383   -5.3667   16.2584 C.ar    1  UNL1        0.0008
     24 C         -15.6289   -7.0322   18.2814 C.ar    1  UNL1        0.0008
     25 C         -15.9979   -7.5944   19.6222 C.ar    1  UNL1        0.0000
     26 C         -17.2342   -8.4310   19.7703 C.ar    1  UNL1        0.0000
     27 C         -18.1014   -8.7054   18.5776 C.ar    1  UNL1        0.0000
     28 C         -17.7324   -8.1432   17.2368 C.ar    1  UNL1        0.0000
     29 C         -16.4963   -7.3066   17.0887 C.ar    1  UNL1        0.0000
@<TRIPOS>BOND
     1    14    15    1
     2    15    13    1
     3    13    16    1
     4    16    17    1
     5    13    12    1
     6    12    11    1
     7    11    10    1
     8    10     4    1
     9     4     5   ar
    10     5     6   ar
    11     6     7   ar
    12     7     1    1
    13     1     2    2
    14     2     3    1
    15     2    18    1
    16    18    19   ar
    17    19    20   ar
    18    20    21   ar
    19    21    22   ar
    20    22    23   ar
    21     1    24    1
    22    24    25   ar
    23    25    26   ar
    24    26    27   ar
    25    27    28   ar
    26    28    29   ar
    27     7     8   ar
    28     8     9   ar
    29     9     4   ar
    30    23    18   ar
    31    29    24   ar
@<TRIPOS>MOLECULE
*****
 29 31 0 0 0
SMALL
GASTEIGER

@<TRIPOS>ATOM
      1 C           4.1953    1.4050   37.2146 C.2     1  UNL1        0.0106
      2 C           5.4940    1.8637   37.8087 C.2     1  UNL1        0.0576
      3 CL          5.5174    2.4778   39.1770 Cl      1  UNL1       -0.0822
      4 C           4.1252   -0.4375   33.1097 C.ar    1  UNL1        0.1386
      5 C           4.5920   -1.2433   34.2856 C.ar    1  UNL1        0.0369
      6 C           4.6154   -0.6291   35.6539 C.ar    1  UNL1        0.0031
      7 C           4.1720    0.7908   35.8463 C.ar    1  UNL1        0.0010
      8 C           3.7052    1.5966   34.6704 C.ar    1  UNL1        0.0031
      9 C           3.6818    0.9824   33.3021 C.ar    1  UNL1        0.0369
     10 O           4.1019   -1.0517   31.7414 O.3     1  UNL1       -0.4740
     11 C           3.4601   -0.3184   30.6011 C.3     1  UNL1        0.2226
     12 C           2.0429   -0.6237   30.2158 C.3     1  UNL1        0.1200
     13 N           1.1549    0.4682   29.6969 N.3     1  UNL1       -0.2696
     14 C           0.5491    2.1959   31.5402 C.3     1  UNL1        0.0188
     15 C           1.2591    1.8528   30.2642 C.3     1  UNL1        0.0722
     16 C           0.1628    0.1755   28.6106 C.3     1  UNL1        0.0722
     17 C          -1.1549   -0.4566   28.9488 C.3     1  UNL1        0.0188
     18 C           6.7694    1.7082   37.0346 C.ar    1  UNL1        0.0106
     19 C           7.6512    0.5184   37.2730 C.ar    1  UNL1        0.0008
     20 C           8.9265    0.3629   36.4989 C.ar    1  UNL1        0.0000
     21 C           9.3201    1.3972   35.4863 C.ar    1  UNL1        0.0000
     22 C           8.4383    2.5870   35.2478 C.ar    1  UNL1        0.0000
     23 C           7.1629    2.7425   36.0220 C.ar    1  UNL1        0.0008
     24 C           2.9200    1.5605   37.9888 C.ar    1  UNL1        0.0008
     25 C           2.4154    0.4313   38.8374 C.ar    1  UNL1        0.0000
     26 C           1.1400    0.5868   39.6116 C.ar    1  UNL1        0.0000
     27 C           0.3694    1.8715   39.5372 C.ar    1  UNL1        0.0000
     28 C           0.8740    3.0007   38.6885 C.ar    1  UNL1        0.0000
     29 C           2.1493    2.8452   37.9143 C.ar    1  UNL1        0.0000
@<TRIPOS>BOND
     1    14    15    1
     2    15    13    1
     3    13    16    1
     4    16    17    1
     5    13    12    1
     6    12    11    1
     7    11    10    1
     8    10     4    1
     9     4     5   ar
    10     5     6   ar
    11     6     7   ar
    12     7     1    1
    13     1     2    2
    14     2     3    1
    15     2    18    1
    16    18    19   ar
    17    19    20   ar
    18    20    21   ar
    19    21    22   ar
    20    22    23   ar
    21     1    24    1
    22    24    25   ar
    23    25    26   ar
    24    26    27   ar
    25    27    28   ar
    26    28    29   ar
    27     7     8   ar
    28     8     9   ar
    29     9     4   ar
    30    23    18   ar
    31    29    24   ar
@<TRIPOS>MOLECULE
*****
 29 31 0 0 0
SMALL
GASTEIGER

@<TRIPOS>ATOM
      1 C           3.3535   -0.6341   19.5936 C.2     1  UNL1        0.0106
      2 C           3.0842    0.0907   18.3083 C.2     1  UNL1        0.0576
      3 CL          3.4636   -0.5367   16.9997 Cl      1  UNL1       -0.0822
      4 C           2.2151    1.2482   23.5193 C.ar    1  UNL1        0.1386
      5 C           1.1871    0.5072   22.7168 C.ar    1  UNL1        0.0369
      6 C           1.5666   -0.1203   21.4082 C.ar    1  UNL1        0.0031
      7 C           2.9741   -0.0067   20.9022 C.ar    1  UNL1        0.0010
      8 C           4.0020    0.7344   21.7047 C.ar    1  UNL1        0.0031
      9 C           3.6226    1.3618   23.0133 C.ar    1  UNL1        0.0369
     10 O           1.8356    1.8756   24.8279 O.3     1  UNL1       -0.4740
     11 C           0.6235    1.3925   25.5677 C.3     1  UNL1        0.2226
     12 C           0.2940    1.9577   26.9175 C.3     1  UNL1        0.1200
     13 N           0.6030    1.1701   28.1562 N.3     1  UNL1       -0.2696
     14 C           2.4689   -0.6272   28.3509 C.3     1  UNL1        0.0188
     15 C           2.0210    0.7989   28.4747 C.3     1  UNL1        0.0722
     16 C          -0.5060    0.7536   29.0762 C.3     1  UNL1        0.0722
     17 C          -1.3159   -0.4710   28.7686 C.3     1  UNL1        0.0188
     18 C           2.4353    1.4429   18.3315 C.ar    1  UNL1        0.0106
     19 C           3.2816    2.6800   18.3894 C.ar    1  UNL1        0.0008
     20 C           2.6328    4.0322   18.4126 C.ar    1  UNL1        0.0000
     21 C           1.1376    4.1474   18.3778 C.ar    1  UNL1        0.0000
     22 C           0.2913    2.9103   18.3199 C.ar    1  UNL1        0.0000
     23 C           0.9401    1.5580   18.2967 C.ar    1  UNL1        0.0008
     24 C           4.0024   -1.9862   19.5704 C.ar    1  UNL1        0.0008
     25 C           3.1688   -3.2146   19.3551 C.ar    1  UNL1        0.0000
     26 C           3.8177   -4.5668   19.3318 C.ar    1  UNL1        0.0000
     27 C           5.3002   -4.6906   19.5239 C.ar    1  UNL1        0.0000
     28 C           6.1338   -3.4623   19.7392 C.ar    1  UNL1        0.0000
     29 C           5.4849   -2.1101   19.7624 C.ar    1  UNL1        0.0000
@<TRIPOS>BOND
     1    14    15    1
     2    15    13    1
     3    13    16    1
     4    16    17    1
     5    13    12    1
     6    12    11    1
     7    11    10    1
     8    10     4    1
     9     4     5   ar
    10     5     6   ar
    11     6     7   ar
    12     7     1    1
    13     1     2    2
    14     2     3    1
    15     2    18    1
    16    18    19   ar
    17    19    20   ar
    18    20    21   ar
    19    21    22   ar
    20    22    23   ar
    21     1    24    1
    22    24    25   ar
    23    25    26   ar
    24    26    27   ar
    25    27    28   ar
    26    28    29   ar
    27     7     8   ar
    28     8     9   ar
    29     9     4   ar
    30    23    18   ar
    31    29    24   ar
@<TRIPOS>MOLECULE
*****
 29 31 0 0 0
SMALL
GASTEIGER

@<TRIPOS>ATOM
      1 C           3.3245   -0.6079   19.6166 C.2     1  UNL1        0.0106
      2 C           3.0826    0.1070   18.3204 C.2     1  UNL1        0.0576
      3 CL          3.4976   -0.5266   17.0256 Cl      1  UNL1       -0.0822
      4 C           2.0797    1.2929   23.5009 C.ar    1  UNL1        0.1386
      5 C           3.4930    1.4303   23.0177 C.ar    1  UNL1        0.0369
      6 C           3.9080    0.7967   21.7230 C.ar    1  UNL1        0.0031
      7 C           2.9096    0.0257   20.9114 C.ar    1  UNL1        0.0010
      8 C           1.4962   -0.1116   21.3945 C.ar    1  UNL1        0.0031
      9 C           1.0813    0.5220   22.6893 C.ar    1  UNL1        0.0369
     10 O           1.6647    1.9265   24.7956 O.3     1  UNL1       -0.4740
     11 C           0.4295    1.4510   25.5013 C.3     1  UNL1        0.2226
     12 C           0.1443    1.9051   26.9022 C.3     1  UNL1        0.1200
     13 N           0.6287    1.0934   28.0670 N.3     1  UNL1       -0.2696
     14 C          -1.3275   -0.4620   28.7766 C.3     1  UNL1        0.0188
     15 C          -0.3429    0.6202   29.1072 C.3     1  UNL1        0.0722
     16 C           2.0847    0.7549   28.1915 C.3     1  UNL1        0.0722
     17 C           2.5067   -0.6635   28.4367 C.3     1  UNL1        0.0188
     18 C           2.4258    1.4556   18.3188 C.ar    1  UNL1        0.0106
     19 C           0.9297    1.5611   18.2948 C.ar    1  UNL1        0.0008
     20 C           0.2728    2.9096   18.2933 C.ar    1  UNL1        0.0000
     21 C           1.1121    4.1527   18.3156 C.ar    1  UNL1        0.0000
     22 C           2.6082    4.0472   18.3396 C.ar    1  UNL1        0.0000
     23 C           3.2650    2.6986   18.3412 C.ar    1  UNL1        0.0008
     24 C           3.9813   -1.9564   19.6182 C.ar    1  UNL1        0.0008
     25 C           5.4504   -2.0748   19.8971 C.ar    1  UNL1        0.0000
     26 C           6.1072   -3.4234   19.8986 C.ar    1  UNL1        0.0000
     27 C           5.2950   -4.6535   19.6212 C.ar    1  UNL1        0.0000
     28 C           3.8259   -4.5351   19.3423 C.ar    1  UNL1        0.0000
     29 C           3.1691   -3.1866   19.3408 C.ar    1  UNL1        0.0000
@<TRIPOS>BOND
     1    14    15    1
     2    15    13    1
     3    13    16    1
     4    16    17    1
     5    13    12    1
     6    12    11    1
     7    11    10    1
     8    10     4    1
     9     4     5   ar
    10     5     6   ar
    11     6     7   ar
    12     7     1    1
    13     1     2    2
    14     2     3    1
    15     2    18    1
    16    18    19   ar
    17    19    20   ar
    18    20    21   ar
    19    21    22   ar
    20    22    23   ar
    21     1    24    1
    22    24    25   ar
    23    25    26   ar
    24    26    27   ar
    25    27    28   ar
    26    28    29   ar
    27     7     8   ar
    28     8     9   ar
    29     9     4   ar
    30    23    18   ar
    31    29    24   ar
