@<TRIPOS>MOLECULE
*****
 28 28 0 0 0
SMALL
GASTEIGER

@<TRIPOS>ATOM
      1 C          -5.1778  -19.4107   21.0190 C.ar    1  UNL1        0.1529
      2 C          -6.5915  -19.7650   20.6643 C.ar    1  UNL1        0.0752
      3 C          -7.7323  -19.0433   21.3185 C.ar    1  UNL1        0.1529
      4 C          -7.4593  -17.9674   22.3274 C.ar    1  UNL1        0.0360
      5 C          -6.0456  -17.6131   22.6820 C.ar    1  UNL1        0.0117
      6 C          -4.9049  -18.3347   22.0279 C.ar    1  UNL1        0.0360
      7 C          -5.7726  -16.5371   23.6909 C.3     1  UNL1        0.1486
      8 O          -4.5653  -16.6282   24.5764 O.3     1  UNL1       -0.3786
      9 H          -4.0723  -17.4374   24.3687 H       1  UNL1        0.2108
     10 C          -6.7068  -15.3702   23.8143 C.3     1  UNL1        0.1027
     11 N          -6.9336  -14.7290   25.1513 N.3     1  UNL1       -0.2973
     12 H          -7.4663  -13.8757   24.9822 H       1  UNL1        0.1233
     13 C          -7.6526  -15.4813   26.2316 C.3     1  UNL1        0.0421
     14 C          -6.4818  -15.2840   27.1482 C.3     1  UNL1        0.0158
     15 C          -8.8234  -15.6786   25.3150 C.3     1  UNL1        0.0158
     16 C          -8.3716  -16.2336   27.3119 C.3     1  UNL1        0.0158
     17 O          -4.0371  -20.1323   20.3649 O.3     1  UNL1       -0.4100
     18 C          -0.6556  -18.0732   20.0894 C.3     1  UNL1        0.1184
     19 N          -2.0659  -18.5217   19.8447 N.am    1  UNL1       -0.2422
     20 C          -2.9153  -17.8082   18.8351 C.3     1  UNL1        0.1184
     21 C          -2.6268  -19.6838   20.6096 C.2     1  UNL1        0.4095
     22 O          -1.7773  -20.3973   21.6192 O.2     1  UNL1       -0.2258
     23 O          -9.1461  -19.3977   20.9638 O.3     1  UNL1       -0.4100
     24 C         -10.2260  -18.3612   21.0610 C.2     1  UNL1        0.4095
     25 O         -10.3809  -17.3356   19.9773 O.2     1  UNL1       -0.2258
     26 N         -11.1509  -18.3502   22.2418 N.am    1  UNL1       -0.2422
     27 C         -12.2308  -17.3137   22.3390 C.3     1  UNL1        0.1184
     28 C         -10.9959  -19.3758   23.3255 C.3     1  UNL1        0.1184
@<TRIPOS>BOND
     1    18    19    1
     2    19    20    1
     3    19    21   am
     4    21    22    2
     5    21    17    1
     6    17     1    1
     7     1     2   ar
     8     2     3   ar
     9     3    23    1
    10    23    24    1
    11    24    25    2
    12    24    26   am
    13    26    27    1
    14    26    28    1
    15     3     4   ar
    16     4     5   ar
    17     5     7    1
    18     7     8    1
    19     7    10    1
    20    10    11    1
    21    11    13    1
    22    13    14    1
    23    13    15    1
    24    13    16    1
    25     5     6   ar
    26     6     1   ar
    27     8     9    1
    28    11    12    1
@<TRIPOS>MOLECULE
*****
 28 28 0 0 0
SMALL
GASTEIGER

@<TRIPOS>ATOM
      1 C          -7.7592  -18.9283   21.4191 C.ar    1  UNL1        0.1529
      2 C          -6.6477  -19.6820   20.7508 C.ar    1  UNL1        0.0752
      3 C          -5.2202  -19.3688   21.0883 C.ar    1  UNL1        0.1529
      4 C          -4.9040  -18.3019   22.0941 C.ar    1  UNL1        0.0360
      5 C          -6.0154  -17.5482   22.7624 C.ar    1  UNL1        0.0117
      6 C          -7.4430  -17.8614   22.4249 C.ar    1  UNL1        0.0360
      7 C          -5.6993  -16.4812   23.7683 C.3     1  UNL1        0.1486
      8 O          -4.5167  -16.6350   24.6782 O.3     1  UNL1       -0.3786
      9 H          -4.0681  -17.4734   24.4865 H       1  UNL1        0.2108
     10 C          -6.5657  -15.2606   23.8643 C.3     1  UNL1        0.1027
     11 N          -6.9265  -14.7007   25.2084 N.3     1  UNL1       -0.2973
     12 H          -7.4919  -13.8689   25.0387 H       1  UNL1        0.1233
     13 C          -7.6807  -15.5433   26.1938 C.3     1  UNL1        0.0421
     14 C          -6.5652  -15.3839   27.1838 C.3     1  UNL1        0.0158
     15 C          -8.7962  -15.7028   25.2038 C.3     1  UNL1        0.0158
     16 C          -8.4349  -16.3859   27.1793 C.3     1  UNL1        0.0158
     17 O          -9.1867  -19.2415   21.0816 O.3     1  UNL1       -0.4100
     18 C         -12.2048  -17.1979   22.6518 C.3     1  UNL1        0.1184
     19 N         -11.1440  -18.2424   22.4676 N.am    1  UNL1       -0.2422
     20 C         -10.9797  -19.3322   23.4851 C.3     1  UNL1        0.1184
     21 C         -10.2475  -18.1971   21.2658 C.2     1  UNL1        0.4095
     22 O         -10.4118  -17.1073   20.2483 O.2     1  UNL1       -0.2258
     23 O          -4.1087  -20.1226   20.4199 O.3     1  UNL1       -0.4100
     24 C          -2.6850  -19.6970   20.6244 C.2     1  UNL1        0.4095
     25 O          -1.8300  -20.4002   21.6367 O.2     1  UNL1       -0.2258
     26 N          -2.1162  -18.5683   19.8167 N.am    1  UNL1       -0.2422
     27 C          -0.6924  -18.1428   20.0211 C.3     1  UNL1        0.1184
     28 C          -2.9711  -17.8651   18.8044 C.3     1  UNL1        0.1184
@<TRIPOS>BOND
     1    18    19    1
     2    19    20    1
     3    19    21   am
     4    21    22    2
     5    21    17    1
     6    17     1    1
     7     1     2   ar
     8     2     3   ar
     9     3    23    1
    10    23    24    1
    11    24    25    2
    12    24    26   am
    13    26    27    1
    14    26    28    1
    15     3     4   ar
    16     4     5   ar
    17     5     7    1
    18     7     8    1
    19     7    10    1
    20    10    11    1
    21    11    13    1
    22    13    14    1
    23    13    15    1
    24    13    16    1
    25     5     6   ar
    26     6     1   ar
    27     8     9    1
    28    11    12    1
@<TRIPOS>MOLECULE
*****
 28 28 0 0 0
SMALL
GASTEIGER

@<TRIPOS>ATOM
      1 C          -7.8704  -16.9277   22.9296 C.ar    1  UNL1        0.1529
      2 C          -7.0099  -18.0848   22.5166 C.ar    1  UNL1        0.0752
      3 C          -7.5695  -19.4765   22.5253 C.ar    1  UNL1        0.1529
      4 C          -8.9898  -19.7110   22.9470 C.ar    1  UNL1        0.0360
      5 C          -9.8503  -18.5540   23.3599 C.ar    1  UNL1        0.0117
      6 C          -9.2907  -17.1623   23.3512 C.ar    1  UNL1        0.0360
      7 C         -11.2707  -18.7885   23.7816 C.3     1  UNL1        0.1486
      8 O         -11.5631  -19.5366   25.0484 O.3     1  UNL1       -0.3786
      9 H         -10.7292  -19.7960   25.4706 H       1  UNL1        0.2108
     10 C         -12.3985  -18.2751   22.9364 C.3     1  UNL1        0.1027
     11 N         -12.3180  -18.3680   21.4414 N.3     1  UNL1       -0.2973
     12 H         -13.2575  -18.5848   21.1089 H       1  UNL1        0.1233
     13 C         -11.8358  -17.1940   20.6419 C.3     1  UNL1        0.0421
     14 C         -12.6222  -16.2703   21.5240 C.3     1  UNL1        0.0158
     15 C         -11.0494  -18.1178   19.7598 C.3     1  UNL1        0.0158
     16 C         -11.3536  -16.0200   19.8424 C.3     1  UNL1        0.0158
     17 O          -7.3108  -15.5361   22.9209 O.3     1  UNL1       -0.4100
     18 C          -5.1419  -14.8332   26.1693 C.3     1  UNL1        0.1184
     19 N          -6.3077  -15.1783   25.2906 N.am    1  UNL1       -0.2422
     20 C          -7.6360  -15.5106   25.9031 C.3     1  UNL1        0.1184
     21 C          -6.1451  -15.1910   23.7995 C.2     1  UNL1        0.4095
     22 O          -4.8167  -14.8586   23.1871 O.2     1  UNL1       -0.2258
     23 O          -6.7089  -20.6336   22.1123 O.3     1  UNL1       -0.4100
     24 C          -5.9096  -20.5590   20.8452 C.2     1  UNL1        0.4095
     25 O          -6.5115  -21.0194   19.5506 O.2     1  UNL1       -0.2258
     26 N          -4.5085  -20.0242   20.8726 N.am    1  UNL1       -0.2422
     27 C          -3.7092  -19.9497   19.6055 C.3     1  UNL1        0.1184
     28 C          -3.9066  -19.5639   22.1672 C.3     1  UNL1        0.1184
@<TRIPOS>BOND
     1    18    19    1
     2    19    20    1
     3    19    21   am
     4    21    22    2
     5    21    17    1
     6    17     1    1
     7     1     2   ar
     8     2     3   ar
     9     3    23    1
    10    23    24    1
    11    24    25    2
    12    24    26   am
    13    26    27    1
    14    26    28    1
    15     3     4   ar
    16     4     5   ar
    17     5     7    1
    18     7     8    1
    19     7    10    1
    20    10    11    1
    21    11    13    1
    22    13    14    1
    23    13    15    1
    24    13    16    1
    25     5     6   ar
    26     6     1   ar
    27     8     9    1
    28    11    12    1
@<TRIPOS>MOLECULE
*****
 28 28 0 0 0
SMALL
GASTEIGER

@<TRIPOS>ATOM
      1 C          -7.4555  -16.9366   22.6987 C.ar    1  UNL1        0.1529
      2 C          -6.1759  -17.7165   22.7653 C.ar    1  UNL1        0.0752
      3 C          -6.0746  -19.0508   22.0875 C.ar    1  UNL1        0.1529
      4 C          -7.2529  -19.6052   21.3431 C.ar    1  UNL1        0.0360
      5 C          -8.5325  -18.8254   21.2765 C.ar    1  UNL1        0.0117
      6 C          -8.6338  -17.4911   21.9543 C.ar    1  UNL1        0.0360
      7 C          -9.7108  -19.3799   20.5320 C.3     1  UNL1        0.1486
      8 O          -9.5428  -19.8813   19.1283 O.3     1  UNL1       -0.3786
      9 H          -8.6179  -19.7756   18.8558 H       1  UNL1        0.2108
     10 C         -11.0571  -19.4329   21.1913 C.3     1  UNL1        0.1027
     11 N         -12.0931  -18.3981   20.8654 N.3     1  UNL1       -0.2973
     12 H         -12.9994  -18.8635   20.9136 H       1  UNL1        0.1233
     13 C         -12.1996  -17.1552   21.6983 C.3     1  UNL1        0.0421
     14 C         -11.9418  -16.3174   20.4811 C.3     1  UNL1        0.0158
     15 C         -12.4575  -17.9930   22.9155 C.3     1  UNL1        0.0158
     16 C         -12.3062  -15.9123   22.5312 C.3     1  UNL1        0.0158
     17 O          -7.5568  -15.6024   23.3765 O.3     1  UNL1       -0.4100
     18 C          -6.4801  -15.3755   27.1895 C.3     1  UNL1        0.1184
     19 N          -7.2931  -15.6562   25.9605 N.am    1  UNL1       -0.2422
     20 C          -8.6554  -16.2712   26.0868 C.3     1  UNL1        0.1184
     21 C          -6.7439  -15.3217   24.6054 C.2     1  UNL1        0.4095
     22 O          -5.3816  -14.7066   24.4792 O.2     1  UNL1       -0.2258
     23 O          -4.7949  -19.8306   22.1542 O.3     1  UNL1       -0.4100
     24 C          -3.7754  -19.6936   21.0625 C.2     1  UNL1        0.4095
     25 O          -3.9295  -20.4733   19.7903 O.2     1  UNL1       -0.2258
     26 N          -2.6019  -18.7769   21.2429 N.am    1  UNL1       -0.2422
     27 C          -1.5824  -18.6399   20.1512 C.3     1  UNL1        0.1184
     28 C          -2.4479  -17.9972   22.5151 C.3     1  UNL1        0.1184
@<TRIPOS>BOND
     1    18    19    1
     2    19    20    1
     3    19    21   am
     4    21    22    2
     5    21    17    1
     6    17     1    1
     7     1     2   ar
     8     2     3   ar
     9     3    23    1
    10    23    24    1
    11    24    25    2
    12    24    26   am
    13    26    27    1
    14    26    28    1
    15     3     4   ar
    16     4     5   ar
    17     5     7    1
    18     7     8    1
    19     7    10    1
    20    10    11    1
    21    11    13    1
    22    13    14    1
    23    13    15    1
    24    13    16    1
    25     5     6   ar
    26     6     1   ar
    27     8     9    1
    28    11    12    1
@<TRIPOS>MOLECULE
*****
 28 28 0 0 0
SMALL
GASTEIGER

@<TRIPOS>ATOM
      1 C          -6.3793  -16.5830   23.2990 C.ar    1  UNL1        0.1529
      2 C          -7.3753  -17.5238   22.6884 C.ar    1  UNL1        0.0752
      3 C          -6.9095  -18.7993   22.0512 C.ar    1  UNL1        0.1529
      4 C          -5.4476  -19.1340   22.0245 C.ar    1  UNL1        0.0360
      5 C          -4.4515  -18.1932   22.6351 C.ar    1  UNL1        0.0117
      6 C          -4.9174  -16.9178   23.2723 C.ar    1  UNL1        0.0360
      7 C          -2.9895  -18.5279   22.6084 C.3     1  UNL1        0.1486
      8 O          -2.0163  -17.7003   23.3944 O.3     1  UNL1       -0.3786
      9 H          -2.4931  -16.9950   23.8592 H       1  UNL1        0.2108
     10 C          -2.5009  -19.6902   21.7959 C.3     1  UNL1        0.1027
     11 N          -1.5156  -19.4685   20.6867 N.3     1  UNL1       -0.2973
     12 H          -1.3787  -20.3701   20.2299 H       1  UNL1        0.1233
     13 C          -1.8167  -18.4756   19.6034 C.3     1  UNL1        0.0421
     14 C          -0.5648  -17.7233   19.9451 C.3     1  UNL1        0.0158
     15 C          -3.0685  -19.2279   19.2618 C.3     1  UNL1        0.0158
     16 C          -2.1177  -17.4827   18.5202 C.3     1  UNL1        0.0158
     17 O          -6.8452  -15.3076   23.9362 O.3     1  UNL1       -0.4100
     18 C          -8.3979  -15.4150   27.5869 C.3     1  UNL1        0.1184
     19 N          -7.3915  -15.3741   26.4753 N.am    1  UNL1       -0.2422
     20 C          -5.9253  -15.3590   26.7912 C.3     1  UNL1        0.1184
     21 C          -7.8515  -15.3484   25.0478 C.2     1  UNL1        0.4095
     22 O          -9.3178  -15.3636   24.7319 O.2     1  UNL1       -0.2258
     23 O          -7.9056  -19.7401   21.4406 O.3     1  UNL1       -0.4100
     24 C          -9.1953  -19.2110   20.8869 C.2     1  UNL1        0.4095
     25 O          -9.2398  -18.6471   19.4976 O.2     1  UNL1       -0.2258
     26 N         -10.4405  -19.2458   21.7225 N.am    1  UNL1       -0.2422
     27 C         -11.7303  -18.7167   21.1688 C.3     1  UNL1        0.1184
     28 C         -10.3960  -19.8097   23.1118 C.3     1  UNL1        0.1184
@<TRIPOS>BOND
     1    18    19    1
     2    19    20    1
     3    19    21   am
     4    21    22    2
     5    21    17    1
     6    17     1    1
     7     1     2   ar
     8     2     3   ar
     9     3    23    1
    10    23    24    1
    11    24    25    2
    12    24    26   am
    13    26    27    1
    14    26    28    1
    15     3     4   ar
    16     4     5   ar
    17     5     7    1
    18     7     8    1
    19     7    10    1
    20    10    11    1
    21    11    13    1
    22    13    14    1
    23    13    15    1
    24    13    16    1
    25     5     6   ar
    26     6     1   ar
    27     8     9    1
    28    11    12    1
@<TRIPOS>MOLECULE
*****
 28 28 0 0 0
SMALL
GASTEIGER

@<TRIPOS>ATOM
      1 C          -7.2495  -16.9121   22.7104 C.ar    1  UNL1        0.1529
      2 C          -5.9851  -17.7189   22.7297 C.ar    1  UNL1        0.0752
      3 C          -5.9355  -19.0519   22.0437 C.ar    1  UNL1        0.1529
      4 C          -7.1502  -19.5782   21.3385 C.ar    1  UNL1        0.0360
      5 C          -8.4146  -18.7715   21.3193 C.ar    1  UNL1        0.0117
      6 C          -8.4642  -17.4384   22.0052 C.ar    1  UNL1        0.0360
      7 C          -9.6294  -19.2978   20.6140 C.3     1  UNL1        0.1486
      8 O          -9.5572  -19.6510   19.1580 O.3     1  UNL1       -0.3786
      9 H          -8.6610  -19.4810   18.8281 H       1  UNL1        0.2108
     10 C         -10.9164  -19.4708   21.3649 C.3     1  UNL1        0.1027
     11 N         -10.9356  -20.2383   22.6535 N.3     1  UNL1       -0.2973
     12 H         -10.2940  -21.0229   22.5386 H       1  UNL1        0.1233
     13 C         -10.5621  -19.5581   23.9372 C.3     1  UNL1        0.0421
     14 C          -9.4955  -20.5864   24.1718 C.3     1  UNL1        0.0158
     15 C         -11.6287  -18.5299   23.7026 C.3     1  UNL1        0.0158
     16 C         -10.1887  -18.8779   25.2209 C.3     1  UNL1        0.0158
     17 O          -7.2991  -15.5791   23.3963 O.3     1  UNL1       -0.4100
     18 C          -7.2555  -15.3496   27.3581 C.3     1  UNL1        0.1184
     19 N          -6.7802  -15.4455   25.9385 N.am    1  UNL1       -0.2422
     20 C          -5.3111  -15.5035   25.6417 C.3     1  UNL1        0.1184
     21 C          -7.7743  -15.4832   24.8158 C.2     1  UNL1        0.4095
     22 O          -9.2435  -15.4252   25.1126 O.2     1  UNL1       -0.2258
     23 O          -4.6710  -19.8587   22.0630 O.3     1  UNL1       -0.4100
     24 C          -3.6578  -19.6913   20.9696 C.2     1  UNL1        0.4095
     25 O          -3.8325  -20.4161   19.6679 O.2     1  UNL1       -0.2258
     26 N          -2.4700  -18.7993   21.1779 N.am    1  UNL1       -0.2422
     27 C          -1.4569  -18.6319   20.0845 C.3     1  UNL1        0.1184
     28 C          -2.2954  -18.0746   22.4796 C.3     1  UNL1        0.1184
@<TRIPOS>BOND
     1    18    19    1
     2    19    20    1
     3    19    21   am
     4    21    22    2
     5    21    17    1
     6    17     1    1
     7     1     2   ar
     8     2     3   ar
     9     3    23    1
    10    23    24    1
    11    24    25    2
    12    24    26   am
    13    26    27    1
    14    26    28    1
    15     3     4   ar
    16     4     5   ar
    17     5     7    1
    18     7     8    1
    19     7    10    1
    20    10    11    1
    21    11    13    1
    22    13    14    1
    23    13    15    1
    24    13    16    1
    25     5     6   ar
    26     6     1   ar
    27     8     9    1
    28    11    12    1
@<TRIPOS>MOLECULE
*****
 28 28 0 0 0
SMALL
GASTEIGER

@<TRIPOS>ATOM
      1 C          -9.3467  -18.2506   21.3994 C.ar    1  UNL1        0.1529
      2 C          -9.1299  -16.9351   22.0867 C.ar    1  UNL1        0.0752
      3 C          -7.7692  -16.5751   22.6055 C.ar    1  UNL1        0.1529
      4 C          -6.6254  -17.5307   22.4369 C.ar    1  UNL1        0.0360
      5 C          -6.8422  -18.8462   21.7496 C.ar    1  UNL1        0.0117
      6 C          -8.2028  -19.2061   21.2309 C.ar    1  UNL1        0.0360
      7 C          -5.6983  -19.8019   21.5810 C.3     1  UNL1        0.1486
      8 O          -5.8339  -20.9792   20.6615 O.3     1  UNL1       -0.3786
      9 H          -6.7161  -20.9746   20.2583 H       1  UNL1        0.2108
     10 C          -4.4189  -19.5802   22.3319 C.3     1  UNL1        0.1027
     11 N          -3.1673  -19.2153   21.5900 N.3     1  UNL1       -0.2973
     12 H          -3.3288  -19.4450   20.6094 H       1  UNL1        0.1233
     13 C          -2.6581  -17.8049   21.6262 C.3     1  UNL1        0.0421
     14 C          -2.4138  -17.8551   20.1471 C.3     1  UNL1        0.0158
     15 C          -2.9024  -17.7547   23.1053 C.3     1  UNL1        0.0158
     16 C          -2.1489  -16.3945   21.6624 C.3     1  UNL1        0.0158
     17 O         -10.7073  -18.6105   20.8807 O.3     1  UNL1       -0.4100
     18 C         -13.4810  -17.9207   23.6341 C.3     1  UNL1        0.1184
     19 N         -12.2545  -18.4639   22.9627 N.am    1  UNL1       -0.2422
     20 C         -11.3488  -19.4036   23.7020 C.3     1  UNL1        0.1184
     21 C         -11.9338  -18.0673   21.5521 C.2     1  UNL1        0.4095
     22 O         -12.8396  -17.1276   20.8128 O.2     1  UNL1       -0.2258
     23 O          -7.5525  -15.2596   23.2928 O.3     1  UNL1       -0.4100
     24 C          -6.6704  -15.1823   24.5036 C.2     1  UNL1        0.4095
     25 O          -5.2192  -14.8336   24.3533 O.2     1  UNL1       -0.2258
     26 N          -7.2395  -15.4539   25.8646 N.am    1  UNL1       -0.2422
     27 C          -6.3574  -15.3767   27.0754 C.3     1  UNL1        0.1184
     28 C          -8.6907  -15.8027   26.0149 C.3     1  UNL1        0.1184
@<TRIPOS>BOND
     1    18    19    1
     2    19    20    1
     3    19    21   am
     4    21    22    2
     5    21    17    1
     6    17     1    1
     7     1     2   ar
     8     2     3   ar
     9     3    23    1
    10    23    24    1
    11    24    25    2
    12    24    26   am
    13    26    27    1
    14    26    28    1
    15     3     4   ar
    16     4     5   ar
    17     5     7    1
    18     7     8    1
    19     7    10    1
    20    10    11    1
    21    11    13    1
    22    13    14    1
    23    13    15    1
    24    13    16    1
    25     5     6   ar
    26     6     1   ar
    27     8     9    1
    28    11    12    1
@<TRIPOS>MOLECULE
*****
 28 28 0 0 0
SMALL
GASTEIGER

@<TRIPOS>ATOM
      1 C          -7.7186  -16.7315   22.6100 C.ar    1  UNL1        0.1529
      2 C          -9.0865  -17.1964   22.2067 C.ar    1  UNL1        0.0752
      3 C          -9.2632  -18.5422   21.5683 C.ar    1  UNL1        0.1529
      4 C          -8.0720  -19.4230   21.3331 C.ar    1  UNL1        0.0360
      5 C          -6.7042  -18.9580   21.7364 C.ar    1  UNL1        0.0117
      6 C          -6.5275  -17.6122   22.3748 C.ar    1  UNL1        0.0360
      7 C          -5.5129  -19.8388   21.5012 C.3     1  UNL1        0.1486
      8 O          -5.5796  -20.9327   20.4770 O.3     1  UNL1       -0.3786
      9 H          -6.4560  -20.9335   20.0613 H       1  UNL1        0.2108
     10 C          -4.2552  -19.6257   22.2902 C.3     1  UNL1        0.1027
     11 N          -2.9917  -19.2181   21.5919 N.3     1  UNL1       -0.2973
     12 H          -3.0995  -19.4795   20.6118 H       1  UNL1        0.1233
     13 C          -2.5531  -17.7838   21.6117 C.3     1  UNL1        0.0421
     14 C          -2.2871  -17.8447   20.1368 C.3     1  UNL1        0.0158
     15 C          -2.8191  -17.7228   23.0866 C.3     1  UNL1        0.0158
     16 C          -2.1145  -16.3495   21.6315 C.3     1  UNL1        0.0158
     17 O          -7.5419  -15.3857   23.2485 O.3     1  UNL1       -0.4100
     18 C          -6.3398  -15.3157   27.0301 C.3     1  UNL1        0.1184
     19 N          -7.2213  -15.4645   25.8255 N.am    1  UNL1       -0.2422
     20 C          -8.6636  -15.8407   25.9934 C.3     1  UNL1        0.1184
     21 C          -6.6605  -15.2369   24.4530 C.2     1  UNL1        0.4095
     22 O          -5.2181  -14.8606   24.2851 O.2     1  UNL1       -0.2258
     23 O         -10.6311  -19.0072   21.1650 O.3     1  UNL1       -0.4100
     24 C         -11.8479  -18.3191   21.7092 C.2     1  UNL1        0.4095
     25 O         -12.6743  -17.4404   20.8176 O.2     1  UNL1       -0.2258
     26 N         -12.2381  -18.5098   23.1449 N.am    1  UNL1       -0.2422
     27 C         -13.4548  -17.8218   23.6891 C.3     1  UNL1        0.1184
     28 C         -11.4117  -19.3886   24.0364 C.3     1  UNL1        0.1184
@<TRIPOS>BOND
     1    18    19    1
     2    19    20    1
     3    19    21   am
     4    21    22    2
     5    21    17    1
     6    17     1    1
     7     1     2   ar
     8     2     3   ar
     9     3    23    1
    10    23    24    1
    11    24    25    2
    12    24    26   am
    13    26    27    1
    14    26    28    1
    15     3     4   ar
    16     4     5   ar
    17     5     7    1
    18     7     8    1
    19     7    10    1
    20    10    11    1
    21    11    13    1
    22    13    14    1
    23    13    15    1
    24    13    16    1
    25     5     6   ar
    26     6     1   ar
    27     8     9    1
    28    11    12    1
@<TRIPOS>MOLECULE
*****
 28 28 0 0 0
SMALL
GASTEIGER

@<TRIPOS>ATOM
      1 C          -7.3306  -17.0827   22.9218 C.ar    1  UNL1        0.1529
      2 C          -8.7119  -17.6665   22.8860 C.ar    1  UNL1        0.0752
      3 C          -8.9476  -18.9958   22.2321 C.ar    1  UNL1        0.1529
      4 C          -7.8021  -19.7412   21.6140 C.ar    1  UNL1        0.0360
      5 C          -6.4208  -19.1574   21.6498 C.ar    1  UNL1        0.0117
      6 C          -6.1851  -17.8281   22.3037 C.ar    1  UNL1        0.0360
      7 C          -5.2752  -19.9028   21.0317 C.3     1  UNL1        0.1486
      8 O          -5.5278  -21.1741   20.2767 O.3     1  UNL1       -0.3786
      9 H          -6.4776  -21.3709   20.2834 H       1  UNL1        0.2108
     10 C          -3.8772  -19.3769   21.1686 C.3     1  UNL1        0.1027
     11 N          -3.3690  -18.3394   20.2117 N.3     1  UNL1       -0.2973
     12 H          -3.8296  -17.4627   20.4561 H       1  UNL1        0.1233
     13 C          -1.8997  -18.0488   20.1313 C.3     1  UNL1        0.0421
     14 C          -1.7635  -18.3319   21.5980 C.3     1  UNL1        0.0158
     15 C          -2.0359  -17.7657   18.6646 C.3     1  UNL1        0.0158
     16 C          -0.4303  -17.7582   20.0510 C.3     1  UNL1        0.0158
     17 O          -7.0949  -15.7535   23.5757 O.3     1  UNL1       -0.4100
     18 C          -6.9753  -15.2887   27.5152 C.3     1  UNL1        0.1184
     19 N          -6.5312  -15.5181   26.1009 N.am    1  UNL1       -0.2422
     20 C          -5.0793  -15.7415   25.7976 C.3     1  UNL1        0.1184
     21 C          -7.5390  -15.5241   24.9899 C.2     1  UNL1        0.4095
     22 O          -8.9910  -15.3006   25.2933 O.2     1  UNL1       -0.2258
     23 O         -10.3289  -19.5796   22.1963 O.3     1  UNL1       -0.4100
     24 C         -11.3532  -19.1446   23.2021 C.2     1  UNL1        0.4095
     25 O         -11.2493  -19.6054   24.6258 O.2     1  UNL1       -0.2258
     26 N         -12.4814  -18.2488   22.7842 N.am    1  UNL1       -0.2422
     27 C         -13.5058  -17.8138   23.7899 C.3     1  UNL1        0.1184
     28 C         -12.5853  -17.7879   21.3605 C.3     1  UNL1        0.1184
@<TRIPOS>BOND
     1    18    19    1
     2    19    20    1
     3    19    21   am
     4    21    22    2
     5    21    17    1
     6    17     1    1
     7     1     2   ar
     8     2     3   ar
     9     3    23    1
    10    23    24    1
    11    24    25    2
    12    24    26   am
    13    26    27    1
    14    26    28    1
    15     3     4   ar
    16     4     5   ar
    17     5     7    1
    18     7     8    1
    19     7    10    1
    20    10    11    1
    21    11    13    1
    22    13    14    1
    23    13    15    1
    24    13    16    1
    25     5     6   ar
    26     6     1   ar
    27     8     9    1
    28    11    12    1
