@<TRIPOS>MOLECULE
*****
 22 24 0 0 0
SMALL
GASTEIGER

@<TRIPOS>ATOM
      1 C          -7.8788  -19.1340   22.3686 C.3     1  UNL1        0.0973
      2 C          -8.6560  -20.2149   23.0596 C.3     1  UNL1        0.2124
      3 O         -10.0956  -19.9920   23.4172 O.3     1  UNL1       -0.4753
      4 C         -10.7580  -18.6880   23.0837 C.ar    1  UNL1        0.1368
      5 C         -12.1976  -18.4651   23.4413 C.ar    1  UNL1        0.0366
      6 C         -12.8599  -17.1612   23.1078 C.ar    1  UNL1        0.0031
      7 C         -12.0826  -16.0803   22.4168 C.ar    1  UNL1       -0.0000
      8 C         -10.6431  -16.3033   22.0592 C.ar    1  UNL1        0.0011
      9 C          -9.9808  -17.6071   22.3927 C.ar    1  UNL1        0.0387
     10 C          -8.5411  -17.8301   22.0351 C.3     1  UNL1        0.1432
     11 O          -7.7639  -16.7492   21.3441 O.3     1  UNL1       -0.3795
     12 H          -8.3362  -15.9788   21.2036 H       1  UNL1        0.2108
     13 C          -3.9307  -18.7391   22.2863 C.ar    1  UNL1        0.1718
     14 C          -5.3703  -18.5161   22.6438 C.ar    1  UNL1        0.0360
     15 C          -6.4391  -19.3570   22.0110 C.ar    1  UNL1       -0.0130
     16 C          -6.0684  -20.4208   21.0206 C.ar    1  UNL1       -0.0008
     17 C          -4.6289  -20.6437   20.6631 C.ar    1  UNL1        0.0395
     18 C          -3.5600  -19.8029   21.2959 C.ar    1  UNL1        0.1677
     19 O          -2.1204  -20.0259   20.9384 O.3     1  UNL1       -0.5029
     20 H          -1.8888  -20.6904   20.3197 H       1  UNL1        0.2923
     21 C          -2.3692  -16.6636   22.2242 C.3     1  UNL1        0.2526
     22 O          -2.8618  -17.8982   22.9191 O.3     1  UNL1       -0.4684
@<TRIPOS>BOND
     1    21    22    1
     2    22    13    1
     3    13    14   ar
     4    14    15   ar
     5     1    15    1
     6     1     2    1
     7     2     3    1
     8     3     4    1
     9     4     5   ar
    10     5     6   ar
    11     6     7   ar
    12     7     8   ar
    13     8     9   ar
    14     9    10    1
    15    10    11    1
    16    15    16   ar
    17    16    17   ar
    18    17    18   ar
    19    18    19    1
    20    18    13   ar
    21    10     1    1
    22     9     4   ar
    23    11    12    1
    24    19    20    1
@<TRIPOS>MOLECULE
*****
 22 24 0 0 0
SMALL
GASTEIGER

@<TRIPOS>ATOM
      1 C          -7.4594  -18.8201   20.8664 C.3     1  UNL1        0.0973
      2 C          -8.3047  -19.5725   19.8819 C.3     1  UNL1        0.2124
      3 O          -9.7711  -19.2765   19.7720 O.3     1  UNL1       -0.4753
      4 C         -10.3922  -18.2281   20.6468 C.ar    1  UNL1        0.1368
      5 C         -11.8586  -17.9321   20.5369 C.ar    1  UNL1        0.0366
      6 C         -12.4796  -16.8837   21.4117 C.ar    1  UNL1        0.0031
      7 C         -11.6343  -16.1313   22.3962 C.ar    1  UNL1       -0.0000
      8 C         -10.1679  -16.4273   22.5061 C.ar    1  UNL1        0.0011
      9 C          -9.5469  -17.4757   21.6313 C.ar    1  UNL1        0.0387
     10 C          -8.0804  -17.7718   21.7411 C.3     1  UNL1        0.1432
     11 O          -7.2351  -17.0194   22.7257 O.3     1  UNL1       -0.3795
     12 H          -7.7877  -16.3840   23.2072 H       1  UNL1        0.2108
     13 C          -3.6244  -19.1794   19.9104 C.ar    1  UNL1        0.1718
     14 C          -5.0908  -18.8834   19.8007 C.ar    1  UNL1        0.0360
     15 C          -5.9930  -19.1162   20.9762 C.ar    1  UNL1       -0.0130
     16 C          -5.4288  -19.6450   22.2615 C.ar    1  UNL1       -0.0008
     17 C          -3.9624  -19.9410   22.3713 C.ar    1  UNL1        0.0395
     18 C          -3.0602  -19.7082   21.1957 C.ar    1  UNL1        0.1677
     19 O          -1.5938  -20.0043   21.3055 O.3     1  UNL1       -0.5029
     20 H          -1.2414  -20.3346   22.1084 H       1  UNL1        0.2923
     21 C          -1.8120  -17.7546   18.7125 C.3     1  UNL1        0.2526
     22 O          -2.7222  -18.9466   18.7349 O.3     1  UNL1       -0.4684
@<TRIPOS>BOND
     1    21    22    1
     2    22    13    1
     3    13    14   ar
     4    14    15   ar
     5     1    15    1
     6     1     2    1
     7     2     3    1
     8     3     4    1
     9     4     5   ar
    10     5     6   ar
    11     6     7   ar
    12     7     8   ar
    13     8     9   ar
    14     9    10    1
    15    10    11    1
    16    15    16   ar
    17    16    17   ar
    18    17    18   ar
    19    18    19    1
    20    18    13   ar
    21    10     1    1
    22     9     4   ar
    23    11    12    1
    24    19    20    1
@<TRIPOS>MOLECULE
*****
 22 24 0 0 0
SMALL
GASTEIGER

@<TRIPOS>ATOM
      1 C          -7.4162  -17.5478   22.9766 C.3     1  UNL1        0.0973
      2 C          -6.6785  -16.3725   23.5460 C.3     1  UNL1        0.2124
      3 O          -5.1810  -16.3219   23.4771 O.3     1  UNL1       -0.4753
      4 C          -4.4211  -17.4467   22.8387 C.ar    1  UNL1        0.1368
      5 C          -2.9236  -17.3962   22.7698 C.ar    1  UNL1        0.0366
      6 C          -2.1638  -18.5210   22.1314 C.ar    1  UNL1        0.0031
      7 C          -2.9016  -19.6963   21.5620 C.ar    1  UNL1       -0.0000
      8 C          -4.3991  -19.7469   21.6309 C.ar    1  UNL1        0.0011
      9 C          -5.1589  -18.6221   22.2692 C.ar    1  UNL1        0.0387
     10 C          -6.6565  -18.6726   22.3382 C.3     1  UNL1        0.1432
     11 O          -7.3942  -19.8479   21.7687 O.3     1  UNL1       -0.3795
     12 H          -6.7587  -20.4794   21.3970 H       1  UNL1        0.2108
     13 C         -11.2341  -16.9436   22.0772 C.ar    1  UNL1        0.1718
     14 C          -9.7366  -16.8931   22.0083 C.ar    1  UNL1        0.0360
     15 C          -8.9139  -17.5983   23.0455 C.ar    1  UNL1       -0.0130
     16 C          -9.5887  -18.3541   24.1516 C.ar    1  UNL1       -0.0008
     17 C         -11.0862  -18.4046   24.2205 C.ar    1  UNL1        0.0395
     18 C         -11.9089  -17.6993   23.1833 C.ar    1  UNL1        0.1677
     19 O         -13.4065  -17.7498   23.2523 O.3     1  UNL1       -0.5029
     20 H         -13.8281  -18.2219   23.9432 H       1  UNL1        0.2923
     21 C         -11.4579  -15.9074   19.7053 C.3     1  UNL1        0.2526
     22 O         -12.0569  -16.2383   21.0401 O.3     1  UNL1       -0.4684
@<TRIPOS>BOND
     1    21    22    1
     2    22    13    1
     3    13    14   ar
     4    14    15   ar
     5     1    15    1
     6     1     2    1
     7     2     3    1
     8     3     4    1
     9     4     5   ar
    10     5     6   ar
    11     6     7   ar
    12     7     8   ar
    13     8     9   ar
    14     9    10    1
    15    10    11    1
    16    15    16   ar
    17    16    17   ar
    18    17    18   ar
    19    18    19    1
    20    18    13   ar
    21    10     1    1
    22     9     4   ar
    23    11    12    1
    24    19    20    1
@<TRIPOS>MOLECULE
*****
 22 24 0 0 0
SMALL
GASTEIGER

@<TRIPOS>ATOM
      1 C          -7.5400  -19.1207   21.7042 C.3     1  UNL1        0.0973
      2 C          -7.1422  -20.2026   20.7444 C.3     1  UNL1        0.2124
      3 O          -5.6909  -20.4775   20.4836 O.3     1  UNL1       -0.4753
      4 C          -4.6373  -19.6704   21.1827 C.ar    1  UNL1        0.1368
      5 C          -3.1859  -19.9453   20.9220 C.ar    1  UNL1        0.0366
      6 C          -2.1324  -19.1383   21.6210 C.ar    1  UNL1        0.0031
      7 C          -2.5302  -18.0564   22.5808 C.ar    1  UNL1       -0.0000
      8 C          -3.9815  -17.7815   22.8415 C.ar    1  UNL1        0.0011
      9 C          -5.0351  -18.5885   22.1425 C.ar    1  UNL1        0.0387
     10 C          -6.4865  -18.3136   22.4032 C.3     1  UNL1        0.1432
     11 O          -6.8843  -17.2317   23.3630 O.3     1  UNL1       -0.3795
     12 H          -6.0883  -16.8112   23.7242 H       1  UNL1        0.2108
     13 C         -11.2614  -17.8345   21.2070 C.ar    1  UNL1        0.1718
     14 C          -9.8101  -18.1094   20.9463 C.ar    1  UNL1        0.0360
     15 C          -8.9914  -18.8458   21.9649 C.ar    1  UNL1       -0.0130
     16 C          -9.6242  -19.3073   23.2442 C.ar    1  UNL1       -0.0008
     17 C         -11.0755  -19.0325   23.5048 C.ar    1  UNL1        0.0395
     18 C         -11.8941  -18.2960   22.4862 C.ar    1  UNL1        0.1677
     19 O         -13.3456  -18.0212   22.7470 O.3     1  UNL1       -0.5029
     20 H         -13.7408  -18.3095   23.5461 H       1  UNL1        0.2923
     21 C         -11.5375  -15.8559   19.5459 C.3     1  UNL1        0.2526
     22 O         -12.0800  -17.0981   20.1884 O.3     1  UNL1       -0.4684
@<TRIPOS>BOND
     1    21    22    1
     2    22    13    1
     3    13    14   ar
     4    14    15   ar
     5     1    15    1
     6     1     2    1
     7     2     3    1
     8     3     4    1
     9     4     5   ar
    10     5     6   ar
    11     6     7   ar
    12     7     8   ar
    13     8     9   ar
    14     9    10    1
    15    10    11    1
    16    15    16   ar
    17    16    17   ar
    18    17    18   ar
    19    18    19    1
    20    18    13   ar
    21    10     1    1
    22     9     4   ar
    23    11    12    1
    24    19    20    1
@<TRIPOS>MOLECULE
*****
 22 24 0 0 0
SMALL
GASTEIGER

@<TRIPOS>ATOM
      1 C          -7.5296  -18.4789   22.3424 C.3     1  UNL1        0.0973
      2 C          -8.1809  -19.7804   22.7057 C.3     1  UNL1        0.2124
      3 O          -9.6764  -19.8962   22.7063 O.3     1  UNL1       -0.4753
      4 C         -10.5206  -18.7105   22.3436 C.ar    1  UNL1        0.1368
      5 C         -12.0161  -18.8262   22.3443 C.ar    1  UNL1        0.0366
      6 C         -12.8603  -17.6406   21.9816 C.ar    1  UNL1        0.0031
      7 C         -12.2089  -16.3391   21.6184 C.ar    1  UNL1       -0.0000
      8 C         -10.7134  -16.2233   21.6178 C.ar    1  UNL1        0.0011
      9 C          -9.8693  -17.4090   21.9804 C.ar    1  UNL1        0.0387
     10 C          -8.3737  -17.2932   21.9798 C.3     1  UNL1        0.1432
     11 O          -7.7224  -15.9918   21.6166 O.3     1  UNL1       -0.3795
     12 H          -8.4055  -15.3346   21.4108 H       1  UNL1        0.2108
     13 C          -3.7370  -18.8894   21.2478 C.ar    1  UNL1        0.1718
     14 C          -5.2325  -19.0051   21.2484 C.ar    1  UNL1        0.0360
     15 C          -6.0340  -18.3632   22.3418 C.ar    1  UNL1       -0.0130
     16 C          -5.3399  -17.6055   23.4346 C.ar    1  UNL1       -0.0008
     17 C          -3.8444  -17.4898   23.4340 C.ar    1  UNL1        0.0395
     18 C          -3.0430  -18.1317   22.3405 C.ar    1  UNL1        0.1677
     19 O          -1.5474  -18.0160   22.3399 O.3     1  UNL1       -0.5029
     20 H          -1.1139  -17.5427   23.0226 H       1  UNL1        0.2923
     21 C          -2.3534  -18.6894   19.0579 C.3     1  UNL1        0.2526
     22 O          -2.9356  -19.5313   20.1543 O.3     1  UNL1       -0.4684
@<TRIPOS>BOND
     1    21    22    1
     2    22    13    1
     3    13    14   ar
     4    14    15   ar
     5     1    15    1
     6     1     2    1
     7     2     3    1
     8     3     4    1
     9     4     5   ar
    10     5     6   ar
    11     6     7   ar
    12     7     8   ar
    13     8     9   ar
    14     9    10    1
    15    10    11    1
    16    15    16   ar
    17    16    17   ar
    18    17    18   ar
    19    18    19    1
    20    18    13   ar
    21    10     1    1
    22     9     4   ar
    23    11    12    1
    24    19    20    1
@<TRIPOS>MOLECULE
*****
 22 24 0 0 0
SMALL
GASTEIGER

@<TRIPOS>ATOM
      1 C          -7.5188  -18.8998   20.9071 C.3     1  UNL1        0.0973
      2 C          -8.3736  -19.5271   19.8462 C.3     1  UNL1        0.2124
      3 O          -9.8334  -19.1921   19.7639 O.3     1  UNL1       -0.4753
      4 C         -10.4383  -18.2296   20.7426 C.ar    1  UNL1        0.1368
      5 C         -11.8981  -17.8946   20.6604 C.ar    1  UNL1        0.0366
      6 C         -12.5030  -16.9322   21.6391 C.ar    1  UNL1        0.0031
      7 C         -11.6481  -16.3048   22.7000 C.ar    1  UNL1       -0.0000
      8 C         -10.1883  -16.6399   22.7823 C.ar    1  UNL1        0.0011
      9 C          -9.5835  -17.6023   21.8036 C.ar    1  UNL1        0.0387
     10 C          -8.1236  -17.9374   21.8858 C.3     1  UNL1        0.1432
     11 O          -7.2688  -17.3100   22.9468 O.3     1  UNL1       -0.3795
     12 H          -7.8112  -16.7181   23.4910 H       1  UNL1        0.2108
     13 C          -3.6786  -18.7154   21.8916 C.ar    1  UNL1        0.1718
     14 C          -5.1383  -18.3804   21.8094 C.ar    1  UNL1        0.0360
     15 C          -6.0589  -19.2349   20.9894 C.ar    1  UNL1       -0.0130
     16 C          -5.5198  -20.4244   20.2516 C.ar    1  UNL1       -0.0008
     17 C          -4.0600  -20.7594   20.3339 C.ar    1  UNL1        0.0395
     18 C          -3.1394  -19.9049   21.1539 C.ar    1  UNL1        0.1677
     19 O          -1.6796  -20.2400   21.2361 O.3     1  UNL1       -0.5029
     20 H          -1.3428  -20.9831   20.7752 H       1  UNL1        0.2923
     21 C          -2.3047  -16.5304   22.1882 C.3     1  UNL1        0.2526
     22 O          -2.7580  -17.8610   22.7116 O.3     1  UNL1       -0.4684
@<TRIPOS>BOND
     1    21    22    1
     2    22    13    1
     3    13    14   ar
     4    14    15   ar
     5     1    15    1
     6     1     2    1
     7     2     3    1
     8     3     4    1
     9     4     5   ar
    10     5     6   ar
    11     6     7   ar
    12     7     8   ar
    13     8     9   ar
    14     9    10    1
    15    10    11    1
    16    15    16   ar
    17    16    17   ar
    18    17    18   ar
    19    18    19    1
    20    18    13   ar
    21    10     1    1
    22     9     4   ar
    23    11    12    1
    24    19    20    1
@<TRIPOS>MOLECULE
*****
 22 24 0 0 0
SMALL
GASTEIGER

@<TRIPOS>ATOM
      1 C          -7.4232  -19.1757   21.0352 C.3     1  UNL1        0.0973
      2 C          -6.9309  -20.2891   20.1588 C.3     1  UNL1        0.2124
      3 O          -5.4671  -20.6126   20.1084 O.3     1  UNL1       -0.4753
      4 C          -4.4955  -19.8228   20.9344 C.ar    1  UNL1        0.1368
      5 C          -3.0317  -20.1463   20.8839 C.ar    1  UNL1        0.0366
      6 C          -2.0602  -19.3565   21.7099 C.ar    1  UNL1        0.0031
      7 C          -2.5524  -18.2431   22.5862 C.ar    1  UNL1       -0.0000
      8 C          -4.0162  -17.9195   22.6366 C.ar    1  UNL1        0.0011
      9 C          -4.9878  -18.7093   21.8107 C.ar    1  UNL1        0.0387
     10 C          -6.4516  -18.3858   21.8611 C.3     1  UNL1        0.1432
     11 O          -6.9439  -17.2724   22.7374 O.3     1  UNL1       -0.3795
     12 H          -6.1927  -16.8682   23.1993 H       1  UNL1        0.2108
     13 C         -11.0974  -18.6315   22.4329 C.ar    1  UNL1        0.1718
     14 C          -9.6336  -18.9550   22.3825 C.ar    1  UNL1        0.0360
     15 C          -8.8870  -18.8521   21.0856 C.ar    1  UNL1       -0.0130
     16 C          -9.6042  -18.4257   19.8391 C.ar    1  UNL1       -0.0008
     17 C         -11.0680  -18.1022   19.8895 C.ar    1  UNL1        0.0395
     18 C         -11.8146  -18.2051   21.1864 C.ar    1  UNL1        0.1677
     19 O         -13.2785  -17.8816   21.2368 O.3     1  UNL1       -0.5029
     20 H         -13.7265  -17.6152   20.4582 H       1  UNL1        0.2923
     21 C         -11.1207  -19.1327   24.9821 C.3     1  UNL1        0.2526
     22 O         -11.8440  -18.7343   23.7298 O.3     1  UNL1       -0.4684
@<TRIPOS>BOND
     1    21    22    1
     2    22    13    1
     3    13    14   ar
     4    14    15   ar
     5     1    15    1
     6     1     2    1
     7     2     3    1
     8     3     4    1
     9     4     5   ar
    10     5     6   ar
    11     6     7   ar
    12     7     8   ar
    13     8     9   ar
    14     9    10    1
    15    10    11    1
    16    15    16   ar
    17    16    17   ar
    18    17    18   ar
    19    18    19    1
    20    18    13   ar
    21    10     1    1
    22     9     4   ar
    23    11    12    1
    24    19    20    1
@<TRIPOS>MOLECULE
*****
 22 24 0 0 0
SMALL
GASTEIGER

@<TRIPOS>ATOM
      1 C          -5.6763  -18.5700   21.9980 C.3     1  UNL1        0.0973
      2 C          -4.7006  -18.4745   23.1333 C.3     1  UNL1        0.2124
      3 O          -3.2333  -18.3414   22.8519 O.3     1  UNL1       -0.4753
      4 C          -2.7416  -18.3038   21.4352 C.ar    1  UNL1        0.1368
      5 C          -1.2743  -18.1707   21.1538 C.ar    1  UNL1        0.0366
      6 C          -0.7828  -18.1330   19.7372 C.ar    1  UNL1        0.0031
      7 C          -1.7585  -18.2284   18.6019 C.ar    1  UNL1       -0.0000
      8 C          -3.2258  -18.3615   18.8833 C.ar    1  UNL1        0.0011
      9 C          -3.7174  -18.3992   20.2999 C.ar    1  UNL1        0.0387
     10 C          -5.1848  -18.5323   20.5814 C.3     1  UNL1        0.1432
     11 O          -6.1605  -18.6277   19.4461 O.3     1  UNL1       -0.3795
     12 H          -5.6813  -18.5882   18.6037 H       1  UNL1        0.2108
     13 C          -9.4959  -17.6257   22.5173 C.ar    1  UNL1        0.1718
     14 C          -8.0286  -17.4927   22.2358 C.ar    1  UNL1        0.0360
     15 C          -7.1437  -18.7031   22.2795 C.ar    1  UNL1       -0.0130
     16 C          -7.7262  -20.0466   22.6045 C.ar    1  UNL1       -0.0008
     17 C          -9.1935  -20.1796   22.8860 C.ar    1  UNL1        0.0395
     18 C         -10.0783  -18.9692   22.8423 C.ar    1  UNL1        0.1677
     19 O         -11.5457  -19.1023   23.1238 O.3     1  UNL1       -0.5029
     20 H         -11.9096  -19.9416   23.3269 H       1  UNL1        0.2923
     21 C         -11.0759  -16.0400   21.1985 C.3     1  UNL1        0.2526
     22 O         -10.3807  -16.4153   22.4736 O.3     1  UNL1       -0.4684
@<TRIPOS>BOND
     1    21    22    1
     2    22    13    1
     3    13    14   ar
     4    14    15   ar
     5     1    15    1
     6     1     2    1
     7     2     3    1
     8     3     4    1
     9     4     5   ar
    10     5     6   ar
    11     6     7   ar
    12     7     8   ar
    13     8     9   ar
    14     9    10    1
    15    10    11    1
    16    15    16   ar
    17    16    17   ar
    18    17    18   ar
    19    18    19    1
    20    18    13   ar
    21    10     1    1
    22     9     4   ar
    23    11    12    1
    24    19    20    1
@<TRIPOS>MOLECULE
*****
 22 24 0 0 0
SMALL
GASTEIGER

@<TRIPOS>ATOM
      1 C          -7.7836  -18.2203   21.8685 C.3     1  UNL1        0.0973
      2 C          -7.0602  -17.3693   22.8697 C.3     1  UNL1        0.2124
      3 O          -5.5702  -17.4748   23.0064 O.3     1  UNL1       -0.4753
      4 C          -4.8036  -18.4314   22.1419 C.ar    1  UNL1        0.1368
      5 C          -3.3136  -18.5369   22.2786 C.ar    1  UNL1        0.0366
      6 C          -2.5470  -19.4934   21.4141 C.ar    1  UNL1        0.0031
      7 C          -3.2705  -20.3444   20.4129 C.ar    1  UNL1       -0.0000
      8 C          -4.7605  -20.2389   20.2762 C.ar    1  UNL1        0.0011
      9 C          -5.5270  -19.2824   21.1407 C.ar    1  UNL1        0.0387
     10 C          -7.0171  -19.1769   21.0040 C.3     1  UNL1        0.1432
     11 O          -7.7405  -20.0279   20.0028 O.3     1  UNL1       -0.3795
     12 H          -7.1021  -20.5852   19.5308 H       1  UNL1        0.2108
     13 C         -11.6503  -18.3727   22.7494 C.ar    1  UNL1        0.1718
     14 C         -10.1603  -18.4782   22.8860 C.ar    1  UNL1        0.0360
     15 C          -9.2737  -18.1148   21.7319 C.ar    1  UNL1       -0.0130
     16 C          -9.8772  -17.6459   20.4412 C.ar    1  UNL1       -0.0008
     17 C         -11.3672  -17.5404   20.3046 C.ar    1  UNL1        0.0395
     18 C         -12.2537  -17.9038   21.4587 C.ar    1  UNL1        0.1677
     19 O         -13.7438  -17.7982   21.3220 O.3     1  UNL1       -0.5029
     20 H         -14.1208  -17.5053   20.5157 H       1  UNL1        0.2923
     21 C         -13.7569  -17.9152   24.1995 C.3     1  UNL1        0.2526
     22 O         -12.5369  -18.7360   23.9035 O.3     1  UNL1       -0.4684
@<TRIPOS>BOND
     1    21    22    1
     2    22    13    1
     3    13    14   ar
     4    14    15   ar
     5     1    15    1
     6     1     2    1
     7     2     3    1
     8     3     4    1
     9     4     5   ar
    10     5     6   ar
    11     6     7   ar
    12     7     8   ar
    13     8     9   ar
    14     9    10    1
    15    10    11    1
    16    15    16   ar
    17    16    17   ar
    18    17    18   ar
    19    18    19    1
    20    18    13   ar
    21    10     1    1
    22     9     4   ar
    23    11    12    1
    24    19    20    1
