@<TRIPOS>MOLECULE
*****
 31 33 0 0 0
SMALL
GASTEIGER

@<TRIPOS>ATOM
      1 C          -7.1279  -19.2215   20.3312 C.3     1  UNL1        0.1400
      2 O          -7.7304  -20.1402   19.3099 O.3     1  UNL1       -0.3517
      3 C          -9.1982  -19.8425   19.2273 C.3     1  UNL1        0.1454
      4 C          -9.5030  -18.7398   20.1975 C.3     1  UNL1        0.0659
      5 C          -8.2234  -18.3561   20.8798 C.3     1  UNL1        0.0658
      6 C          -3.1723  -19.0112   20.0879 C.ar    1  UNL1        0.1719
      7 C          -4.6167  -19.0565   19.6858 C.ar    1  UNL1        0.0381
      8 C          -5.6835  -19.1762   20.7334 C.ar    1  UNL1        0.0078
      9 C          -5.3060  -19.2506   22.1832 C.ar    1  UNL1        0.0014
     10 C          -3.8616  -19.2053   22.5853 C.ar    1  UNL1        0.0395
     11 C          -2.7948  -19.0857   21.5377 C.ar    1  UNL1        0.1677
     12 O          -1.3504  -19.0404   21.9398 O.3     1  UNL1       -0.5029
     13 H          -1.1145  -19.0868   22.8455 H       1  UNL1        0.2923
     14 C          -1.8222  -17.5617   18.4069 C.3     1  UNL1        0.2526
     15 O          -2.1055  -18.8916   19.0402 O.3     1  UNL1       -0.4684
     16 C         -10.8506  -18.1284   20.4425 C.3     1  UNL1        0.1353
     17 O         -11.5388  -17.3670   19.3485 O.3     1  UNL1       -0.3800
     18 H         -10.9806  -17.3654   18.5552 H       1  UNL1        0.2108
     19 C         -11.5100  -18.2783   21.7814 C.ar    1  UNL1        0.0075
     20 C         -12.8442  -17.6418   22.0358 C.ar    1  UNL1        0.0014
     21 C         -13.5035  -17.7917   23.3747 C.ar    1  UNL1        0.0395
     22 C         -12.8287  -18.5781   24.4592 C.ar    1  UNL1        0.1677
     23 O         -13.4881  -18.7281   25.7982 O.3     1  UNL1       -0.5029
     24 C         -11.4946  -19.2146   24.2048 C.ar    1  UNL1        0.1719
     25 C         -10.8352  -19.0647   22.8659 C.ar    1  UNL1        0.0381
     26 H         -14.3216  -18.3305   25.9571 H       1  UNL1        0.2923
     27 O         -10.8198  -20.0011   25.2894 O.3     1  UNL1       -0.4684
     28 C          -9.7046  -20.9446   24.9485 C.3     1  UNL1        0.2526
     29 C          -8.0669  -17.2935   21.9268 C.3     1  UNL1        0.1400
     30 O          -8.0919  -15.8456   21.5356 O.3     1  UNL1       -0.3819
     31 H          -7.3187  -15.6461   20.9850 H       1  UNL1        0.2104
@<TRIPOS>BOND
     1    14    15    1
     2    15     6    1
     3     6     7   ar
     4     7     8   ar
     5     1     8    1
     6     1     2    1
     7     2     3    1
     8     4     3    1
     9     4    16    1
    10    16    17    1
    11    16    19    1
    12    19    20   ar
    13    20    21   ar
    14    21    22   ar
    15    22    23    1
    16    22    24   ar
    17    24    27    1
    18    27    28    1
    19    24    25   ar
    20     4     5    1
    21     5    29    1
    22    29    30    1
    23     8     9   ar
    24     9    10   ar
    25    10    11   ar
    26    11    12    1
    27    11     6   ar
    28     5     1    1
    29    25    19   ar
    30    17    18    1
    31    23    26    1
    32    30    31    1
    33    12    13    1
@<TRIPOS>MOLECULE
*****
 31 33 0 0 0
SMALL
GASTEIGER

@<TRIPOS>ATOM
      1 C          -7.8500  -16.3271   23.1646 C.3     1  UNL1        0.1400
      2 O          -7.3953  -15.2142   24.0616 O.3     1  UNL1       -0.3517
      3 C          -5.9509  -15.4466   24.3930 C.3     1  UNL1        0.1454
      4 C          -5.5129  -16.7033   23.7007 C.3     1  UNL1        0.0659
      5 C          -6.6867  -17.2474   22.9416 C.3     1  UNL1        0.0658
      6 C         -11.5892  -17.5673   22.6847 C.ar    1  UNL1        0.1719
      7 C         -10.2128  -17.4034   23.2580 C.ar    1  UNL1        0.0381
      8 C          -9.2264  -16.4910   22.5913 C.ar    1  UNL1        0.0078
      9 C          -9.6164  -15.7426   21.3512 C.ar    1  UNL1        0.0014
     10 C         -10.9927  -15.9065   20.7780 C.ar    1  UNL1        0.0395
     11 C         -11.9792  -16.8189   21.4447 C.ar    1  UNL1        0.1677
     12 O         -13.3556  -16.9828   20.8714 O.3     1  UNL1       -0.5029
     13 H         -13.5992  -16.5152   20.0967 H       1  UNL1        0.2923
     14 C         -13.7510  -17.9055   24.0855 C.3     1  UNL1        0.2526
     15 O         -12.5756  -18.4797   23.3515 O.3     1  UNL1       -0.4684
     16 C          -4.1420  -17.3093   23.7577 C.3     1  UNL1        0.1353
     17 O          -3.5921  -17.7989   25.0646 O.3     1  UNL1       -0.3800
     18 H          -4.2452  -17.6502   25.7662 H       1  UNL1        0.2108
     19 C          -3.3210  -17.4257   22.5078 C.ar    1  UNL1        0.0075
     20 C          -2.2941  -16.3811   22.1849 C.ar    1  UNL1        0.0014
     21 C          -1.4731  -16.4975   20.9350 C.ar    1  UNL1        0.0395
     22 C          -1.6790  -17.6586   20.0079 C.ar    1  UNL1        0.1677
     23 O          -0.8579  -17.7751   18.7579 O.3     1  UNL1       -0.5029
     24 C          -2.7058  -18.7032   20.3307 C.ar    1  UNL1        0.1719
     25 C          -3.5269  -18.5868   21.5807 C.ar    1  UNL1        0.0381
     26 H          -0.2165  -17.1225   18.5562 H       1  UNL1        0.2923
     27 O          -2.9117  -19.8643   19.4036 O.3     1  UNL1       -0.4684
     28 C          -4.0600  -20.8043   19.6224 C.3     1  UNL1        0.2526
     29 C          -6.6955  -18.4931   22.1061 C.3     1  UNL1        0.1400
     30 O          -6.9038  -18.4004   20.6235 O.3     1  UNL1       -0.3819
     31 H          -7.8003  -18.0773   20.4426 H       1  UNL1        0.2104
@<TRIPOS>BOND
     1    14    15    1
     2    15     6    1
     3     6     7   ar
     4     7     8   ar
     5     1     8    1
     6     1     2    1
     7     2     3    1
     8     4     3    1
     9     4    16    1
    10    16    17    1
    11    16    19    1
    12    19    20   ar
    13    20    21   ar
    14    21    22   ar
    15    22    23    1
    16    22    24   ar
    17    24    27    1
    18    27    28    1
    19    24    25   ar
    20     4     5    1
    21     5    29    1
    22    29    30    1
    23     8     9   ar
    24     9    10   ar
    25    10    11   ar
    26    11    12    1
    27    11     6   ar
    28     5     1    1
    29    25    19   ar
    30    17    18    1
    31    23    26    1
    32    30    31    1
    33    12    13    1
@<TRIPOS>MOLECULE
*****
 31 33 0 0 0
SMALL
GASTEIGER

@<TRIPOS>ATOM
      1 C          -4.7381  -16.5129   23.9323 C.3     1  UNL1        0.1400
      2 O          -4.3388  -15.8563   25.2205 O.3     1  UNL1       -0.3517
      3 C          -5.5902  -15.5117   25.9724 C.3     1  UNL1        0.1454
      4 C          -6.7628  -15.9552   25.1489 C.3     1  UNL1        0.0659
      5 C          -6.2362  -16.5740   23.8880 C.3     1  UNL1        0.0658
      6 C          -2.9441  -18.9564   21.3709 C.ar    1  UNL1        0.1719
      7 C          -3.8788  -18.4499   22.4291 C.ar    1  UNL1        0.0381
      8 C          -3.8033  -17.0194   22.8741 C.ar    1  UNL1        0.0078
      9 C          -2.7932  -16.0955   22.2609 C.ar    1  UNL1        0.0014
     10 C          -1.8586  -16.6020   21.2028 C.ar    1  UNL1        0.0395
     11 C          -1.9340  -18.0325   20.7577 C.ar    1  UNL1        0.1677
     12 O          -0.9993  -18.5390   19.6995 O.3     1  UNL1       -0.5029
     13 H          -0.3683  -17.9618   19.3165 H       1  UNL1        0.2923
     14 C          -4.0657  -20.8109   19.9381 C.3     1  UNL1        0.2526
     15 O          -3.0195  -20.3869   20.9259 O.3     1  UNL1       -0.4684
     16 C          -8.2083  -15.8061   25.5209 C.3     1  UNL1        0.1353
     17 O          -8.6027  -14.9006   26.6498 O.3     1  UNL1       -0.3800
     18 H          -7.8089  -14.4916   27.0287 H       1  UNL1        0.2108
     19 C          -9.2594  -16.5626   24.7640 C.ar    1  UNL1        0.0075
     20 C          -9.5390  -17.9975   25.1000 C.ar    1  UNL1        0.0014
     21 C         -10.5901  -18.7539   24.3431 C.ar    1  UNL1        0.0395
     22 C         -11.3615  -18.0755   23.2501 C.ar    1  UNL1        0.1677
     23 O         -12.4127  -18.8320   22.4931 O.3     1  UNL1       -0.5029
     24 C         -11.0819  -16.6407   22.9141 C.ar    1  UNL1        0.1719
     25 C         -10.0308  -15.8842   23.6710 C.ar    1  UNL1        0.0381
     26 H         -12.5874  -19.7283   22.7030 H       1  UNL1        0.2923
     27 O         -11.8534  -15.9623   21.8211 O.3     1  UNL1       -0.4684
     28 C         -11.4314  -16.1279   20.3912 C.3     1  UNL1        0.2526
     29 C          -7.0626  -17.1523   22.7778 C.3     1  UNL1        0.1400
     30 O          -7.6251  -16.2548   21.7157 O.3     1  UNL1       -0.3819
     31 H          -8.2791  -15.6571   22.1104 H       1  UNL1        0.2104
@<TRIPOS>BOND
     1    14    15    1
     2    15     6    1
     3     6     7   ar
     4     7     8   ar
     5     1     8    1
     6     1     2    1
     7     2     3    1
     8     4     3    1
     9     4    16    1
    10    16    17    1
    11    16    19    1
    12    19    20   ar
    13    20    21   ar
    14    21    22   ar
    15    22    23    1
    16    22    24   ar
    17    24    27    1
    18    27    28    1
    19    24    25   ar
    20     4     5    1
    21     5    29    1
    22    29    30    1
    23     8     9   ar
    24     9    10   ar
    25    10    11   ar
    26    11    12    1
    27    11     6   ar
    28     5     1    1
    29    25    19   ar
    30    17    18    1
    31    23    26    1
    32    30    31    1
    33    12    13    1
@<TRIPOS>MOLECULE
*****
 31 33 0 0 0
SMALL
GASTEIGER

@<TRIPOS>ATOM
      1 C          -5.6284  -19.1813   21.5283 C.3     1  UNL1        0.1400
      2 O          -6.3726  -20.3491   20.9520 O.3     1  UNL1       -0.3517
      3 C          -7.8050  -20.2453   21.3849 C.3     1  UNL1        0.1454
      4 C          -7.9461  -19.0132   22.2289 C.3     1  UNL1        0.0659
      5 C          -6.6008  -18.3557   22.3175 C.3     1  UNL1        0.0658
      6 C          -2.1441  -18.4190   19.7879 C.ar    1  UNL1        0.1719
      7 C          -3.6044  -18.7101   19.9690 C.ar    1  UNL1        0.0381
      8 C          -4.1680  -18.8901   21.3473 C.ar    1  UNL1        0.0078
      9 C          -3.2714  -18.7789   22.5447 C.ar    1  UNL1        0.0014
     10 C          -1.8111  -18.4878   22.3636 C.ar    1  UNL1        0.0395
     11 C          -1.2475  -18.3078   20.9852 C.ar    1  UNL1        0.1677
     12 O           0.2128  -18.0166   20.8042 O.3     1  UNL1       -0.5029
     13 H           0.7729  -17.9472   21.5522 H       1  UNL1        0.2923
     14 C          -2.2690  -17.3357   17.4298 C.3     1  UNL1        0.2526
     15 O          -1.5805  -18.2390   18.4095 O.3     1  UNL1       -0.4684
     16 C          -9.2103  -18.5246   22.8714 C.3     1  UNL1        0.1353
     17 O          -9.4618  -18.7867   24.3268 O.3     1  UNL1       -0.3800
     18 H          -8.7145  -19.2794   24.7005 H       1  UNL1        0.2108
     19 C         -10.2231  -17.7740   22.0585 C.ar    1  UNL1        0.0075
     20 C         -11.6723  -18.1548   22.1284 C.ar    1  UNL1        0.0014
     21 C         -12.6850  -17.4041   21.3155 C.ar    1  UNL1        0.0395
     22 C         -12.2486  -16.2727   20.4328 C.ar    1  UNL1        0.1677
     23 O         -13.2614  -15.5219   19.6198 O.3     1  UNL1       -0.5029
     24 C         -10.7995  -15.8919   20.3629 C.ar    1  UNL1        0.1719
     25 C          -9.7867  -16.6425   21.1758 C.ar    1  UNL1        0.0381
     26 H         -14.1666  -15.7598   19.6635 H       1  UNL1        0.2923
     27 O         -10.3631  -14.7603   19.4800 O.3     1  UNL1       -0.4684
     28 C          -9.2007  -13.9014   19.8814 C.3     1  UNL1        0.2526
     29 C          -6.2837  -17.0940   23.0642 C.3     1  UNL1        0.1400
     30 O          -6.9042  -15.7957   22.6407 O.3     1  UNL1       -0.3819
     31 H          -6.5746  -15.5513   21.7618 H       1  UNL1        0.2104
@<TRIPOS>BOND
     1    14    15    1
     2    15     6    1
     3     6     7   ar
     4     7     8   ar
     5     1     8    1
     6     1     2    1
     7     2     3    1
     8     4     3    1
     9     4    16    1
    10    16    17    1
    11    16    19    1
    12    19    20   ar
    13    20    21   ar
    14    21    22   ar
    15    22    23    1
    16    22    24   ar
    17    24    27    1
    18    27    28    1
    19    24    25   ar
    20     4     5    1
    21     5    29    1
    22    29    30    1
    23     8     9   ar
    24     9    10   ar
    25    10    11   ar
    26    11    12    1
    27    11     6   ar
    28     5     1    1
    29    25    19   ar
    30    17    18    1
    31    23    26    1
    32    30    31    1
    33    12    13    1
@<TRIPOS>MOLECULE
*****
 31 33 0 0 0
SMALL
GASTEIGER

@<TRIPOS>ATOM
      1 C         -14.6402   -6.3584   19.3180 C.3     1  UNL1        0.1400
      2 O         -15.1711   -5.1228   19.9824 O.3     1  UNL1       -0.3517
      3 C         -14.0941   -4.0792   19.9486 C.3     1  UNL1        0.1454
      4 C         -12.8976   -4.6699   19.2634 C.3     1  UNL1        0.0659
      5 C         -13.2351   -6.0785   18.8737 C.3     1  UNL1        0.0658
      6 C         -17.5020   -9.1004   19.5215 C.ar    1  UNL1        0.1719
      7 C         -16.7583   -7.8113   19.7087 C.ar    1  UNL1        0.0381
      8 C         -15.3838   -7.6476   19.1308 C.ar    1  UNL1        0.0078
      9 C         -14.7529   -8.7731   18.3659 C.ar    1  UNL1        0.0014
     10 C         -15.4966  -10.0622   18.1787 C.ar    1  UNL1        0.0395
     11 C         -16.8711  -10.2259   18.7566 C.ar    1  UNL1        0.1677
     12 O         -17.6147  -11.5152   18.5694 O.3     1  UNL1       -0.5029
     13 H         -17.2206  -12.2182   18.0915 H       1  UNL1        0.2923
     14 C         -19.6343   -8.0637   20.5838 C.3     1  UNL1        0.2526
     15 O         -18.8765   -9.2641   20.0994 O.3     1  UNL1       -0.4684
     16 C         -11.5927   -3.9741   19.0121 C.3     1  UNL1        0.1353
     17 O         -10.3059   -4.6169   19.4375 O.3     1  UNL1       -0.3800
     18 H         -10.4942   -5.4716   19.8558 H       1  UNL1        0.2108
     19 C         -11.5746   -2.6356   18.3354 C.ar    1  UNL1        0.0075
     20 C         -10.7378   -2.4268   17.1082 C.ar    1  UNL1        0.0014
     21 C         -10.7199   -1.0882   16.4316 C.ar    1  UNL1        0.0395
     22 C         -11.5386    0.0415   16.9822 C.ar    1  UNL1        0.1677
     23 O         -11.5206    1.3802   16.3055 O.3     1  UNL1       -0.5029
     24 C         -12.3753   -0.1672   18.2094 C.ar    1  UNL1        0.1719
     25 C         -12.3934   -1.5058   18.8861 C.ar    1  UNL1        0.0381
     26 H         -10.9979    1.5106   15.5389 H       1  UNL1        0.2923
     27 O         -13.1941    0.9627   18.7600 O.3     1  UNL1       -0.4684
     28 C         -14.6366    1.1017   18.3727 C.3     1  UNL1        0.2526
     29 C         -12.3269   -7.0386   18.1642 C.3     1  UNL1        0.1400
     30 O         -11.0626   -7.5025   18.8247 O.3     1  UNL1       -0.3819
     31 H         -10.4570   -6.7517   18.9270 H       1  UNL1        0.2104
@<TRIPOS>BOND
     1    14    15    1
     2    15     6    1
     3     6     7   ar
     4     7     8   ar
     5     1     8    1
     6     1     2    1
     7     2     3    1
     8     4     3    1
     9     4    16    1
    10    16    17    1
    11    16    19    1
    12    19    20   ar
    13    20    21   ar
    14    21    22   ar
    15    22    23    1
    16    22    24   ar
    17    24    27    1
    18    27    28    1
    19    24    25   ar
    20     4     5    1
    21     5    29    1
    22    29    30    1
    23     8     9   ar
    24     9    10   ar
    25    10    11   ar
    26    11    12    1
    27    11     6   ar
    28     5     1    1
    29    25    19   ar
    30    17    18    1
    31    23    26    1
    32    30    31    1
    33    12    13    1
@<TRIPOS>MOLECULE
*****
 31 33 0 0 0
SMALL
GASTEIGER

@<TRIPOS>ATOM
      1 C          -4.9074  -16.9455   23.2172 C.3     1  UNL1        0.1400
      2 O          -4.7275  -15.8224   24.1951 O.3     1  UNL1       -0.3517
      3 C          -6.0678  -15.5060   24.7894 C.3     1  UNL1        0.1454
      4 C          -7.0763  -16.4336   24.1788 C.3     1  UNL1        0.0659
      5 C          -6.3591  -17.3232   23.2072 C.3     1  UNL1        0.0658
      6 C          -1.6531  -17.3666   20.9852 C.ar    1  UNL1        0.1719
      7 C          -2.7348  -16.7326   21.8084 C.ar    1  UNL1        0.0381
      8 C          -3.8256  -17.5796   22.3939 C.ar    1  UNL1        0.0078
      9 C          -3.8348  -19.0605   22.1560 C.ar    1  UNL1        0.0014
     10 C          -2.7531  -19.6946   21.3327 C.ar    1  UNL1        0.0395
     11 C          -1.6622  -18.8476   20.7473 C.ar    1  UNL1        0.1677
     12 O          -0.5804  -19.4817   19.9240 O.3     1  UNL1       -0.5029
     13 H          -0.5862  -20.4068   19.7754 H       1  UNL1        0.2923
     14 C           0.7778  -17.1239   20.1009 C.3     1  UNL1        0.2526
     15 O          -0.5622  -16.5197   20.3997 O.3     1  UNL1       -0.4684
     16 C          -8.5441  -16.4658   24.4860 C.3     1  UNL1        0.1353
     17 O          -9.0112  -16.5300   25.9100 O.3     1  UNL1       -0.3800
     18 H          -8.2428  -16.5438   26.5019 H       1  UNL1        0.2108
     19 C          -9.5449  -16.4339   23.3691 C.ar    1  UNL1        0.0075
     20 C          -9.2258  -15.7065   22.0967 C.ar    1  UNL1        0.0014
     21 C         -10.2266  -15.6746   20.9799 C.ar    1  UNL1        0.0395
     22 C         -11.5465  -16.3700   21.1355 C.ar    1  UNL1        0.1677
     23 O         -12.5474  -16.3380   20.0186 O.3     1  UNL1       -0.5029
     24 C         -11.8656  -17.0973   22.4079 C.ar    1  UNL1        0.1719
     25 C         -10.8648  -17.1292   23.5247 C.ar    1  UNL1        0.0381
     26 H         -12.3481  -15.8837   19.2238 H       1  UNL1        0.2923
     27 O         -13.1856  -17.7927   22.5635 O.3     1  UNL1       -0.4684
     28 C         -13.7344  -18.0621   23.9333 C.3     1  UNL1        0.2526
     29 C          -6.9838  -18.4013   22.3721 C.3     1  UNL1        0.1400
     30 O          -7.1708  -18.1948   20.8982 O.3     1  UNL1       -0.3819
     31 H          -7.8125  -17.4825   20.7503 H       1  UNL1        0.2104
@<TRIPOS>BOND
     1    14    15    1
     2    15     6    1
     3     6     7   ar
     4     7     8   ar
     5     1     8    1
     6     1     2    1
     7     2     3    1
     8     4     3    1
     9     4    16    1
    10    16    17    1
    11    16    19    1
    12    19    20   ar
    13    20    21   ar
    14    21    22   ar
    15    22    23    1
    16    22    24   ar
    17    24    27    1
    18    27    28    1
    19    24    25   ar
    20     4     5    1
    21     5    29    1
    22    29    30    1
    23     8     9   ar
    24     9    10   ar
    25    10    11   ar
    26    11    12    1
    27    11     6   ar
    28     5     1    1
    29    25    19   ar
    30    17    18    1
    31    23    26    1
    32    30    31    1
    33    12    13    1
@<TRIPOS>MOLECULE
*****
 31 33 0 0 0
SMALL
GASTEIGER

@<TRIPOS>ATOM
      1 C          -5.6459  -16.8511   23.5521 C.3     1  UNL1        0.1400
      2 O          -5.8885  -15.8587   24.6504 O.3     1  UNL1       -0.3517
      3 C          -7.3346  -15.9430   25.0401 C.3     1  UNL1        0.1454
      4 C          -7.9856  -16.9875   24.1826 C.3     1  UNL1        0.0659
      5 C          -6.9420  -17.5487   23.2631 C.3     1  UNL1        0.0658
      6 C          -2.6608  -18.7422   21.7457 C.ar    1  UNL1        0.1719
      7 C          -3.9696  -18.4914   22.4341 C.ar    1  UNL1        0.0381
      8 C          -4.3369  -17.1019   22.8637 C.ar    1  UNL1        0.0078
      9 C          -3.3953  -15.9634   22.6050 C.ar    1  UNL1        0.0014
     10 C          -2.0865  -16.2142   21.9166 C.ar    1  UNL1        0.0395
     11 C          -1.7192  -17.6036   21.4870 C.ar    1  UNL1        0.1677
     12 O          -0.4102  -17.8545   20.7986 O.3     1  UNL1       -0.5029
     13 H           0.1780  -17.1432   20.6370 H       1  UNL1        0.2923
     14 C          -3.0230  -20.7825   20.1785 C.3     1  UNL1        0.2526
     15 O          -2.2935  -20.1317   21.3161 O.3     1  UNL1       -0.4684
     16 C          -9.4272  -17.3985   24.2356 C.3     1  UNL1        0.1353
     17 O          -9.9479  -18.1571   25.4203 O.3     1  UNL1       -0.3800
     18 H          -9.2284  -18.2983   26.0554 H       1  UNL1        0.2108
     19 C         -10.3482  -17.0510   23.1037 C.ar    1  UNL1        0.0075
     20 C         -11.3457  -15.9420   23.2620 C.ar    1  UNL1        0.0014
     21 C         -12.2666  -15.5945   22.1301 C.ar    1  UNL1        0.0395
     22 C         -12.1901  -16.3561   20.8401 C.ar    1  UNL1        0.1677
     23 O         -13.1111  -16.0086   19.7082 O.3     1  UNL1       -0.5029
     24 C         -11.1926  -17.4650   20.6819 C.ar    1  UNL1        0.1719
     25 C         -10.2717  -17.8125   21.8137 C.ar    1  UNL1        0.0381
     26 H         -13.7342  -15.3158   19.8070 H       1  UNL1        0.2923
     27 O         -11.1161  -18.2266   19.3918 O.3     1  UNL1       -0.4684
     28 C         -10.1581  -19.3725   19.2531 C.3     1  UNL1        0.2526
     29 C          -7.1567  -18.6196   22.2349 C.3     1  UNL1        0.1400
     30 O          -7.0257  -18.2958   20.7761 O.3     1  UNL1       -0.3819
     31 H          -7.7284  -17.6792   20.5174 H       1  UNL1        0.2104
@<TRIPOS>BOND
     1    14    15    1
     2    15     6    1
     3     6     7   ar
     4     7     8   ar
     5     1     8    1
     6     1     2    1
     7     2     3    1
     8     4     3    1
     9     4    16    1
    10    16    17    1
    11    16    19    1
    12    19    20   ar
    13    20    21   ar
    14    21    22   ar
    15    22    23    1
    16    22    24   ar
    17    24    27    1
    18    27    28    1
    19    24    25   ar
    20     4     5    1
    21     5    29    1
    22    29    30    1
    23     8     9   ar
    24     9    10   ar
    25    10    11   ar
    26    11    12    1
    27    11     6   ar
    28     5     1    1
    29    25    19   ar
    30    17    18    1
    31    23    26    1
    32    30    31    1
    33    12    13    1
@<TRIPOS>MOLECULE
*****
 31 33 0 0 0
SMALL
GASTEIGER

@<TRIPOS>ATOM
      1 C          -6.2650  -19.8598   20.2258 C.3     1  UNL1        0.1400
      2 O          -6.5942  -20.8805   19.1772 O.3     1  UNL1       -0.3517
      3 C          -8.0783  -20.8609   18.9609 C.3     1  UNL1        0.1454
      4 C          -8.6665  -19.8279   19.8759 C.3     1  UNL1        0.0659
      5 C          -7.5458  -19.2092   20.6577 C.3     1  UNL1        0.0658
      6 C          -2.4394  -18.8091   20.3306 C.ar    1  UNL1        0.1719
      7 C          -3.8088  -19.1241   19.8059 C.ar    1  UNL1        0.0381
      8 C          -4.8955  -19.5448   20.7505 C.ar    1  UNL1        0.0078
      9 C          -4.6126  -19.6505   22.2198 C.ar    1  UNL1        0.0014
     10 C          -3.2431  -19.3355   22.7444 C.ar    1  UNL1        0.0395
     11 C          -2.1565  -18.9148   21.7998 C.ar    1  UNL1        0.1677
     12 O          -0.7870  -18.5998   22.3246 O.3     1  UNL1       -0.5029
     13 H          -0.6103  -18.6659   23.2424 H       1  UNL1        0.2923
     14 C          -1.7047  -17.8210   18.0428 C.3     1  UNL1        0.2526
     15 O          -1.3528  -18.3884   19.3860 O.3     1  UNL1       -0.4684
     16 C         -10.1201  -19.4756   19.9893 C.3     1  UNL1        0.1353
     17 O         -10.9512  -19.3133   18.7511 O.3     1  UNL1       -0.3800
     18 H         -10.3996  -19.4692   17.9687 H       1  UNL1        0.2108
     19 C         -10.7426  -19.2856   21.3407 C.ar    1  UNL1        0.0075
     20 C         -10.4743  -20.2749   22.4358 C.ar    1  UNL1        0.0014
     21 C         -11.0967  -20.0849   23.7872 C.ar    1  UNL1        0.0395
     22 C         -11.9875  -18.9056   24.0435 C.ar    1  UNL1        0.1677
     23 O         -12.6101  -18.7156   25.3950 O.3     1  UNL1       -0.5029
     24 C         -12.2559  -17.9164   22.9485 C.ar    1  UNL1        0.1719
     25 C         -11.6334  -18.1063   21.5970 C.ar    1  UNL1        0.0381
     26 H         -12.4425  -19.3335   26.0791 H       1  UNL1        0.2923
     27 O         -13.1467  -16.7370   23.2048 O.3     1  UNL1       -0.4684
     28 C         -12.7637  -15.3816   22.6888 C.3     1  UNL1        0.2526
     29 C          -7.6819  -18.1296   21.6900 C.3     1  UNL1        0.1400
     30 O          -8.1728  -16.7691   21.2922 O.3     1  UNL1       -0.3819
     31 H          -7.5246  -16.3507   20.7042 H       1  UNL1        0.2104
@<TRIPOS>BOND
     1    14    15    1
     2    15     6    1
     3     6     7   ar
     4     7     8   ar
     5     1     8    1
     6     1     2    1
     7     2     3    1
     8     4     3    1
     9     4    16    1
    10    16    17    1
    11    16    19    1
    12    19    20   ar
    13    20    21   ar
    14    21    22   ar
    15    22    23    1
    16    22    24   ar
    17    24    27    1
    18    27    28    1
    19    24    25   ar
    20     4     5    1
    21     5    29    1
    22    29    30    1
    23     8     9   ar
    24     9    10   ar
    25    10    11   ar
    26    11    12    1
    27    11     6   ar
    28     5     1    1
    29    25    19   ar
    30    17    18    1
    31    23    26    1
    32    30    31    1
    33    12    13    1
@<TRIPOS>MOLECULE
*****
 31 33 0 0 0
SMALL
GASTEIGER

@<TRIPOS>ATOM
      1 C         -14.0568   -4.2791   18.2722 C.3     1  UNL1        0.1400
      2 O         -15.0726   -4.1986   17.1715 O.3     1  UNL1       -0.3517
      3 C         -16.1304   -3.2198   17.5877 C.3     1  UNL1        0.1454
      4 C         -15.7683   -2.6954   18.9456 C.3     1  UNL1        0.0659
      5 C         -14.4867   -3.3501   19.3687 C.3     1  UNL1        0.0658
      6 C         -10.3186   -5.4781   17.6906 C.ar    1  UNL1        0.1719
      7 C         -11.5484   -4.6195   17.6869 C.ar    1  UNL1        0.0381
      8 C         -12.8269   -5.1379   18.2759 C.ar    1  UNL1        0.0078
      9 C         -12.8755   -6.5150   18.8685 C.ar    1  UNL1        0.0014
     10 C         -11.6456   -7.3737   18.8721 C.ar    1  UNL1        0.0395
     11 C         -10.3672   -6.8552   18.2831 C.ar    1  UNL1        0.1677
     12 O          -9.1373   -7.7140   18.2868 O.3     1  UNL1       -0.5029
     13 H          -9.1676   -8.5743   18.6570 H       1  UNL1        0.2923
     14 C          -9.0480   -3.7062   16.2779 C.3     1  UNL1        0.2526
     15 O          -9.0402   -4.9597   17.1016 O.3     1  UNL1       -0.4684
     16 C         -16.5504   -1.6925   19.7409 C.3     1  UNL1        0.1353
     17 O         -17.7146   -2.1396   20.5744 O.3     1  UNL1       -0.3800
     18 H         -17.8247   -3.0994   20.4877 H       1  UNL1        0.2108
     19 C         -16.1683   -0.2425   19.7025 C.ar    1  UNL1        0.0075
     20 C         -16.9412    0.7584   20.5092 C.ar    1  UNL1        0.0014
     21 C         -16.5591    2.2083   20.4708 C.ar    1  UNL1        0.0395
     22 C         -15.4040    2.6574   19.6257 C.ar    1  UNL1        0.1677
     23 O         -15.0219    4.1075   19.5873 O.3     1  UNL1       -0.5029
     24 C         -14.6312    1.6566   18.8190 C.ar    1  UNL1        0.1719
     25 C         -15.0133    0.2066   18.8574 C.ar    1  UNL1        0.0381
     26 H         -15.5047    4.7328   20.0913 H       1  UNL1        0.2923
     27 O         -13.4761    2.1058   17.9739 O.3     1  UNL1       -0.4684
     28 C         -12.7340    1.1128   17.1293 C.3     1  UNL1        0.2526
     29 C         -13.7623   -3.1168   20.6612 C.3     1  UNL1        0.1400
     30 O         -14.3852   -3.5425   21.9576 O.3     1  UNL1       -0.3819
     31 H         -15.1831   -3.0157   22.1214 H       1  UNL1        0.2104
@<TRIPOS>BOND
     1    14    15    1
     2    15     6    1
     3     6     7   ar
     4     7     8   ar
     5     1     8    1
     6     1     2    1
     7     2     3    1
     8     4     3    1
     9     4    16    1
    10    16    17    1
    11    16    19    1
    12    19    20   ar
    13    20    21   ar
    14    21    22   ar
    15    22    23    1
    16    22    24   ar
    17    24    27    1
    18    27    28    1
    19    24    25   ar
    20     4     5    1
    21     5    29    1
    22    29    30    1
    23     8     9   ar
    24     9    10   ar
    25    10    11   ar
    26    11    12    1
    27    11     6   ar
    28     5     1    1
    29    25    19   ar
    30    17    18    1
    31    23    26    1
    32    30    31    1
    33    12    13    1
