@<TRIPOS>MOLECULE
*****
 42 46 0 0 0
SMALL
GASTEIGER

@<TRIPOS>ATOM
      1 C           5.1769   -1.8723   25.7046 C.3     1  UNL1        0.1244
      2 N           5.9514   -3.0036   25.0961 N.3     1  UNL1       -0.2823
      3 C           5.8388   -3.5778   23.7149 C.3     1  UNL1        0.1560
      4 C           4.9240   -3.1624   22.6011 C.2     1  UNL1        0.2457
      5 O           5.1851   -4.0384   21.4118 O.2     1  UNL1       -0.2730
      6 N           3.8957   -2.0703   22.5935 N.am    1  UNL1       -0.2533
      7 C           3.5283   -1.1238   23.6977 C.ar    1  UNL1        0.0518
      8 C           2.4426   -0.1804   23.2722 C.ar    1  UNL1        0.0146
      9 C           1.9270    0.8511   24.2314 C.ar    1  UNL1        0.0013
     10 C           2.4972    0.9392   25.6160 C.ar    1  UNL1       -0.0002
     11 C           3.5829   -0.0042   26.0414 C.ar    1  UNL1       -0.0014
     12 C           4.0985   -1.0357   25.0823 C.ar    1  UNL1        0.0118
     13 H           5.7784   -3.7946   25.7165 H       1  UNL1        0.1243
     14 C           4.8095   -0.9258   26.8089 C.ar    1  UNL1       -0.0019
     15 C           5.5071    0.3969   26.9260 C.ar    1  UNL1       -0.0026
     16 C           5.1398    1.3433   28.0302 C.ar    1  UNL1       -0.0003
     17 C           4.0749    0.9671   29.0173 C.ar    1  UNL1       -0.0000
     18 C           3.3772   -0.3557   28.9001 C.ar    1  UNL1       -0.0003
     19 C           3.7446   -1.3021   27.7959 C.ar    1  UNL1       -0.0026
     20 C           6.0917   -2.2877   26.8184 C.3     1  UNL1        0.2256
     21 C           7.4650   -1.6933   26.9221 C.2     1  UNL1        0.0920
     22 O           8.0796   -1.4556   28.2697 O.co2   1  UNL1       -0.5455
     23 O           8.2237   -1.3365   25.6784 O.co2   1  UNL1       -0.5455
     24 O           5.6333   -3.2974   27.8285 O.3     1  UNL1       -0.4426
     25 C           8.4239   -6.2991   31.0227 C.3     1  UNL1        0.0523
     26 C           7.8375   -6.0381   29.6669 C.ar    1  UNL1        0.0652
     27 C           8.0601   -7.0172   28.5524 C.ar    1  UNL1        0.0297
     28 C           7.4738   -6.7562   27.1966 C.ar    1  UNL1        0.0652
     29 C           7.6964   -7.7353   26.0821 C.3     1  UNL1        0.0523
     30 N           6.6649   -5.5164   26.9553 N.ar    1  UNL1       -0.1986
     31 C           6.4423   -4.5374   28.0698 C.ar    1  UNL1        0.3196
     32 N           7.0286   -4.7983   29.4256 N.ar    1  UNL1       -0.1986
     33 C           3.1341   -1.9025   21.3121 C.3     1  UNL1        0.1292
     34 C           3.8238   -1.3608   20.0951 C.ar    1  UNL1        0.0531
     35 C           4.4444    0.0042   20.1300 C.ar    1  UNL1        0.1422
     36 F           4.4682    0.9558   21.2893 F       1  UNL1       -0.2043
     37 C           5.1341    0.5459   18.9131 C.ar    1  UNL1        0.0591
     38 C           5.2031   -0.2776   17.6612 C.ar    1  UNL1        0.1446
     39 F           5.8927    0.2641   16.4442 F       1  UNL1       -0.2040
     40 C           4.5824   -1.6427   17.6264 C.ar    1  UNL1        0.0591
     41 C           3.8928   -2.1843   18.8433 C.ar    1  UNL1        0.1422
     42 F           3.2721   -3.5495   18.8084 F       1  UNL1       -0.2043
@<TRIPOS>UNITY_ATOM_ATTR
22 1
charge -1
@<TRIPOS>BOND
     1    25    26    1
     2    26    27   ar
     3    27    28   ar
     4    28    29    1
     5    28    30   ar
     6    30    31   ar
     7    31    24    1
     8    20    24    1
     9    20    21    1
    10    21    22   ar
    11    21    23   ar
    12    20     1    1
    13     1    14    1
    14    14    15   ar
    15    15    16   ar
    16    16    17   ar
    17    17    18   ar
    18    18    19   ar
    19     1     2    1
    20     2     3    1
    21     3     4    1
    22     4     5    2
    23     4     6   am
    24     6    33    1
    25    33    34    1
    26    34    35   ar
    27    35    36    1
    28    35    37   ar
    29    37    38   ar
    30    38    39    1
    31    38    40   ar
    32    40    41   ar
    33    41    42    1
    34     6     7    1
    35     7     8   ar
    36     8     9   ar
    37     9    10   ar
    38    10    11   ar
    39    11    12   ar
    40    31    32   ar
    41    32    26   ar
    42    12     1    1
    43    19    14   ar
    44    41    34   ar
    45    12     7   ar
    46     2    13    1
@<TRIPOS>MOLECULE
*****
 42 46 0 0 0
SMALL
GASTEIGER

@<TRIPOS>ATOM
      1 C           5.1923   -1.8741   25.7010 C.3     1  UNL1        0.1244
      2 N           5.9556   -3.0076   25.0825 N.3     1  UNL1       -0.2823
      3 C           5.8285   -3.5766   23.7004 C.3     1  UNL1        0.1560
      4 C           4.9067   -3.1526   22.5955 C.2     1  UNL1        0.2457
      5 O           5.1532   -4.0261   21.4013 O.2     1  UNL1       -0.2730
      6 N           3.8844   -2.0550   22.6000 N.am    1  UNL1       -0.2533
      7 C           3.5313   -1.1101   23.7103 C.ar    1  UNL1        0.0518
      8 C           2.4472   -0.1595   23.2969 C.ar    1  UNL1        0.0146
      9 C           1.9452    0.8717   24.2637 C.ar    1  UNL1        0.0013
     10 C           2.5273    0.9521   25.6438 C.ar    1  UNL1       -0.0002
     11 C           3.6114    0.0015   26.0572 C.ar    1  UNL1       -0.0014
     12 C           4.1134   -1.0297   25.0904 C.ar    1  UNL1        0.0118
     13 H           5.7834   -3.7996   25.7017 H       1  UNL1        0.1243
     14 C           4.8392   -0.9293   26.8114 C.ar    1  UNL1       -0.0019
     15 C           3.7803   -1.3030   27.8059 C.ar    1  UNL1       -0.0026
     16 C           3.4273   -0.3583   28.9162 C.ar    1  UNL1       -0.0003
     17 C           4.1331    0.9601   29.0320 C.ar    1  UNL1       -0.0000
     18 C           5.1921    1.3339   28.0374 C.ar    1  UNL1       -0.0003
     19 C           5.5451    0.3891   26.9271 C.ar    1  UNL1       -0.0026
     20 C           6.1141   -2.2981   26.8059 C.3     1  UNL1        0.2256
     21 C           7.4946   -1.7183   26.8948 C.2     1  UNL1        0.0920
     22 O           8.2411   -1.3634   25.6430 O.co2   1  UNL1       -0.5455
     23 O           8.1287   -1.4934   28.2354 O.co2   1  UNL1       -0.5455
     24 O           5.6553   -3.3018   27.8218 O.3     1  UNL1       -0.4426
     25 C           7.6888   -7.7672   26.1114 C.3     1  UNL1        0.0523
     26 C           7.4807   -6.7731   27.2153 C.ar    1  UNL1        0.0652
     27 C           8.0812   -7.0177   28.5680 C.ar    1  UNL1        0.0297
     28 C           7.8731   -6.0237   29.6718 C.ar    1  UNL1        0.0652
     29 C           8.4736   -6.2683   31.0245 C.3     1  UNL1        0.0523
     30 N           7.0645   -4.7851   29.4231 N.ar    1  UNL1       -0.1986
     31 C           6.4639   -4.5405   28.0705 C.ar    1  UNL1        0.3196
     32 N           6.6721   -5.5345   26.9666 N.ar    1  UNL1       -0.1986
     33 C           3.1131   -1.8788   21.3256 C.3     1  UNL1        0.1292
     34 C           3.7955   -1.3365   20.1048 C.ar    1  UNL1        0.0531
     35 C           4.4169    0.0283   20.1369 C.ar    1  UNL1        0.1422
     36 F           4.4482    0.9790   21.2968 F       1  UNL1       -0.2043
     37 C           5.0993    0.5706   18.9162 C.ar    1  UNL1        0.0591
     38 C           5.1603   -0.2519   17.6633 C.ar    1  UNL1        0.1446
     39 F           5.8427    0.2904   16.4425 F       1  UNL1       -0.2040
     40 C           4.5389   -1.6167   17.6312 C.ar    1  UNL1        0.0591
     41 C           3.8565   -2.1591   18.8519 C.ar    1  UNL1        0.1422
     42 F           3.2350   -3.5239   18.8198 F       1  UNL1       -0.2043
@<TRIPOS>UNITY_ATOM_ATTR
22 1
charge -1
@<TRIPOS>BOND
     1    25    26    1
     2    26    27   ar
     3    27    28   ar
     4    28    29    1
     5    28    30   ar
     6    30    31   ar
     7    31    24    1
     8    20    24    1
     9    20    21    1
    10    21    22   ar
    11    21    23   ar
    12    20     1    1
    13     1    14    1
    14    14    15   ar
    15    15    16   ar
    16    16    17   ar
    17    17    18   ar
    18    18    19   ar
    19     1     2    1
    20     2     3    1
    21     3     4    1
    22     4     5    2
    23     4     6   am
    24     6    33    1
    25    33    34    1
    26    34    35   ar
    27    35    36    1
    28    35    37   ar
    29    37    38   ar
    30    38    39    1
    31    38    40   ar
    32    40    41   ar
    33    41    42    1
    34     6     7    1
    35     7     8   ar
    36     8     9   ar
    37     9    10   ar
    38    10    11   ar
    39    11    12   ar
    40    31    32   ar
    41    32    26   ar
    42    12     1    1
    43    19    14   ar
    44    41    34   ar
    45    12     7   ar
    46     2    13    1
@<TRIPOS>MOLECULE
*****
 42 46 0 0 0
SMALL
GASTEIGER

@<TRIPOS>ATOM
      1 C          -0.1907    2.5515   23.0661 C.3     1  UNL1        0.1244
      2 N          -0.7414    2.6367   21.6735 N.3     1  UNL1       -0.2823
      3 C          -0.3562    1.8360   20.4649 C.3     1  UNL1        0.1560
      4 C           0.6747    0.7524   20.3505 C.2     1  UNL1        0.2457
      5 O           0.6934    0.2533   18.9362 O.2     1  UNL1       -0.2730
      6 N           1.5751    0.2020   21.4165 N.am    1  UNL1       -0.2533
      7 C           1.6670    0.5990   22.8601 C.ar    1  UNL1        0.0518
      8 C           2.7044   -0.2062   23.5850 C.ar    1  UNL1        0.0146
      9 C           2.9559    0.0344   25.0441 C.ar    1  UNL1        0.0013
     10 C           2.1700    1.0800   25.7782 C.ar    1  UNL1       -0.0002
     11 C           1.1326    1.8852   25.0533 C.ar    1  UNL1       -0.0014
     12 C           0.8811    1.6447   23.5943 C.ar    1  UNL1        0.0118
     13 H          -0.5881    3.6065   21.3970 H       1  UNL1        0.1243
     14 C          -0.0989    2.9486   24.5098 C.ar    1  UNL1       -0.0019
     15 C          -0.9481    2.2556   25.5337 C.ar    1  UNL1       -0.0026
     16 C          -0.8563    2.6526   26.9773 C.ar    1  UNL1       -0.0003
     17 C           0.0847    3.7427   27.3969 C.ar    1  UNL1       -0.0000
     18 C           0.9340    4.4359   26.3729 C.ar    1  UNL1       -0.0003
     19 C           0.8421    4.0387   24.9293 C.ar    1  UNL1       -0.0026
     20 C          -1.2217    3.6351   23.1805 C.3     1  UNL1        0.2256
     21 C          -0.8849    5.0373   22.7677 C.2     1  UNL1        0.0920
     22 O           0.1678    5.2804   21.7271 O.co2   1  UNL1       -0.5455
     23 O          -1.6007    6.1963   23.3954 O.co2   1  UNL1       -0.5455
     24 O          -2.5893    3.3164   23.7077 O.3     1  UNL1       -0.4426
     25 C          -7.6325    4.4987   23.2964 C.3     1  UNL1        0.0523
     26 C          -6.3203    4.1623   22.6522 C.ar    1  UNL1        0.0652
     27 C          -6.2176    4.0805   21.1579 C.ar    1  UNL1        0.0297
     28 C          -4.9055    3.7441   20.5136 C.ar    1  UNL1        0.0652
     29 C          -4.8028    3.6624   19.0193 C.3     1  UNL1        0.0523
     30 N          -3.6961    3.4894   21.3635 N.ar    1  UNL1       -0.1986
     31 C          -3.7988    3.5712   22.8578 C.ar    1  UNL1        0.3196
     32 N          -5.1109    3.9076   23.5021 N.ar    1  UNL1       -0.1986
     33 C           2.5069   -0.8901   20.9814 C.3     1  UNL1        0.1292
     34 C           3.5085   -0.6327   19.8948 C.ar    1  UNL1        0.0531
     35 C           4.1846    0.7028   19.7991 C.ar    1  UNL1        0.1422
     36 F           3.9797    1.8851   20.6993 F       1  UNL1       -0.2043
     37 C           5.1862    0.9603   18.7126 C.ar    1  UNL1        0.0591
     38 C           5.5116   -0.1179   17.7218 C.ar    1  UNL1        0.1446
     39 F           6.5133    0.1395   16.6352 F       1  UNL1       -0.2040
     40 C           4.8355   -1.4534   17.8175 C.ar    1  UNL1        0.0591
     41 C           3.8339   -1.7108   18.9040 C.ar    1  UNL1        0.1422
     42 F           3.1578   -3.0464   18.9998 F       1  UNL1       -0.2043
@<TRIPOS>UNITY_ATOM_ATTR
22 1
charge -1
@<TRIPOS>BOND
     1    25    26    1
     2    26    27   ar
     3    27    28   ar
     4    28    29    1
     5    28    30   ar
     6    30    31   ar
     7    31    24    1
     8    20    24    1
     9    20    21    1
    10    21    22   ar
    11    21    23   ar
    12    20     1    1
    13     1    14    1
    14    14    15   ar
    15    15    16   ar
    16    16    17   ar
    17    17    18   ar
    18    18    19   ar
    19     1     2    1
    20     2     3    1
    21     3     4    1
    22     4     5    2
    23     4     6   am
    24     6    33    1
    25    33    34    1
    26    34    35   ar
    27    35    36    1
    28    35    37   ar
    29    37    38   ar
    30    38    39    1
    31    38    40   ar
    32    40    41   ar
    33    41    42    1
    34     6     7    1
    35     7     8   ar
    36     8     9   ar
    37     9    10   ar
    38    10    11   ar
    39    11    12   ar
    40    31    32   ar
    41    32    26   ar
    42    12     1    1
    43    19    14   ar
    44    41    34   ar
    45    12     7   ar
    46     2    13    1
@<TRIPOS>MOLECULE
*****
 42 46 0 0 0
SMALL
GASTEIGER

@<TRIPOS>ATOM
      1 C          -0.1410    2.5199   23.0888 C.3     1  UNL1        0.1244
      2 N          -0.6900    2.6005   21.6952 N.3     1  UNL1       -0.2823
      3 C          -0.3050    1.7943   20.4903 C.3     1  UNL1        0.1560
      4 C           0.7241    0.7083   20.3814 C.2     1  UNL1        0.2457
      5 O           0.7434    0.2034   18.9691 O.2     1  UNL1       -0.2730
      6 N           1.6222    0.1605   21.4506 N.am    1  UNL1       -0.2533
      7 C           1.7132    0.5632   22.8927 C.ar    1  UNL1        0.0518
      8 C           2.7483   -0.2410   23.6220 C.ar    1  UNL1        0.0146
      9 C           2.9987    0.0050   25.0803 C.ar    1  UNL1        0.0013
     10 C           2.2139    1.0550   25.8094 C.ar    1  UNL1       -0.0002
     11 C           1.1788    1.8592   25.0801 C.ar    1  UNL1       -0.0014
     12 C           0.9285    1.6133   23.6218 C.ar    1  UNL1        0.0118
     13 H          -0.5347    3.5689   21.4150 H       1  UNL1        0.1243
     14 C          -0.0501    2.9227   24.5309 C.ar    1  UNL1       -0.0019
     15 C           0.8959    4.0096   24.9478 C.ar    1  UNL1       -0.0026
     16 C           0.9868    4.4124   26.3898 C.ar    1  UNL1       -0.0003
     17 C           0.1319    3.7282   27.4150 C.ar    1  UNL1       -0.0000
     18 C          -0.8141    2.6412   26.9981 C.ar    1  UNL1       -0.0003
     19 C          -0.9050    2.2385   25.5560 C.ar    1  UNL1       -0.0026
     20 C          -1.1701    3.6059   23.1977 C.3     1  UNL1        0.2256
     21 C          -0.8264    5.0083   22.7912 C.2     1  UNL1        0.0920
     22 O           0.2175    5.2504   21.7416 O.co2   1  UNL1       -0.5455
     23 O          -1.5266    6.1684   23.4342 O.co2   1  UNL1       -0.5455
     24 O          -2.5427    3.2894   23.7130 O.3     1  UNL1       -0.4426
     25 C          -4.7176    3.6658   19.0089 C.3     1  UNL1        0.0523
     26 C          -4.8322    3.7393   20.5027 C.ar    1  UNL1        0.0652
     27 C          -6.1490    4.0746   21.1383 C.ar    1  UNL1        0.0297
     28 C          -6.2636    4.1481   22.6321 C.ar    1  UNL1        0.0652
     29 C          -7.5803    4.4834   23.2677 C.3     1  UNL1        0.0523
     30 N          -5.0616    3.8864   23.4903 N.ar    1  UNL1       -0.1986
     31 C          -3.7448    3.5511   22.8547 C.ar    1  UNL1        0.3196
     32 N          -3.6302    3.4776   21.3609 N.ar    1  UNL1       -0.1986
     33 C           2.5524   -0.9350   21.0209 C.3     1  UNL1        0.1292
     34 C           3.5604   -0.6818   19.9393 C.ar    1  UNL1        0.0531
     35 C           4.2603    0.6426   19.8615 C.ar    1  UNL1        0.1422
     36 F           4.0749    1.8168   20.7763 F       1  UNL1       -0.2043
     37 C           5.2683    0.8959   18.7800 C.ar    1  UNL1        0.0591
     38 C           5.5763   -0.1753   17.7761 C.ar    1  UNL1        0.1446
     39 F           6.5843    0.0779   16.6945 F       1  UNL1       -0.2040
     40 C           4.8764   -1.4996   17.8539 C.ar    1  UNL1        0.0591
     41 C           3.8684   -1.7529   18.9354 C.ar    1  UNL1        0.1422
     42 F           3.1684   -3.0773   19.0132 F       1  UNL1       -0.2043
@<TRIPOS>UNITY_ATOM_ATTR
22 1
charge -1
@<TRIPOS>BOND
     1    25    26    1
     2    26    27   ar
     3    27    28   ar
     4    28    29    1
     5    28    30   ar
     6    30    31   ar
     7    31    24    1
     8    20    24    1
     9    20    21    1
    10    21    22   ar
    11    21    23   ar
    12    20     1    1
    13     1    14    1
    14    14    15   ar
    15    15    16   ar
    16    16    17   ar
    17    17    18   ar
    18    18    19   ar
    19     1     2    1
    20     2     3    1
    21     3     4    1
    22     4     5    2
    23     4     6   am
    24     6    33    1
    25    33    34    1
    26    34    35   ar
    27    35    36    1
    28    35    37   ar
    29    37    38   ar
    30    38    39    1
    31    38    40   ar
    32    40    41   ar
    33    41    42    1
    34     6     7    1
    35     7     8   ar
    36     8     9   ar
    37     9    10   ar
    38    10    11   ar
    39    11    12   ar
    40    31    32   ar
    41    32    26   ar
    42    12     1    1
    43    19    14   ar
    44    41    34   ar
    45    12     7   ar
    46     2    13    1
@<TRIPOS>MOLECULE
*****
 42 46 0 0 0
SMALL
GASTEIGER

@<TRIPOS>ATOM
      1 C           5.7551   -1.8226   22.0285 C.3     1  UNL1        0.1244
      2 N           6.7433   -1.3934   23.0722 N.3     1  UNL1       -0.2823
      3 C           6.6541   -0.2390   24.0258 C.3     1  UNL1        0.1560
      4 C           5.5549    0.7712   24.1714 C.2     1  UNL1        0.2457
      5 O           5.9245    1.7307   25.2635 O.2     1  UNL1       -0.2730
      6 N           4.2733    0.8764   23.3991 N.am    1  UNL1       -0.2533
      7 C           3.7743   -0.0024   22.2907 C.ar    1  UNL1        0.0518
      8 C           2.4365    0.4543   21.7892 C.ar    1  UNL1        0.0146
      9 C           1.7581   -0.2902   20.6776 C.ar    1  UNL1        0.0013
     10 C           2.4176   -1.4914   20.0676 C.ar    1  UNL1       -0.0002
     11 C           3.7555   -1.9481   20.5691 C.ar    1  UNL1       -0.0014
     12 C           4.4338   -1.2036   21.6806 C.ar    1  UNL1        0.0118
     13 H           7.6072   -1.2313   22.5547 H       1  UNL1        0.1243
     14 C           5.2562   -2.7015   20.9200 C.ar    1  UNL1       -0.0019
     15 C           4.3577   -3.8620   21.2296 C.ar    1  UNL1       -0.0026
     16 C           3.8588   -4.7409   20.1212 C.ar    1  UNL1       -0.0003
     17 C           4.2584   -4.4593   18.7031 C.ar    1  UNL1       -0.0000
     18 C           5.1570   -3.2988   18.3934 C.ar    1  UNL1       -0.0003
     19 C           5.6558   -2.4199   19.5019 C.ar    1  UNL1       -0.0026
     20 C           6.8544   -2.8328   21.8829 C.3     1  UNL1        0.2256
     21 C           8.2060   -2.4051   21.3930 C.2     1  UNL1        0.0920
     22 O           9.3606   -3.3611   21.4473 O.co2   1  UNL1       -0.5455
     23 O           8.4031   -1.0213   20.8489 O.co2   1  UNL1       -0.5455
     24 O           6.6019   -4.2708   22.2273 O.3     1  UNL1       -0.4426
     25 C           9.0470   -7.8354   25.1109 C.3     1  UNL1        0.0523
     26 C           8.2259   -6.5839   25.0134 C.ar    1  UNL1        0.0652
     27 C           7.8061   -5.8632   26.2602 C.ar    1  UNL1        0.0297
     28 C           6.9849   -4.6117   26.1627 C.ar    1  UNL1        0.0652
     29 C           6.5652   -3.8911   27.4095 C.3     1  UNL1        0.0523
     30 N           6.5836   -4.0809   24.8184 N.ar    1  UNL1       -0.1986
     31 C           7.0034   -4.8016   23.5716 C.ar    1  UNL1        0.3196
     32 N           7.8245   -6.0531   23.6691 N.ar    1  UNL1       -0.1986
     33 C           3.3713    2.0106   23.7866 C.3     1  UNL1        0.1292
     34 C           2.2260    1.7710   24.7253 C.ar    1  UNL1        0.0531
     35 C           2.4639    1.0893   26.0400 C.ar    1  UNL1        0.1422
     36 F           3.7729    0.5855   26.5719 F       1  UNL1       -0.2043
     37 C           1.3188    0.8497   26.9787 C.ar    1  UNL1        0.0591
     38 C          -0.0643    1.2919   26.6026 C.ar    1  UNL1        0.1446
     39 F          -1.2096    1.0523   27.5413 F       1  UNL1       -0.2040
     40 C          -0.3023    1.9736   25.2879 C.ar    1  UNL1        0.0591
     41 C           0.8429    2.2132   24.3492 C.ar    1  UNL1        0.1422
     42 F           0.6050    2.8950   23.0344 F       1  UNL1       -0.2043
@<TRIPOS>UNITY_ATOM_ATTR
22 1
charge -1
@<TRIPOS>BOND
     1    25    26    1
     2    26    27   ar
     3    27    28   ar
     4    28    29    1
     5    28    30   ar
     6    30    31   ar
     7    31    24    1
     8    20    24    1
     9    20    21    1
    10    21    22   ar
    11    21    23   ar
    12    20     1    1
    13     1    14    1
    14    14    15   ar
    15    15    16   ar
    16    16    17   ar
    17    17    18   ar
    18    18    19   ar
    19     1     2    1
    20     2     3    1
    21     3     4    1
    22     4     5    2
    23     4     6   am
    24     6    33    1
    25    33    34    1
    26    34    35   ar
    27    35    36    1
    28    35    37   ar
    29    37    38   ar
    30    38    39    1
    31    38    40   ar
    32    40    41   ar
    33    41    42    1
    34     6     7    1
    35     7     8   ar
    36     8     9   ar
    37     9    10   ar
    38    10    11   ar
    39    11    12   ar
    40    31    32   ar
    41    32    26   ar
    42    12     1    1
    43    19    14   ar
    44    41    34   ar
    45    12     7   ar
    46     2    13    1
@<TRIPOS>MOLECULE
*****
 42 46 0 0 0
SMALL
GASTEIGER

@<TRIPOS>ATOM
      1 C           5.7649   -1.8021   22.0152 C.3     1  UNL1        0.1244
      2 N           6.7536   -1.3648   23.0550 N.3     1  UNL1       -0.2823
      3 C           6.6607   -0.2087   24.0062 C.3     1  UNL1        0.1560
      4 C           5.5562    0.7957   24.1525 C.2     1  UNL1        0.2457
      5 O           5.9236    1.7599   25.2413 O.2     1  UNL1       -0.2730
      6 N           4.2718    0.8919   23.3837 N.am    1  UNL1       -0.2533
      7 C           3.7746    0.0076   22.2788 C.ar    1  UNL1        0.0518
      8 C           2.4328    0.4556   21.7801 C.ar    1  UNL1        0.0146
      9 C           1.7555   -0.2953   20.6723 C.ar    1  UNL1        0.0013
     10 C           2.4200   -1.4943   20.0632 C.ar    1  UNL1       -0.0002
     11 C           3.7618   -1.9423   20.5619 C.ar    1  UNL1       -0.0014
     12 C           4.4391   -1.1913   21.6697 C.ar    1  UNL1        0.0118
     13 H           7.6151   -1.1990   22.5347 H       1  UNL1        0.1243
     14 C           5.2677   -2.6864   20.9102 C.ar    1  UNL1       -0.0019
     15 C           4.3773   -3.8516   21.2252 C.ar    1  UNL1       -0.0026
     16 C           3.8801   -4.7359   20.1203 C.ar    1  UNL1       -0.0003
     17 C           4.2734   -4.4550   18.7004 C.ar    1  UNL1       -0.0000
     18 C           5.1640   -3.2897   18.3853 C.ar    1  UNL1       -0.0003
     19 C           5.6611   -2.4054   19.4902 C.ar    1  UNL1       -0.0026
     20 C           6.8694   -2.8064   21.8688 C.3     1  UNL1        0.2256
     21 C           8.2207   -2.3700   21.3855 C.2     1  UNL1        0.0920
     22 O           8.4068   -0.9923   20.8222 O.co2   1  UNL1       -0.5455
     23 O           9.3858   -3.3113   21.4655 O.co2   1  UNL1       -0.5455
     24 O           6.6226   -4.2471   22.2058 O.3     1  UNL1       -0.4426
     25 C           6.5573   -3.8546   27.3867 C.3     1  UNL1        0.0523
     26 C           6.9771   -4.5827   26.1443 C.ar    1  UNL1        0.0652
     27 C           7.7842   -5.8427   26.2499 C.ar    1  UNL1        0.0297
     28 C           8.2040   -6.5708   25.0075 C.ar    1  UNL1        0.0652
     29 C           9.0111   -7.8308   25.1131 C.3     1  UNL1        0.0523
     30 N           7.8168   -6.0389   23.6595 N.ar    1  UNL1       -0.1986
     31 C           7.0098   -4.7789   23.5539 C.ar    1  UNL1        0.3196
     32 N           6.5899   -4.0508   24.7963 N.ar    1  UNL1       -0.1986
     33 C           3.3645    2.0219   23.7711 C.3     1  UNL1        0.1292
     34 C           2.2233    1.7781   24.7136 C.ar    1  UNL1        0.0531
     35 C           2.4663    1.0882   26.0231 C.ar    1  UNL1        0.1422
     36 F           3.7770    0.5796   26.5460 F       1  UNL1       -0.2043
     37 C           1.3251    0.8443   26.9655 C.ar    1  UNL1        0.0591
     38 C          -0.0592    1.2904   26.5983 C.ar    1  UNL1        0.1446
     39 F          -1.2005    1.0466   27.5407 F       1  UNL1       -0.2040
     40 C          -0.3022    1.9803   25.2888 C.ar    1  UNL1        0.0591
     41 C           0.8390    2.2242   24.3464 C.ar    1  UNL1        0.1422
     42 F           0.5960    2.9141   23.0368 F       1  UNL1       -0.2043
@<TRIPOS>UNITY_ATOM_ATTR
22 1
charge -1
@<TRIPOS>BOND
     1    25    26    1
     2    26    27   ar
     3    27    28   ar
     4    28    29    1
     5    28    30   ar
     6    30    31   ar
     7    31    24    1
     8    20    24    1
     9    20    21    1
    10    21    22   ar
    11    21    23   ar
    12    20     1    1
    13     1    14    1
    14    14    15   ar
    15    15    16   ar
    16    16    17   ar
    17    17    18   ar
    18    18    19   ar
    19     1     2    1
    20     2     3    1
    21     3     4    1
    22     4     5    2
    23     4     6   am
    24     6    33    1
    25    33    34    1
    26    34    35   ar
    27    35    36    1
    28    35    37   ar
    29    37    38   ar
    30    38    39    1
    31    38    40   ar
    32    40    41   ar
    33    41    42    1
    34     6     7    1
    35     7     8   ar
    36     8     9   ar
    37     9    10   ar
    38    10    11   ar
    39    11    12   ar
    40    31    32   ar
    41    32    26   ar
    42    12     1    1
    43    19    14   ar
    44    41    34   ar
    45    12     7   ar
    46     2    13    1
@<TRIPOS>MOLECULE
*****
 42 46 0 0 0
SMALL
GASTEIGER

@<TRIPOS>ATOM
      1 C          -0.1976    2.4703   22.4453 C.3     1  UNL1        0.1244
      2 N          -1.2749    3.2522   23.1368 N.3     1  UNL1       -0.2823
      3 C          -1.6132    3.2881   24.5977 C.3     1  UNL1        0.1560
      4 C          -0.9578    2.5512   25.7280 C.2     1  UNL1        0.2457
      5 O          -1.6524    2.9150   27.0067 O.2     1  UNL1       -0.2730
      6 N           0.1978    1.5962   25.6763 N.am    1  UNL1       -0.2533
      7 C           0.9834    1.1423   24.4818 C.ar    1  UNL1        0.0518
      8 C           2.0631    0.1764   24.8708 C.ar    1  UNL1        0.0146
      9 C           2.9668   -0.4004   23.8218 C.ar    1  UNL1        0.0013
     10 C           2.7909   -0.0114   22.3838 C.ar    1  UNL1       -0.0002
     11 C           1.7112    0.9545   21.9949 C.ar    1  UNL1       -0.0014
     12 C           0.8075    1.5313   23.0439 C.ar    1  UNL1        0.0118
     13 H          -2.1382    2.9553   22.6818 H       1  UNL1        0.1243
     14 C           0.5881    2.0164   21.2508 C.ar    1  UNL1       -0.0019
     15 C           0.1583    0.7976   20.4894 C.ar    1  UNL1       -0.0026
     16 C           0.9438    0.3437   19.2949 C.ar    1  UNL1       -0.0003
     17 C           2.1592    1.1087   18.8618 C.ar    1  UNL1       -0.0000
     18 C           2.5890    2.3276   19.6231 C.ar    1  UNL1       -0.0003
     19 C           1.8034    2.7814   20.8176 C.ar    1  UNL1       -0.0026
     20 C          -0.8529    3.2073   21.3151 C.3     1  UNL1        0.2256
     21 C          -0.4341    4.6109   20.9921 C.2     1  UNL1        0.0920
     22 O          -0.4878    5.1026   19.5759 O.co2   1  UNL1       -0.5455
     23 O           0.0384    5.5229   22.0852 O.co2   1  UNL1       -0.5455
     24 O          -1.9271    2.5406   20.5079 O.3     1  UNL1       -0.4426
     25 C          -6.3036    3.9233   22.9440 C.3     1  UNL1        0.0523
     26 C          -5.4954    3.8181   21.6847 C.ar    1  UNL1        0.0652
     27 C          -6.0674    4.2992   20.3842 C.ar    1  UNL1        0.0297
     28 C          -5.2593    4.1941   19.1248 C.ar    1  UNL1        0.0652
     29 C          -5.8313    4.6751   17.8243 C.3     1  UNL1        0.0523
     30 N          -3.8792    3.6079   19.1661 N.ar    1  UNL1       -0.1986
     31 C          -3.3073    3.1268   20.4667 C.ar    1  UNL1        0.3196
     32 N          -4.1154    3.2319   21.7260 N.ar    1  UNL1       -0.1986
     33 C           0.6241    1.0188   26.9934 C.3     1  UNL1        0.1292
     34 C           1.2006    1.9113   28.0523 C.ar    1  UNL1        0.0531
     35 C           2.3746    2.7894   27.7355 C.ar    1  UNL1        0.1422
     36 F           3.0910    2.8999   26.4222 F       1  UNL1       -0.2043
     37 C           2.9510    3.6820   28.7943 C.ar    1  UNL1        0.0591
     38 C           2.3533    3.6963   30.1700 C.ar    1  UNL1        0.1446
     39 F           2.9298    4.5888   31.2289 F       1  UNL1       -0.2040
     40 C           1.1794    2.8181   30.4869 C.ar    1  UNL1        0.0591
     41 C           0.6029    1.9256   29.4281 C.ar    1  UNL1        0.1422
     42 F          -0.5712    1.0474   29.7449 F       1  UNL1       -0.2043
@<TRIPOS>UNITY_ATOM_ATTR
22 1
charge -1
@<TRIPOS>BOND
     1    25    26    1
     2    26    27   ar
     3    27    28   ar
     4    28    29    1
     5    28    30   ar
     6    30    31   ar
     7    31    24    1
     8    20    24    1
     9    20    21    1
    10    21    22   ar
    11    21    23   ar
    12    20     1    1
    13     1    14    1
    14    14    15   ar
    15    15    16   ar
    16    16    17   ar
    17    17    18   ar
    18    18    19   ar
    19     1     2    1
    20     2     3    1
    21     3     4    1
    22     4     5    2
    23     4     6   am
    24     6    33    1
    25    33    34    1
    26    34    35   ar
    27    35    36    1
    28    35    37   ar
    29    37    38   ar
    30    38    39    1
    31    38    40   ar
    32    40    41   ar
    33    41    42    1
    34     6     7    1
    35     7     8   ar
    36     8     9   ar
    37     9    10   ar
    38    10    11   ar
    39    11    12   ar
    40    31    32   ar
    41    32    26   ar
    42    12     1    1
    43    19    14   ar
    44    41    34   ar
    45    12     7   ar
    46     2    13    1
@<TRIPOS>MOLECULE
*****
 42 46 0 0 0
SMALL
GASTEIGER

@<TRIPOS>ATOM
      1 C           4.7853   -1.8205   22.4906 C.3     1  UNL1        0.1244
      2 N           5.1970   -1.7573   23.9316 N.3     1  UNL1       -0.2823
      3 C           4.5085   -1.0670   25.0715 C.3     1  UNL1        0.1560
      4 C           3.2382   -0.2693   25.0519 C.2     1  UNL1        0.2457
      5 O           2.9560    0.2204   26.4414 O.2     1  UNL1       -0.2730
      6 N           2.3429    0.0349   23.8876 N.am    1  UNL1       -0.2533
      7 C           2.4964   -0.3833   22.4552 C.ar    1  UNL1        0.0518
      8 C           1.3724    0.1366   21.6090 C.ar    1  UNL1        0.0146
      9 C           1.3354   -0.1692   20.1410 C.ar    1  UNL1        0.0013
     10 C           2.4224   -0.9950   19.5193 C.ar    1  UNL1       -0.0002
     11 C           3.5464   -1.5149   20.3655 C.ar    1  UNL1       -0.0014
     12 C           3.5835   -1.2091   21.8335 C.ar    1  UNL1        0.0118
     13 H           6.1316   -1.3492   23.9126 H       1  UNL1        0.1243
     14 C           4.9390   -2.2388   21.0582 C.ar    1  UNL1       -0.0019
     15 C           4.3472   -3.5342   20.5876 C.ar    1  UNL1       -0.0026
     16 C           4.5009   -3.9525   19.1553 C.ar    1  UNL1       -0.0003
     17 C           5.2462   -3.0752   18.1937 C.ar    1  UNL1       -0.0000
     18 C           5.8380   -1.7796   18.6643 C.ar    1  UNL1       -0.0003
     19 C           5.6843   -1.3615   20.0966 C.ar    1  UNL1       -0.0026
     20 C           6.0555   -2.6181   22.5101 C.3     1  UNL1        0.2256
     21 C           7.3802   -1.9214   22.4114 C.2     1  UNL1        0.0920
     22 O           8.5296   -2.5903   21.7174 O.co2   1  UNL1       -0.5455
     23 O           7.5555   -0.5558   23.0066 O.co2   1  UNL1       -0.5455
     24 O           6.0010   -4.1124   22.6284 O.3     1  UNL1       -0.4426
     25 C           9.4622   -7.7151   24.0572 C.3     1  UNL1        0.0523
     26 C           8.5138   -6.6100   24.4168 C.ar    1  UNL1        0.0652
     27 C           8.3474   -6.2013   25.8504 C.ar    1  UNL1        0.0297
     28 C           7.3989   -5.0962   26.2100 C.ar    1  UNL1        0.0652
     29 C           7.2326   -4.6875   27.6437 C.3     1  UNL1        0.0523
     30 N           6.6169   -4.4000   25.1361 N.ar    1  UNL1       -0.1986
     31 C           6.7832   -4.8088   23.7024 C.ar    1  UNL1        0.3196
     32 N           7.7317   -5.9138   23.3428 N.ar    1  UNL1       -0.1986
     33 C           1.1339    0.8674   24.1964 C.3     1  UNL1        0.1292
     34 C           1.2968    2.2931   24.6336 C.ar    1  UNL1        0.0531
     35 C           2.1767    3.2218   23.8506 C.ar    1  UNL1        0.1422
     36 F           2.9618    2.8943   22.6151 F       1  UNL1       -0.2043
     37 C           2.3396    4.6474   24.2877 C.ar    1  UNL1        0.0591
     38 C           1.6225    5.1442   25.5079 C.ar    1  UNL1        0.1446
     39 F           1.7854    6.5699   25.9451 F       1  UNL1       -0.2040
     40 C           0.7426    4.2155   26.2909 C.ar    1  UNL1        0.0591
     41 C           0.5797    2.7899   25.8538 C.ar    1  UNL1        0.1422
     42 F          -0.3003    1.8612   26.6368 F       1  UNL1       -0.2043
@<TRIPOS>UNITY_ATOM_ATTR
22 1
charge -1
@<TRIPOS>BOND
     1    25    26    1
     2    26    27   ar
     3    27    28   ar
     4    28    29    1
     5    28    30   ar
     6    30    31   ar
     7    31    24    1
     8    20    24    1
     9    20    21    1
    10    21    22   ar
    11    21    23   ar
    12    20     1    1
    13     1    14    1
    14    14    15   ar
    15    15    16   ar
    16    16    17   ar
    17    17    18   ar
    18    18    19   ar
    19     1     2    1
    20     2     3    1
    21     3     4    1
    22     4     5    2
    23     4     6   am
    24     6    33    1
    25    33    34    1
    26    34    35   ar
    27    35    36    1
    28    35    37   ar
    29    37    38   ar
    30    38    39    1
    31    38    40   ar
    32    40    41   ar
    33    41    42    1
    34     6     7    1
    35     7     8   ar
    36     8     9   ar
    37     9    10   ar
    38    10    11   ar
    39    11    12   ar
    40    31    32   ar
    41    32    26   ar
    42    12     1    1
    43    19    14   ar
    44    41    34   ar
    45    12     7   ar
    46     2    13    1
@<TRIPOS>MOLECULE
*****
 42 46 0 0 0
SMALL
GASTEIGER

@<TRIPOS>ATOM
      1 C           4.7919   -1.8188   22.4892 C.3     1  UNL1        0.1244
      2 N           5.2032   -1.7548   23.9303 N.3     1  UNL1       -0.2823
      3 C           4.5138   -1.0645   25.0698 C.3     1  UNL1        0.1560
      4 C           3.2430   -0.2678   25.0496 C.2     1  UNL1        0.2457
      5 O           2.9600    0.2223   26.4387 O.2     1  UNL1       -0.2730
      6 N           2.3477    0.0353   23.8848 N.am    1  UNL1       -0.2533
      7 C           2.5020   -0.3833   22.4527 C.ar    1  UNL1        0.0518
      8 C           1.3778    0.1354   21.6059 C.ar    1  UNL1        0.0146
      9 C           1.3415   -0.1710   20.1380 C.ar    1  UNL1        0.0013
     10 C           2.4293   -0.9962   19.5169 C.ar    1  UNL1       -0.0002
     11 C           3.5534   -1.5149   20.3637 C.ar    1  UNL1       -0.0014
     12 C           3.5898   -1.2085   21.8316 C.ar    1  UNL1        0.0118
     13 H           6.1375   -1.3459   23.9115 H       1  UNL1        0.1243
     14 C           4.9463   -2.2375   21.0571 C.ar    1  UNL1       -0.0019
     15 C           5.6931   -1.3610   20.0958 C.ar    1  UNL1       -0.0026
     16 C           5.8475   -1.7796   18.6638 C.ar    1  UNL1       -0.0003
     17 C           5.2551   -3.0747   18.1929 C.ar    1  UNL1       -0.0000
     18 C           4.5082   -3.9513   19.1542 C.ar    1  UNL1       -0.0003
     19 C           4.3538   -3.5326   20.5863 C.ar    1  UNL1       -0.0026
     20 C           6.0627   -2.6155   22.5094 C.3     1  UNL1        0.2256
     21 C           7.3871   -1.9174   22.4154 C.2     1  UNL1        0.0920
     22 O           8.5438   -2.5915   21.7388 O.co2   1  UNL1       -0.5455
     23 O           7.5547   -0.5454   22.9978 O.co2   1  UNL1       -0.5455
     24 O           6.0092   -4.1101   22.6237 O.3     1  UNL1       -0.4426
     25 C           7.2134   -4.6911   27.6449 C.3     1  UNL1        0.0523
     26 C           7.3870   -5.0986   26.2119 C.ar    1  UNL1        0.0652
     27 C           8.3365   -6.2042   25.8562 C.ar    1  UNL1        0.0297
     28 C           8.5101   -6.6117   24.4231 C.ar    1  UNL1        0.0652
     29 C           9.4595   -7.7173   24.0675 C.3     1  UNL1        0.0523
     30 N           7.7344   -5.9137   23.3457 N.ar    1  UNL1       -0.1986
     31 C           6.7850   -4.8081   23.7013 C.ar    1  UNL1        0.3196
     32 N           6.6113   -4.4006   25.1344 N.ar    1  UNL1       -0.1986
     33 C           1.1380    0.8671   24.1930 C.3     1  UNL1        0.1292
     34 C           1.2997    2.2933   24.6287 C.ar    1  UNL1        0.0531
     35 C           2.1794    3.2217   23.8452 C.ar    1  UNL1        0.1422
     36 F           2.9655    2.8935   22.6106 F       1  UNL1       -0.2043
     37 C           2.3411    4.6479   24.2809 C.ar    1  UNL1        0.0591
     38 C           1.6229    5.1456   25.5001 C.ar    1  UNL1        0.1446
     39 F           1.7846    6.5718   25.9359 F       1  UNL1       -0.2040
     40 C           0.7432    4.2172   26.2836 C.ar    1  UNL1        0.0591
     41 C           0.5815    2.7910   25.8480 C.ar    1  UNL1        0.1422
     42 F          -0.2983    1.8625   26.6315 F       1  UNL1       -0.2043
@<TRIPOS>UNITY_ATOM_ATTR
22 1
charge -1
@<TRIPOS>BOND
     1    25    26    1
     2    26    27   ar
     3    27    28   ar
     4    28    29    1
     5    28    30   ar
     6    30    31   ar
     7    31    24    1
     8    20    24    1
     9    20    21    1
    10    21    22   ar
    11    21    23   ar
    12    20     1    1
    13     1    14    1
    14    14    15   ar
    15    15    16   ar
    16    16    17   ar
    17    17    18   ar
    18    18    19   ar
    19     1     2    1
    20     2     3    1
    21     3     4    1
    22     4     5    2
    23     4     6   am
    24     6    33    1
    25    33    34    1
    26    34    35   ar
    27    35    36    1
    28    35    37   ar
    29    37    38   ar
    30    38    39    1
    31    38    40   ar
    32    40    41   ar
    33    41    42    1
    34     6     7    1
    35     7     8   ar
    36     8     9   ar
    37     9    10   ar
    38    10    11   ar
    39    11    12   ar
    40    31    32   ar
    41    32    26   ar
    42    12     1    1
    43    19    14   ar
    44    41    34   ar
    45    12     7   ar
    46     2    13    1
