@<TRIPOS>MOLECULE
*****
 26 29 0 0 0
SMALL
GASTEIGER

@<TRIPOS>ATOM
      1 C          -4.5701  -18.9325   21.2819 C.ar    1  UNL1        0.1535
      2 C          -5.3839  -19.8877   20.4602 C.ar    1  UNL1        0.1332
      3 N          -6.8781  -19.9045   20.5905 N.ar    1  UNL1       -0.2393
      4 C          -7.5585  -18.9660   21.5425 C.ar    1  UNL1        0.1013
      5 C          -6.7447  -18.0107   22.3642 C.ar    1  UNL1        0.1004
      6 N          -5.2505  -17.9940   22.2339 N.ar    1  UNL1       -0.2274
      7 C          -9.0528  -18.9828   21.6728 C.ar    1  UNL1        0.0497
      8 C          -9.8912  -18.0897   20.8071 C.ar    1  UNL1        0.0245
      9 C         -11.3854  -18.1064   20.9373 C.ar    1  UNL1        0.0991
     10 N         -12.0413  -19.0163   21.9333 N.ar    1  UNL1       -0.2400
     11 C         -11.2029  -19.9094   22.7991 C.ar    1  UNL1        0.1285
     12 C          -9.7086  -19.8926   22.6688 C.ar    1  UNL1        0.1606
     13 F          -8.8702  -20.7857   23.5345 F       1  UNL1       -0.2025
     14 C          -7.4251  -17.0723   23.3162 C.ar    1  UNL1        0.0223
     15 C          -8.4788  -17.5865   24.2517 C.ar    1  UNL1        0.0222
     16 C          -9.1592  -16.6480   25.2037 C.ar    1  UNL1        0.0989
     17 N          -8.7859  -15.1953   25.2202 N.ar    1  UNL1       -0.2423
     18 C          -7.7322  -14.6811   24.2847 C.ar    1  UNL1        0.0989
     19 C          -7.0518  -15.6196   23.3327 C.ar    1  UNL1        0.0222
     20 O          -3.2585  -17.1145   19.2882 O.2     1  UNL1       -0.2747
     21 C          -2.4200  -18.0067   20.1548 C.2     1  UNL1        0.2267
     22 N          -3.0758  -18.9157   21.1516 N.am    1  UNL1       -0.2681
     23 H          -2.5255  -19.5013   21.7204 H       1  UNL1        0.1563
     24 C          -0.9257  -17.9899   20.0245 C.3     1  UNL1        0.0769
     25 C           0.3639  -18.7113   19.7672 C.3     1  UNL1        0.0096
     26 C           0.3727  -17.2395   20.0562 C.3     1  UNL1        0.0096
@<TRIPOS>BOND
     1    20    21    2
     2    21    22   am
     3    22     1    1
     4     1     2   ar
     5     2     3   ar
     6     3     4   ar
     7     4     7    1
     8     7     8   ar
     9     8     9   ar
    10     9    10   ar
    11    10    11   ar
    12    11    12   ar
    13    12    13    1
    14     4     5   ar
    15     5    14    1
    16    14    15   ar
    17    15    16   ar
    18    16    17   ar
    19    17    18   ar
    20    18    19   ar
    21     5     6   ar
    22    21    24    1
    23    24    25    1
    24    25    26    1
    25     6     1   ar
    26    26    24    1
    27    12     7   ar
    28    19    14   ar
    29    22    23    1
@<TRIPOS>MOLECULE
*****
 26 29 0 0 0
SMALL
GASTEIGER

@<TRIPOS>ATOM
      1 C           1.7312    1.2068   22.4720 C.ar    1  UNL1        0.1535
      2 C           2.3121    2.3688   21.7221 C.ar    1  UNL1        0.1332
      3 N           3.3596    2.1367   20.6739 N.ar    1  UNL1       -0.2393
      4 C           3.8263    0.7428   20.3756 C.ar    1  UNL1        0.1013
      5 C           3.2455   -0.4192   21.1254 C.ar    1  UNL1        0.1004
      6 N           2.1979   -0.1872   22.1736 N.ar    1  UNL1       -0.2274
      7 C           4.8739    0.5108   19.3273 C.ar    1  UNL1        0.0497
      8 C           6.3230    0.4654   19.7123 C.ar    1  UNL1        0.0245
      9 C           7.3706    0.2334   18.6641 C.ar    1  UNL1        0.0991
     10 N           6.9692    0.0468   17.2309 N.ar    1  UNL1       -0.2400
     11 C           5.5201    0.0922   16.8459 C.ar    1  UNL1        0.1285
     12 C           4.4725    0.3242   17.8942 C.ar    1  UNL1        0.1606
     13 F           3.0235    0.3696   17.5092 F       1  UNL1       -0.2025
     14 C           3.7121   -1.8132   20.8271 C.ar    1  UNL1        0.0223
     15 C           4.7460   -2.4609   21.6997 C.ar    1  UNL1        0.0222
     16 C           5.2127   -3.8549   21.4014 C.ar    1  UNL1        0.0989
     17 N           4.6455   -4.6012   20.2304 N.ar    1  UNL1       -0.2423
     18 C           3.6116   -3.9535   19.3578 C.ar    1  UNL1        0.0989
     19 C           3.1449   -2.5595   19.6561 C.ar    1  UNL1        0.0222
     20 O           2.4621    1.0733   25.3785 O.2     1  UNL1       -0.2747
     21 C           1.0491    1.3720   24.9734 C.2     1  UNL1        0.2267
     22 N           0.6836    1.4387   23.5202 N.am    1  UNL1       -0.2681
     23 H          -0.2438    1.6348   23.2544 H       1  UNL1        0.1563
     24 C           0.0014    1.6040   26.0217 C.3     1  UNL1        0.0769
     25 C          -1.1637    2.3927   26.5416 C.3     1  UNL1        0.0096
     26 C          -0.6479    1.2171   27.3173 C.3     1  UNL1        0.0096
@<TRIPOS>BOND
     1    20    21    2
     2    21    22   am
     3    22     1    1
     4     1     2   ar
     5     2     3   ar
     6     3     4   ar
     7     4     7    1
     8     7     8   ar
     9     8     9   ar
    10     9    10   ar
    11    10    11   ar
    12    11    12   ar
    13    12    13    1
    14     4     5   ar
    15     5    14    1
    16    14    15   ar
    17    15    16   ar
    18    16    17   ar
    19    17    18   ar
    20    18    19   ar
    21     5     6   ar
    22    21    24    1
    23    24    25    1
    24    25    26    1
    25     6     1   ar
    26    26    24    1
    27    12     7   ar
    28    19    14   ar
    29    22    23    1
@<TRIPOS>MOLECULE
*****
 26 29 0 0 0
SMALL
GASTEIGER

@<TRIPOS>ATOM
      1 C           4.1449   -1.7327   24.7108 C.ar    1  UNL1        0.1535
      2 C           5.3744   -2.5089   24.3425 C.ar    1  UNL1        0.1332
      3 N           5.8559   -2.5215   22.9220 N.ar    1  UNL1       -0.2393
      4 C           5.1078   -1.7577   21.8698 C.ar    1  UNL1        0.1013
      5 C           3.8783   -0.9815   22.2381 C.ar    1  UNL1        0.1004
      6 N           3.3969   -0.9690   23.6586 N.ar    1  UNL1       -0.2274
      7 C           5.5894   -1.7703   20.4492 C.ar    1  UNL1        0.0497
      8 C           6.6631   -0.8181   20.0128 C.ar    1  UNL1        0.0245
      9 C           7.1447   -0.8306   18.5923 C.ar    1  UNL1        0.0991
     10 N           6.5524   -1.7953   17.6080 N.ar    1  UNL1       -0.2400
     11 C           5.4787   -2.7475   18.0444 C.ar    1  UNL1        0.1285
     12 C           4.9972   -2.7350   19.4650 C.ar    1  UNL1        0.1606
     13 F           3.9234   -3.6872   19.9014 F       1  UNL1       -0.2025
     14 C           3.1303   -0.2177   21.1859 C.ar    1  UNL1        0.0223
     15 C           1.9504   -0.8424   20.5021 C.ar    1  UNL1        0.0222
     16 C           1.2024   -0.0787   19.4499 C.ar    1  UNL1        0.0989
     17 N           1.6342    1.3097   19.0815 N.ar    1  UNL1       -0.2423
     18 C           2.8141    1.9344   19.7653 C.ar    1  UNL1        0.0989
     19 C           3.5621    1.1707   20.8175 C.ar    1  UNL1        0.0222
     20 O           4.4441    0.7459   26.3743 O.2     1  UNL1       -0.2747
     21 C           3.8130   -0.4809   26.9632 C.2     1  UNL1        0.2267
     22 N           3.6634   -1.7202   26.1315 N.am    1  UNL1       -0.2681
     23 H           3.2492   -2.5253   26.5179 H       1  UNL1        0.1563
     24 C           3.3314   -0.4683   28.3838 C.3     1  UNL1        0.0769
     25 C           3.6231   -0.5061   29.8546 C.3     1  UNL1        0.0096
     26 C           2.2058   -0.4088   29.3734 C.3     1  UNL1        0.0096
@<TRIPOS>BOND
     1    20    21    2
     2    21    22   am
     3    22     1    1
     4     1     2   ar
     5     2     3   ar
     6     3     4   ar
     7     4     7    1
     8     7     8   ar
     9     8     9   ar
    10     9    10   ar
    11    10    11   ar
    12    11    12   ar
    13    12    13    1
    14     4     5   ar
    15     5    14    1
    16    14    15   ar
    17    15    16   ar
    18    16    17   ar
    19    17    18   ar
    20    18    19   ar
    21     5     6   ar
    22    21    24    1
    23    24    25    1
    24    25    26    1
    25     6     1   ar
    26    26    24    1
    27    12     7   ar
    28    19    14   ar
    29    22    23    1
@<TRIPOS>MOLECULE
*****
 26 29 0 0 0
SMALL
GASTEIGER

@<TRIPOS>ATOM
      1 C           6.8507   -5.0907   29.4662 C.ar    1  UNL1        0.1535
      2 C           7.0324   -5.5189   30.8923 C.ar    1  UNL1        0.1332
      3 N           6.8504   -4.5266   32.0022 N.ar    1  UNL1       -0.2393
      4 C           6.4866   -3.1061   31.6862 C.ar    1  UNL1        0.1013
      5 C           6.3049   -2.6779   30.2602 C.ar    1  UNL1        0.1004
      6 N           6.4869   -3.6702   29.1502 N.ar    1  UNL1       -0.2274
      7 C           6.3045   -2.1138   32.7963 C.ar    1  UNL1        0.0497
      8 C           7.4446   -1.2292   33.2059 C.ar    1  UNL1        0.0245
      9 C           7.2626   -0.2369   34.3159 C.ar    1  UNL1        0.0991
     10 N           5.9405   -0.1291   35.0164 N.ar    1  UNL1       -0.2400
     11 C           4.8005   -1.0137   34.6068 C.ar    1  UNL1        0.1285
     12 C           4.9825   -2.0061   33.4967 C.ar    1  UNL1        0.1606
     13 F           3.8425   -2.8907   33.0871 F       1  UNL1       -0.2025
     14 C           5.9411   -1.2574   29.9442 C.ar    1  UNL1        0.0223
     15 C           7.0161   -0.2609   29.6261 C.ar    1  UNL1        0.0222
     16 C           6.6523    1.1596   29.3100 C.ar    1  UNL1        0.0989
     17 N           5.2135    1.5835   29.3121 N.ar    1  UNL1       -0.2423
     18 C           4.1385    0.5870   29.6302 C.ar    1  UNL1        0.0989
     19 C           4.5023   -0.8335   29.9462 C.ar    1  UNL1        0.0222
     20 O           9.1946   -4.8509   27.6092 O.2     1  UNL1       -0.2747
     21 C           8.2047   -5.9631   27.4277 C.2     1  UNL1        0.2267
     22 N           7.0327   -6.0831   28.3561 N.am    1  UNL1       -0.2681
     23 H           6.3830   -6.8131   28.2370 H       1  UNL1        0.1563
     24 C           8.3867   -6.9555   26.3176 C.3     1  UNL1        0.0769
     25 C           9.1155   -8.1269   25.7289 C.3     1  UNL1        0.0096
     26 C           7.9732   -7.5027   24.9836 C.3     1  UNL1        0.0096
@<TRIPOS>BOND
     1    20    21    2
     2    21    22   am
     3    22     1    1
     4     1     2   ar
     5     2     3   ar
     6     3     4   ar
     7     4     7    1
     8     7     8   ar
     9     8     9   ar
    10     9    10   ar
    11    10    11   ar
    12    11    12   ar
    13    12    13    1
    14     4     5   ar
    15     5    14    1
    16    14    15   ar
    17    15    16   ar
    18    16    17   ar
    19    17    18   ar
    20    18    19   ar
    21     5     6   ar
    22    21    24    1
    23    24    25    1
    24    25    26    1
    25     6     1   ar
    26    26    24    1
    27    12     7   ar
    28    19    14   ar
    29    22    23    1
@<TRIPOS>MOLECULE
*****
 26 29 0 0 0
SMALL
GASTEIGER

@<TRIPOS>ATOM
      1 C           6.5351   -4.3562   24.8798 C.ar    1  UNL1        0.1535
      2 C           7.3348   -5.1395   23.8813 C.ar    1  UNL1        0.1332
      3 N           7.3580   -4.7174   22.4421 N.ar    1  UNL1       -0.2393
      4 C           6.5816   -3.5120   22.0014 C.ar    1  UNL1        0.1013
      5 C           5.7819   -2.7287   22.9999 C.ar    1  UNL1        0.1004
      6 N           5.7587   -3.1508   24.4390 N.ar    1  UNL1       -0.2274
      7 C           6.6048   -3.0900   20.5621 C.ar    1  UNL1        0.0497
      8 C           7.7424   -2.2624   20.0415 C.ar    1  UNL1        0.0245
      9 C           7.7657   -1.8404   18.6024 C.ar    1  UNL1        0.0991
     10 N           6.6514   -2.2459   17.6837 N.ar    1  UNL1       -0.2400
     11 C           5.5137   -3.0734   18.2043 C.ar    1  UNL1        0.1285
     12 C           5.4905   -3.4955   19.6436 C.ar    1  UNL1        0.1606
     13 F           4.3529   -4.3230   20.1642 F       1  UNL1       -0.2025
     14 C           5.0055   -1.5233   22.5591 C.ar    1  UNL1        0.0223
     15 C           5.6840   -0.1893   22.4600 C.ar    1  UNL1        0.0222
     16 C           4.9076    1.0161   22.0193 C.ar    1  UNL1        0.0989
     17 N           3.4527    0.8875   21.6777 N.ar    1  UNL1       -0.2423
     18 C           2.7742   -0.4466   21.7769 C.ar    1  UNL1        0.0989
     19 C           3.5507   -1.6520   22.2176 C.ar    1  UNL1        0.0222
     20 O           8.6148   -3.3237   26.7795 O.2     1  UNL1       -0.2747
     21 C           7.5517   -4.2620   27.2689 C.2     1  UNL1        0.2267
     22 N           6.5119   -4.7782   26.3190 N.am    1  UNL1       -0.2681
     23 H           5.8141   -5.3940   26.6402 H       1  UNL1        0.1563
     24 C           7.5285   -4.6841   28.7081 C.3     1  UNL1        0.0769
     25 C           6.9279   -5.5028   29.8122 C.3     1  UNL1        0.0096
     26 C           8.0887   -4.5964   30.0968 C.3     1  UNL1        0.0096
@<TRIPOS>BOND
     1    20    21    2
     2    21    22   am
     3    22     1    1
     4     1     2   ar
     5     2     3   ar
     6     3     4   ar
     7     4     7    1
     8     7     8   ar
     9     8     9   ar
    10     9    10   ar
    11    10    11   ar
    12    11    12   ar
    13    12    13    1
    14     4     5   ar
    15     5    14    1
    16    14    15   ar
    17    15    16   ar
    18    16    17   ar
    19    17    18   ar
    20    18    19   ar
    21     5     6   ar
    22    21    24    1
    23    24    25    1
    24    25    26    1
    25     6     1   ar
    26    26    24    1
    27    12     7   ar
    28    19    14   ar
    29    22    23    1
@<TRIPOS>MOLECULE
*****
 26 29 0 0 0
SMALL
GASTEIGER

@<TRIPOS>ATOM
      1 C           0.6357    1.0507   20.5374 C.ar    1  UNL1        0.1535
      2 C           0.8009    0.9645   19.0491 C.ar    1  UNL1        0.1332
      3 N           2.0253    0.3235   18.4663 N.ar    1  UNL1       -0.2393
      4 C           3.0847   -0.2313   19.3719 C.ar    1  UNL1        0.1013
      5 C           2.9195   -0.1451   20.8602 C.ar    1  UNL1        0.1004
      6 N           1.6950    0.4959   21.4430 N.ar    1  UNL1       -0.2274
      7 C           4.3092   -0.8723   18.7890 C.ar    1  UNL1        0.0497
      8 C           5.4613   -0.0213   18.3434 C.ar    1  UNL1        0.0245
      9 C           6.6858   -0.6623   17.7605 C.ar    1  UNL1        0.0991
     10 N           6.7582   -2.1543   17.6232 N.ar    1  UNL1       -0.2400
     11 C           5.6062   -3.0053   18.0689 C.ar    1  UNL1        0.1285
     12 C           4.3816   -2.3642   18.6517 C.ar    1  UNL1        0.1606
     13 F           3.2296   -3.2152   19.0974 F       1  UNL1       -0.2025
     14 C           3.9788   -0.6999   21.7658 C.ar    1  UNL1        0.0223
     15 C           5.1813    0.1285   22.1089 C.ar    1  UNL1        0.0222
     16 C           6.2406   -0.4263   23.0145 C.ar    1  UNL1        0.0989
     17 N           6.0975   -1.8095   23.5769 N.ar    1  UNL1       -0.2423
     18 C           4.8950   -2.6379   23.2337 C.ar    1  UNL1        0.0989
     19 C           3.8357   -2.0831   22.3281 C.ar    1  UNL1        0.0222
     20 O           0.6197    3.9916   21.1300 O.2     1  UNL1       -0.2747
     21 C          -0.5968    3.1621   21.4166 C.2     1  UNL1        0.2267
     22 N          -0.5889    1.6917   21.1203 N.am    1  UNL1       -0.2681
     23 H          -1.3873    1.1473   21.3084 H       1  UNL1        0.1563
     24 C          -1.8214    3.8031   21.9995 C.3     1  UNL1        0.0769
     25 C          -2.4784    4.9638   22.6858 C.3     1  UNL1        0.0096
     26 C          -3.2853    3.7527   22.3227 C.3     1  UNL1        0.0096
@<TRIPOS>BOND
     1    20    21    2
     2    21    22   am
     3    22     1    1
     4     1     2   ar
     5     2     3   ar
     6     3     4   ar
     7     4     7    1
     8     7     8   ar
     9     8     9   ar
    10     9    10   ar
    11    10    11   ar
    12    11    12   ar
    13    12    13    1
    14     4     5   ar
    15     5    14    1
    16    14    15   ar
    17    15    16   ar
    18    16    17   ar
    19    17    18   ar
    20    18    19   ar
    21     5     6   ar
    22    21    24    1
    23    24    25    1
    24    25    26    1
    25     6     1   ar
    26    26    24    1
    27    12     7   ar
    28    19    14   ar
    29    22    23    1
@<TRIPOS>MOLECULE
*****
 26 29 0 0 0
SMALL
GASTEIGER

@<TRIPOS>ATOM
      1 C          -0.7819    3.1338   20.4099 C.ar    1  UNL1        0.1535
      2 C          -0.7445    3.4338   21.8791 C.ar    1  UNL1        0.1332
      3 N          -1.9513    4.0110   22.5576 N.ar    1  UNL1       -0.2393
      4 C          -3.1955    4.2883   21.7669 C.ar    1  UNL1        0.1013
      5 C          -3.2328    3.9883   20.2977 C.ar    1  UNL1        0.1004
      6 N          -2.0260    3.4111   19.6192 N.ar    1  UNL1       -0.2274
      7 C          -4.4023    4.8655   22.4454 C.ar    1  UNL1        0.0497
      8 C          -4.6490    6.3446   22.4063 C.ar    1  UNL1        0.0245
      9 C          -5.8558    6.9219   23.0849 C.ar    1  UNL1        0.0991
     10 N          -6.8159    6.0201   23.8025 N.ar    1  UNL1       -0.2400
     11 C          -6.5692    4.5410   23.8416 C.ar    1  UNL1        0.1285
     12 C          -5.3624    3.9637   23.1630 C.ar    1  UNL1        0.1606
     13 F          -5.1157    2.4847   23.2021 F       1  UNL1       -0.2025
     14 C          -4.4770    4.2655   19.5070 C.ar    1  UNL1        0.0223
     15 C          -4.5981    5.5370   18.7205 C.ar    1  UNL1        0.0222
     16 C          -5.8423    5.8142   17.9298 C.ar    1  UNL1        0.0989
     17 N          -6.9653    4.8199   17.9256 N.ar    1  UNL1       -0.2423
     18 C          -6.8442    3.5484   18.7120 C.ar    1  UNL1        0.0989
     19 C          -5.6001    3.2712   19.5027 C.ar    1  UNL1        0.0222
     20 O          -0.1971    0.1996   20.6300 O.2     1  UNL1       -0.2747
     21 C           0.7173    1.0895   19.8414 C.2     1  UNL1        0.2267
     22 N           0.4250    2.5566   19.7313 N.am    1  UNL1       -0.2681
     23 H           1.0251    3.1406   19.2137 H       1  UNL1        0.1563
     24 C           1.9242    0.5122   19.1628 C.3     1  UNL1        0.0769
     25 C           3.2574   -0.1704   19.2431 C.3     1  UNL1        0.0096
     26 C           2.6812    0.1951   17.9073 C.3     1  UNL1        0.0096
@<TRIPOS>BOND
     1    20    21    2
     2    21    22   am
     3    22     1    1
     4     1     2   ar
     5     2     3   ar
     6     3     4   ar
     7     4     7    1
     8     7     8   ar
     9     8     9   ar
    10     9    10   ar
    11    10    11   ar
    12    11    12   ar
    13    12    13    1
    14     4     5   ar
    15     5    14    1
    16    14    15   ar
    17    15    16   ar
    18    16    17   ar
    19    17    18   ar
    20    18    19   ar
    21     5     6   ar
    22    21    24    1
    23    24    25    1
    24    25    26    1
    25     6     1   ar
    26    26    24    1
    27    12     7   ar
    28    19    14   ar
    29    22    23    1
@<TRIPOS>MOLECULE
*****
 26 29 0 0 0
SMALL
GASTEIGER

@<TRIPOS>ATOM
      1 C           3.8681   -1.4020   24.4956 C.ar    1  UNL1        0.1535
      2 C           2.9565   -0.2126   24.5583 C.ar    1  UNL1        0.1332
      3 N           2.5410    0.4813   23.2951 N.ar    1  UNL1       -0.2393
      4 C           3.0371   -0.0143   21.9691 C.ar    1  UNL1        0.1013
      5 C           3.9488   -1.2038   21.9064 C.ar    1  UNL1        0.1004
      6 N           4.3643   -1.8976   23.1697 N.ar    1  UNL1       -0.2274
      7 C           2.6216    0.6796   20.7058 C.ar    1  UNL1        0.0497
      8 C           3.3586    1.9018   20.2442 C.ar    1  UNL1        0.0245
      9 C           2.9431    2.5957   18.9810 C.ar    1  UNL1        0.0991
     10 N           1.7905    2.0675   18.1793 N.ar    1  UNL1       -0.2400
     11 C           1.0535    0.8453   18.6409 C.ar    1  UNL1        0.1285
     12 C           1.4691    0.1513   19.9042 C.ar    1  UNL1        0.1606
     13 F           0.7321   -1.0708   20.3658 F       1  UNL1       -0.2025
     14 C           4.4450   -1.6994   20.5804 C.ar    1  UNL1        0.0223
     15 C           3.7306   -2.8189   19.8831 C.ar    1  UNL1        0.0222
     16 C           4.2268   -3.3145   18.5572 C.ar    1  UNL1        0.0989
     17 N           5.4373   -2.6906   17.9285 N.ar    1  UNL1       -0.2423
     18 C           6.1516   -1.5710   18.6258 C.ar    1  UNL1        0.0989
     19 C           5.6555   -1.0754   19.9517 C.ar    1  UNL1        0.0222
     20 O           6.6580   -1.0629   25.5454 O.2     1  UNL1       -0.2747
     21 C           5.6786   -1.9264   26.2838 C.2     1  UNL1        0.2267
     22 N           4.2837   -2.0960   25.7589 N.am    1  UNL1       -0.2681
     23 H           3.6409   -2.6627   26.2436 H       1  UNL1        0.1563
     24 C           6.0941   -2.6203   27.5471 C.3     1  UNL1        0.0769
     25 C           6.5937   -3.8468   28.2515 C.3     1  UNL1        0.0096
     26 C           6.3143   -2.5958   29.0306 C.3     1  UNL1        0.0096
@<TRIPOS>BOND
     1    20    21    2
     2    21    22   am
     3    22     1    1
     4     1     2   ar
     5     2     3   ar
     6     3     4   ar
     7     4     7    1
     8     7     8   ar
     9     8     9   ar
    10     9    10   ar
    11    10    11   ar
    12    11    12   ar
    13    12    13    1
    14     4     5   ar
    15     5    14    1
    16    14    15   ar
    17    15    16   ar
    18    16    17   ar
    19    17    18   ar
    20    18    19   ar
    21     5     6   ar
    22    21    24    1
    23    24    25    1
    24    25    26    1
    25     6     1   ar
    26    26    24    1
    27    12     7   ar
    28    19    14   ar
    29    22    23    1
@<TRIPOS>MOLECULE
*****
 26 29 0 0 0
SMALL
GASTEIGER

@<TRIPOS>ATOM
      1 C           0.0755    1.9145   20.0421 C.ar    1  UNL1        0.1535
      2 C           0.7741    2.8251   19.0764 C.ar    1  UNL1        0.1332
      3 N           2.1776    2.5229   18.6419 N.ar    1  UNL1       -0.2393
      4 C           2.8825    1.3100   19.1730 C.ar    1  UNL1        0.1013
      5 C           2.1839    0.3994   20.1387 C.ar    1  UNL1        0.1004
      6 N           0.7804    0.7016   20.5732 N.ar    1  UNL1       -0.2274
      7 C           4.2860    1.0079   18.7384 C.ar    1  UNL1        0.0497
      8 C           5.4460    1.5762   19.5009 C.ar    1  UNL1        0.0245
      9 C           6.8495    1.2741   19.0664 C.ar    1  UNL1        0.0991
     10 N           7.0931    0.4036   17.8693 N.ar    1  UNL1       -0.2400
     11 C           5.9331   -0.1648   17.1068 C.ar    1  UNL1        0.1285
     12 C           4.5295    0.1374   17.5414 C.ar    1  UNL1        0.1606
     13 F           3.3696   -0.4309   16.7789 F       1  UNL1       -0.2025
     14 C           2.8887   -0.8135   20.6698 C.ar    1  UNL1        0.0223
     15 C           3.1062   -2.0032   19.7826 C.ar    1  UNL1        0.0222
     16 C           3.8110   -3.2161   20.3137 C.ar    1  UNL1        0.0989
     17 N           4.2985   -3.2392   21.7321 N.ar    1  UNL1       -0.2423
     18 C           4.0811   -2.0495   22.6193 C.ar    1  UNL1        0.0989
     19 C           3.3762   -0.8366   22.0882 C.ar    1  UNL1        0.0222
     20 O          -0.4215    3.9065   22.2295 O.2     1  UNL1       -0.2747
     21 C          -1.5765    3.2126   21.5704 C.2     1  UNL1        0.2267
     22 N          -1.3280    2.2166   20.4767 N.am    1  UNL1       -0.2681
     23 H          -2.0861    1.7612   20.0441 H       1  UNL1        0.1563
     24 C          -2.9801    3.5148   22.0050 C.3     1  UNL1        0.0769
     25 C          -4.4515    3.2328   21.9325 C.3     1  UNL1        0.0096
     26 C          -3.9396    4.3201   22.8301 C.3     1  UNL1        0.0096
@<TRIPOS>BOND
     1    20    21    2
     2    21    22   am
     3    22     1    1
     4     1     2   ar
     5     2     3   ar
     6     3     4   ar
     7     4     7    1
     8     7     8   ar
     9     8     9   ar
    10     9    10   ar
    11    10    11   ar
    12    11    12   ar
    13    12    13    1
    14     4     5   ar
    15     5    14    1
    16    14    15   ar
    17    15    16   ar
    18    16    17   ar
    19    17    18   ar
    20    18    19   ar
    21     5     6   ar
    22    21    24    1
    23    24    25    1
    24    25    26    1
    25     6     1   ar
    26    26    24    1
    27    12     7   ar
    28    19    14   ar
    29    22    23    1
