@<TRIPOS>MOLECULE
*****
 21 23 0 0 0
SMALL
GASTEIGER

@<TRIPOS>ATOM
      1 C          -9.6970  -17.8338   21.2840 C.ar    1  UNL1        0.0537
      2 C         -10.6850  -18.2320   20.2279 C.ar    1  UNL1        0.1019
      3 N         -12.0108  -17.5361   20.1407 N.ar    1  UNL1       -0.2422
      4 C         -12.3487  -16.4419   21.1094 C.ar    1  UNL1        0.0989
      5 C         -11.3608  -16.0436   22.1655 C.ar    1  UNL1        0.0208
      6 C         -10.0349  -16.7396   22.2528 C.ar    1  UNL1        0.0061
      7 C          -9.0469  -16.3414   23.3089 C.ar    1  UNL1        0.0033
      8 C          -9.2950  -16.7042   24.7430 C.ar    1  UNL1        0.0207
      9 C          -8.3070  -16.3061   25.7991 C.ar    1  UNL1        0.0989
     10 N          -7.0709  -15.5450   25.4211 N.ar    1  UNL1       -0.2423
     11 C          -6.8228  -15.1822   23.9869 C.ar    1  UNL1        0.0989
     12 C          -7.8108  -15.5804   22.9308 C.ar    1  UNL1        0.0207
     13 C          -6.0726  -19.1798   20.9413 C.ar    1  UNL1        0.1385
     14 C          -6.5889  -20.0219   22.0702 C.ar    1  UNL1        0.0375
     15 C          -8.0095  -19.6202   22.3359 C.ar    1  UNL1        0.0404
     16 C          -8.3711  -18.5298   21.3713 C.ar    1  UNL1        0.1464
     17 O          -7.1740  -18.2577   20.5094 O.2     1  UNL1       -0.4563
     18 N          -4.2754  -18.2476   19.3130 N.3     1  UNL1       -0.3148
     19 C          -4.6964  -19.2479   20.3484 C.3     1  UNL1        0.1307
     20 H          -3.3171  -18.4415   19.0227 H       1  UNL1        0.1192
     21 H          -4.3279  -17.3081   19.7067 H       1  UNL1        0.1192
@<TRIPOS>BOND
     1    18    19    1
     2    19    13    1
     3    13    14   ar
     4    14    15   ar
     5    15    16   ar
     6    16     1    1
     7     1     2   ar
     8     2     3   ar
     9     3     4   ar
    10     4     5   ar
    11     5     6   ar
    12     6     7    1
    13     7     8   ar
    14     8     9   ar
    15     9    10   ar
    16    10    11   ar
    17    11    12   ar
    18    16    17   ar
    19    17    13   ar
    20     6     1   ar
    21    12     7   ar
    22    18    20    1
    23    18    21    1
@<TRIPOS>MOLECULE
*****
 21 23 0 0 0
SMALL
GASTEIGER

@<TRIPOS>ATOM
      1 C          -8.1938  -17.9643   21.6947 C.ar    1  UNL1        0.0537
      2 C          -6.9559  -18.4526   21.0025 C.ar    1  UNL1        0.1019
      3 N          -7.0674  -19.4086   19.8521 N.ar    1  UNL1       -0.2422
      4 C          -8.4169  -19.8764   19.3938 C.ar    1  UNL1        0.0989
      5 C          -9.6549  -19.3881   20.0860 C.ar    1  UNL1        0.0208
      6 C          -9.5433  -18.4321   21.2364 C.ar    1  UNL1        0.0061
      7 C         -10.7812  -17.9438   21.9286 C.ar    1  UNL1        0.0033
      8 C         -11.4462  -18.7979   22.9671 C.ar    1  UNL1        0.0207
      9 C         -12.6841  -18.3097   23.6593 C.ar    1  UNL1        0.0989
     10 N         -13.2571  -16.9673   23.3131 N.ar    1  UNL1       -0.2423
     11 C         -12.5921  -16.1132   22.2746 C.ar    1  UNL1        0.0989
     12 C         -11.3542  -16.6015   21.5824 C.ar    1  UNL1        0.0207
     13 C          -8.1129  -16.0827   25.0886 C.ar    1  UNL1        0.1385
     14 C          -7.7082  -14.9913   24.1424 C.ar    1  UNL1        0.0375
     15 C          -7.6893  -15.5634   22.7559 C.ar    1  UNL1        0.0404
     16 C          -8.0822  -17.0082   22.8452 C.ar    1  UNL1        0.1464
     17 O          -8.3441  -17.3292   24.2868 O.2     1  UNL1       -0.4563
     18 N          -7.4799  -14.9062   27.3169 N.3     1  UNL1       -0.3148
     19 C          -8.2605  -15.9507   26.5754 C.3     1  UNL1        0.1307
     20 H          -7.7012  -14.9584   28.3112 H       1  UNL1        0.1192
     21 H          -7.7257  -13.9821   26.9618 H       1  UNL1        0.1192
@<TRIPOS>BOND
     1    18    19    1
     2    19    13    1
     3    13    14   ar
     4    14    15   ar
     5    15    16   ar
     6    16     1    1
     7     1     2   ar
     8     2     3   ar
     9     3     4   ar
    10     4     5   ar
    11     5     6   ar
    12     6     7    1
    13     7     8   ar
    14     8     9   ar
    15     9    10   ar
    16    10    11   ar
    17    11    12   ar
    18    16    17   ar
    19    17    13   ar
    20     6     1   ar
    21    12     7   ar
    22    18    20    1
    23    18    21    1
@<TRIPOS>MOLECULE
*****
 21 23 0 0 0
SMALL
GASTEIGER

@<TRIPOS>ATOM
      1 C          -8.2070  -18.8874   21.1921 C.ar    1  UNL1        0.0537
      2 C          -6.9784  -19.7228   20.9856 C.ar    1  UNL1        0.1019
      3 N          -6.9019  -20.6703   19.8254 N.ar    1  UNL1       -0.2422
      4 C          -8.0541  -20.7825   18.8715 C.ar    1  UNL1        0.0989
      5 C          -9.2828  -19.9471   19.0779 C.ar    1  UNL1        0.0208
      6 C          -9.3592  -18.9996   20.2382 C.ar    1  UNL1        0.0061
      7 C         -10.5879  -18.1642   20.4446 C.ar    1  UNL1        0.0033
      8 C         -10.7134  -16.8338   19.7632 C.ar    1  UNL1        0.0207
      9 C         -11.9420  -15.9985   19.9697 C.ar    1  UNL1        0.0989
     10 N         -13.0451  -16.4934   20.8575 N.ar    1  UNL1       -0.2423
     11 C         -12.9196  -17.8238   21.5389 C.ar    1  UNL1        0.0989
     12 C         -11.6909  -18.6592   21.3325 C.ar    1  UNL1        0.0207
     13 C          -7.9282  -16.0161   23.7888 C.ar    1  UNL1        0.1385
     14 C          -8.8743  -16.9475   24.4871 C.ar    1  UNL1        0.0375
     15 C          -9.0939  -18.1364   23.5993 C.ar    1  UNL1        0.0404
     16 C          -8.2835  -17.9399   22.3524 C.ar    1  UNL1        0.1464
     17 O          -7.5630  -16.6294   22.4696 O.2     1  UNL1       -0.4563
     18 N          -6.3064  -14.6675   25.3058 N.3     1  UNL1       -0.3148
     19 C          -7.4339  -14.7021   24.3172 C.3     1  UNL1        0.1307
     20 H          -6.1023  -13.6997   25.5551 H       1  UNL1        0.1192
     21 H          -5.4776  -15.0938   24.8914 H       1  UNL1        0.1192
@<TRIPOS>BOND
     1    18    19    1
     2    19    13    1
     3    13    14   ar
     4    14    15   ar
     5    15    16   ar
     6    16     1    1
     7     1     2   ar
     8     2     3   ar
     9     3     4   ar
    10     4     5   ar
    11     5     6   ar
    12     6     7    1
    13     7     8   ar
    14     8     9   ar
    15     9    10   ar
    16    10    11   ar
    17    11    12   ar
    18    16    17   ar
    19    17    13   ar
    20     6     1   ar
    21    12     7   ar
    22    18    20    1
    23    18    21    1
@<TRIPOS>MOLECULE
*****
 21 23 0 0 0
SMALL
GASTEIGER

@<TRIPOS>ATOM
      1 C         -14.3686   -7.5474   18.7550 C.ar    1  UNL1        0.0537
      2 C         -14.6770   -9.0071   18.6005 C.ar    1  UNL1        0.1019
      3 N         -16.0207   -9.5367   19.0053 N.ar    1  UNL1       -0.2422
      4 C         -17.0561   -8.6065   19.5645 C.ar    1  UNL1        0.0989
      5 C         -16.7477   -7.1467   19.7190 C.ar    1  UNL1        0.0208
      6 C         -15.4039   -6.6171   19.3142 C.ar    1  UNL1        0.0061
      7 C         -15.0955   -5.1573   19.4687 C.ar    1  UNL1        0.0033
      8 C         -14.3995   -4.6643   20.7026 C.ar    1  UNL1        0.0207
      9 C         -14.0910   -3.2045   20.8571 C.ar    1  UNL1        0.0989
     10 N         -14.4785   -2.2377   19.7777 N.ar    1  UNL1       -0.2423
     11 C         -15.1746   -2.7307   18.5438 C.ar    1  UNL1        0.0989
     12 C         -15.4830   -4.1905   18.3893 C.ar    1  UNL1        0.0207
     13 C         -10.8181   -6.0111   18.4390 C.ar    1  UNL1        0.1385
     14 C         -11.0958   -6.3944   17.0155 C.ar    1  UNL1        0.0375
     15 C         -12.4596   -7.0165   16.9607 C.ar    1  UNL1        0.0404
     16 C         -13.0248   -7.0177   18.3502 C.ar    1  UNL1        0.1464
     17 O         -12.0103   -6.3964   19.2638 O.2     1  UNL1       -0.4563
     18 N          -9.5890   -3.9144   19.3572 N.3     1  UNL1       -0.3148
     19 C          -9.5677   -5.3574   18.9481 C.3     1  UNL1        0.1307
     20 H          -8.6603   -3.6375   19.6754 H       1  UNL1        0.1192
     21 H         -10.2603   -3.7855   20.1143 H       1  UNL1        0.1192
@<TRIPOS>BOND
     1    18    19    1
     2    19    13    1
     3    13    14   ar
     4    14    15   ar
     5    15    16   ar
     6    16     1    1
     7     1     2   ar
     8     2     3   ar
     9     3     4   ar
    10     4     5   ar
    11     5     6   ar
    12     6     7    1
    13     7     8   ar
    14     8     9   ar
    15     9    10   ar
    16    10    11   ar
    17    11    12   ar
    18    16    17   ar
    19    17    13   ar
    20     6     1   ar
    21    12     7   ar
    22    18    20    1
    23    18    21    1
@<TRIPOS>MOLECULE
*****
 21 23 0 0 0
SMALL
GASTEIGER

@<TRIPOS>ATOM
      1 C          -8.3272  -16.7960   24.4549 C.ar    1  UNL1        0.0537
      2 C          -8.1106  -15.8312   25.5828 C.ar    1  UNL1        0.1019
      3 N          -6.8190  -15.0755   25.6856 N.ar    1  UNL1       -0.2422
      4 C          -5.7441  -15.2844   24.6605 C.ar    1  UNL1        0.0989
      5 C          -5.9607  -16.2492   23.5326 C.ar    1  UNL1        0.0208
      6 C          -7.2523  -17.0050   23.4298 C.ar    1  UNL1        0.0061
      7 C          -7.4690  -17.9698   22.3018 C.ar    1  UNL1        0.0033
      8 C          -6.4493  -19.0326   22.0176 C.ar    1  UNL1        0.0207
      9 C          -6.6660  -19.9973   20.8897 C.ar    1  UNL1        0.0989
     10 N          -7.9023  -19.8994   20.0459 N.ar    1  UNL1       -0.2423
     11 C          -8.9220  -18.8366   20.3301 C.ar    1  UNL1        0.0989
     12 C          -8.7053  -17.8718   21.4581 C.ar    1  UNL1        0.0207
     13 C         -11.9343  -18.1132   23.8892 C.ar    1  UNL1        0.1385
     14 C         -11.2784  -19.3168   24.4984 C.ar    1  UNL1        0.0375
     15 C          -9.8474  -18.9699   24.7844 C.ar    1  UNL1        0.0404
     16 C          -9.6188  -17.5518   24.3520 C.ar    1  UNL1        0.1464
     17 O         -10.9086  -17.0224   23.7987 O.2     1  UNL1       -0.4563
     18 N         -14.4694  -18.1152   24.4579 N.3     1  UNL1       -0.3148
     19 C         -13.3647  -18.0172   23.4479 C.3     1  UNL1        0.1307
     20 H         -15.3698  -18.0301   23.9863 H       1  UNL1        0.1192
     21 H         -14.3718  -17.3652   25.1423 H       1  UNL1        0.1192
@<TRIPOS>BOND
     1    18    19    1
     2    19    13    1
     3    13    14   ar
     4    14    15   ar
     5    15    16   ar
     6    16     1    1
     7     1     2   ar
     8     2     3   ar
     9     3     4   ar
    10     4     5   ar
    11     5     6   ar
    12     6     7    1
    13     7     8   ar
    14     8     9   ar
    15     9    10   ar
    16    10    11   ar
    17    11    12   ar
    18    16    17   ar
    19    17    13   ar
    20     6     1   ar
    21    12     7   ar
    22    18    20    1
    23    18    21    1
@<TRIPOS>MOLECULE
*****
 21 23 0 0 0
SMALL
GASTEIGER

@<TRIPOS>ATOM
      1 C          -7.9822  -16.6385   23.8875 C.ar    1  UNL1        0.0537
      2 C          -7.9185  -15.5272   24.8929 C.ar    1  UNL1        0.1019
      3 N          -6.6038  -14.8795   25.2124 N.ar    1  UNL1       -0.2422
      4 C          -5.3530  -15.3430   24.5265 C.ar    1  UNL1        0.0989
      5 C          -5.4167  -16.4544   23.5211 C.ar    1  UNL1        0.0208
      6 C          -6.7313  -17.1021   23.2016 C.ar    1  UNL1        0.0061
      7 C          -6.7951  -18.2135   22.1962 C.ar    1  UNL1        0.0033
      8 C          -5.8107  -19.3432   22.2636 C.ar    1  UNL1        0.0207
      9 C          -5.8744  -20.4546   21.2582 C.ar    1  UNL1        0.0989
     10 N          -6.9227  -20.4362   20.1854 N.ar    1  UNL1       -0.2423
     11 C          -7.9071  -19.3065   20.1179 C.ar    1  UNL1        0.0989
     12 C          -7.8433  -18.1951   21.1234 C.ar    1  UNL1        0.0207
     13 C         -11.4546  -17.7555   22.5606 C.ar    1  UNL1        0.1385
     14 C         -11.1852  -18.8110   23.5918 C.ar    1  UNL1        0.0375
     15 C          -9.8516  -18.5210   24.2144 C.ar    1  UNL1        0.0404
     16 C          -9.2969  -17.2864   23.5679 C.ar    1  UNL1        0.1464
     17 O         -10.2875  -16.8133   22.5458 O.2     1  UNL1       -0.4563
     18 N         -12.7013  -16.7088   20.5357 N.3     1  UNL1       -0.3148
     19 C         -12.6765  -17.6592   21.6959 C.3     1  UNL1        0.1307
     20 H         -13.6023  -16.7739   20.0620 H       1  UNL1        0.1192
     21 H         -11.9557  -16.9499   19.8827 H       1  UNL1        0.1192
@<TRIPOS>BOND
     1    18    19    1
     2    19    13    1
     3    13    14   ar
     4    14    15   ar
     5    15    16   ar
     6    16     1    1
     7     1     2   ar
     8     2     3   ar
     9     3     4   ar
    10     4     5   ar
    11     5     6   ar
    12     6     7    1
    13     7     8   ar
    14     8     9   ar
    15     9    10   ar
    16    10    11   ar
    17    11    12   ar
    18    16    17   ar
    19    17    13   ar
    20     6     1   ar
    21    12     7   ar
    22    18    20    1
    23    18    21    1
@<TRIPOS>MOLECULE
*****
 21 23 0 0 0
SMALL
GASTEIGER

@<TRIPOS>ATOM
      1 C         -11.9352   -7.1556   18.0906 C.ar    1  UNL1        0.0537
      2 C         -10.7294   -8.0118   17.8401 C.ar    1  UNL1        0.1019
      3 N          -9.3657   -7.5164   18.2205 N.ar    1  UNL1       -0.2422
      4 C          -9.2078   -6.1648   18.8516 C.ar    1  UNL1        0.0989
      5 C         -10.4137   -5.3086   19.1021 C.ar    1  UNL1        0.0208
      6 C         -11.7774   -5.8040   18.7217 C.ar    1  UNL1        0.0061
      7 C         -12.9833   -4.9478   18.9722 C.ar    1  UNL1        0.0033
      8 C         -13.4137   -3.9402   17.9477 C.ar    1  UNL1        0.0207
      9 C         -14.6196   -3.0841   18.1982 C.ar    1  UNL1        0.0989
     10 N         -15.3951   -3.2354   19.4733 N.ar    1  UNL1       -0.2423
     11 C         -14.9648   -4.2430   20.4978 C.ar    1  UNL1        0.0989
     12 C         -13.7588   -5.0992   20.2472 C.ar    1  UNL1        0.0207
     13 C         -15.4330   -8.8061   17.7626 C.ar    1  UNL1        0.1385
     14 C         -15.3623   -8.0206   16.4866 C.ar    1  UNL1        0.0375
     15 C         -14.0434   -7.3068   16.4542 C.ar    1  UNL1        0.0404
     16 C         -13.2990   -7.6510   17.7102 C.ar    1  UNL1        0.1464
     17 O         -14.1578   -8.5776   18.5188 O.2     1  UNL1       -0.4563
     18 N         -16.3439  -11.1118   18.5397 N.3     1  UNL1       -0.3148
     19 C         -16.5778   -9.6685   18.2048 C.3     1  UNL1        0.1307
     20 H         -17.2250  -11.5432   18.8190 H       1  UNL1        0.1192
     21 H         -15.6745  -11.1788   19.3063 H       1  UNL1        0.1192
@<TRIPOS>BOND
     1    18    19    1
     2    19    13    1
     3    13    14   ar
     4    14    15   ar
     5    15    16   ar
     6    16     1    1
     7     1     2   ar
     8     2     3   ar
     9     3     4   ar
    10     4     5   ar
    11     5     6   ar
    12     6     7    1
    13     7     8   ar
    14     8     9   ar
    15     9    10   ar
    16    10    11   ar
    17    11    12   ar
    18    16    17   ar
    19    17    13   ar
    20     6     1   ar
    21    12     7   ar
    22    18    20    1
    23    18    21    1
@<TRIPOS>MOLECULE
*****
 21 23 0 0 0
SMALL
GASTEIGER

@<TRIPOS>ATOM
      1 C         -14.6464   -6.4387   19.0757 C.ar    1  UNL1        0.0537
      2 C         -15.8825   -7.2534   19.3167 C.ar    1  UNL1        0.1019
      3 N         -15.9788   -8.6485   18.7741 N.ar    1  UNL1       -0.2422
      4 C         -14.8390   -9.2288   17.9905 C.ar    1  UNL1        0.0989
      5 C         -13.6029   -8.4141   17.7495 C.ar    1  UNL1        0.0208
      6 C         -13.5065   -7.0190   18.2921 C.ar    1  UNL1        0.0061
      7 C         -12.2703   -6.2042   18.0512 C.ar    1  UNL1        0.0033
      8 C         -11.1002   -6.3236   18.9820 C.ar    1  UNL1        0.0207
      9 C          -9.8640   -5.5089   18.7411 C.ar    1  UNL1        0.0989
     10 N          -9.7980   -4.5747   17.5693 N.ar    1  UNL1       -0.2423
     11 C         -10.9681   -4.4553   16.6385 C.ar    1  UNL1        0.0989
     12 C         -12.2044   -5.2701   16.8794 C.ar    1  UNL1        0.0207
     13 C         -14.8222   -2.6466   19.8849 C.ar    1  UNL1        0.1385
     14 C         -13.9811   -3.1469   21.0218 C.ar    1  UNL1        0.0375
     15 C         -13.8129   -4.6283   20.8570 C.ar    1  UNL1        0.0404
     16 C         -14.5500   -5.0436   19.6183 C.ar    1  UNL1        0.1464
     17 O         -15.1737   -3.8188   19.0176 O.2     1  UNL1       -0.4563
     18 N         -16.3357   -0.6211   20.4820 N.3     1  UNL1       -0.3148
     19 C         -15.2386   -1.2239   19.6557 C.3     1  UNL1        0.1307
     20 H         -16.4865    0.3456   20.1937 H       1  UNL1        0.1192
     21 H         -16.0719   -0.6450   21.4670 H       1  UNL1        0.1192
@<TRIPOS>BOND
     1    18    19    1
     2    19    13    1
     3    13    14   ar
     4    14    15   ar
     5    15    16   ar
     6    16     1    1
     7     1     2   ar
     8     2     3   ar
     9     3     4   ar
    10     4     5   ar
    11     5     6   ar
    12     6     7    1
    13     7     8   ar
    14     8     9   ar
    15     9    10   ar
    16    10    11   ar
    17    11    12   ar
    18    16    17   ar
    19    17    13   ar
    20     6     1   ar
    21    12     7   ar
    22    18    20    1
    23    18    21    1
@<TRIPOS>MOLECULE
*****
 21 23 0 0 0
SMALL
GASTEIGER

@<TRIPOS>ATOM
      1 C         -13.5791   -3.9089   18.8679 C.ar    1  UNL1        0.0537
      2 C         -13.4613   -2.5118   19.4007 C.ar    1  UNL1        0.1019
      3 N         -14.6945   -1.7495   19.7857 N.ar    1  UNL1       -0.2422
      4 C         -16.0454   -2.3844   19.6378 C.ar    1  UNL1        0.0989
      5 C         -16.1632   -3.7815   19.1049 C.ar    1  UNL1        0.0208
      6 C         -14.9301   -4.5438   18.7200 C.ar    1  UNL1        0.0061
      7 C         -15.0478   -5.9411   18.1871 C.ar    1  UNL1        0.0033
      8 C         -15.0325   -6.1830   16.7068 C.ar    1  UNL1        0.0207
      9 C         -15.1502   -7.5802   16.1739 C.ar    1  UNL1        0.0989
     10 N         -15.2833   -8.7355   17.1213 N.ar    1  UNL1       -0.2423
     11 C         -15.2987   -8.4936   18.6016 C.ar    1  UNL1        0.0989
     12 C         -15.1810   -7.0963   19.1345 C.ar    1  UNL1        0.0207
     13 C         -10.5454   -6.2987   18.4793 C.ar    1  UNL1        0.1385
     14 C         -10.3513   -5.3901   17.3017 C.ar    1  UNL1        0.0375
     15 C         -11.4641   -4.3843   17.3039 C.ar    1  UNL1        0.0404
     16 C         -12.3459   -4.6713   18.4829 C.ar    1  UNL1        0.1464
     17 O         -11.7781   -5.8545   19.2093 O.2     1  UNL1       -0.4563
     18 N          -9.6951   -8.7176   18.0594 N.3     1  UNL1       -0.3148
     19 C          -9.6618   -7.4496   18.8600 C.3     1  UNL1        0.1307
     20 H          -9.0362   -9.3876   18.4561 H       1  UNL1        0.1192
     21 H          -9.4356   -8.5167   17.0936 H       1  UNL1        0.1192
@<TRIPOS>BOND
     1    18    19    1
     2    19    13    1
     3    13    14   ar
     4    14    15   ar
     5    15    16   ar
     6    16     1    1
     7     1     2   ar
     8     2     3   ar
     9     3     4   ar
    10     4     5   ar
    11     5     6   ar
    12     6     7    1
    13     7     8   ar
    14     8     9   ar
    15     9    10   ar
    16    10    11   ar
    17    11    12   ar
    18    16    17   ar
    19    17    13   ar
    20     6     1   ar
    21    12     7   ar
    22    18    20    1
    23    18    21    1
