@<TRIPOS>MOLECULE
*****
 20 22 0 0 0
SMALL
GASTEIGER

@<TRIPOS>ATOM
      1 C          -9.3025  -18.5474   21.0642 C.ar    1  UNL1        0.0657
      2 C          -8.3622  -18.7844   22.2086 C.ar    1  UNL1        0.0207
      3 C          -7.1332  -19.6208   22.0086 C.ar    1  UNL1        0.0384
      4 C          -6.8445  -20.2202   20.6642 C.ar    1  UNL1        0.1387
      5 C          -7.7848  -19.9832   19.5198 C.ar    1  UNL1        0.0384
      6 C          -9.0138  -19.1468   19.7198 C.ar    1  UNL1        0.0207
      7 C         -12.2432  -16.3329   22.2945 C.ar    1  UNL1        0.1196
      8 C         -10.9634  -17.0721   22.5508 C.ar    1  UNL1        0.1022
      9 N         -10.5315  -17.7110   21.2642 N.ar    1  UNL1       -0.2864
     10 C         -11.5444  -17.3667   20.2128 C.ar    1  UNL1        0.1828
     11 N         -12.6023  -16.5150   20.8495 N.ar    1  UNL1       -0.2220
     12 O          -5.6155  -21.0566   20.4642 O.3     1  UNL1       -0.4740
     13 C          -4.3136  -20.4032   20.1064 C.3     1  UNL1        0.2226
     14 C          -3.3461  -20.0180   21.1861 C.3     1  UNL1        0.1202
     15 N          -2.5638  -18.7432   21.0723 N.3     1  UNL1       -0.2653
     16 C          -2.8899  -17.5811   21.9629 C.3     1  UNL1        0.1047
     17 C          -2.1077  -16.3064   21.8492 C.3     1  UNL1        0.1595
     18 O          -0.9992  -16.1937   20.8448 O.3     1  UNL1       -0.3508
     19 C          -0.6731  -17.3558   19.9542 C.3     1  UNL1        0.1595
     20 C          -1.4554  -18.6306   20.0680 C.3     1  UNL1        0.1047
@<TRIPOS>BOND
     1     7     8   ar
     2     8     9   ar
     3     9     1    1
     4     1     2   ar
     5     2     3   ar
     6     3     4   ar
     7     4    12    1
     8    12    13    1
     9    13    14    1
    10    14    15    1
    11    15    16    1
    12    16    17    1
    13    17    18    1
    14    18    19    1
    15    19    20    1
    16     4     5   ar
    17     5     6   ar
    18     9    10   ar
    19    10    11   ar
    20    11     7   ar
    21     6     1   ar
    22    20    15    1
@<TRIPOS>MOLECULE
*****
 20 22 0 0 0
SMALL
GASTEIGER

@<TRIPOS>ATOM
      1 C          -3.6113  -19.0203   20.6978 C.ar    1  UNL1        0.0657
      2 C          -4.4371  -20.0384   19.9688 C.ar    1  UNL1        0.0207
      3 C          -5.7255  -20.5243   20.5637 C.ar    1  UNL1        0.0384
      4 C          -6.1881  -19.9920   21.8876 C.ar    1  UNL1        0.1387
      5 C          -5.3623  -18.9739   22.6166 C.ar    1  UNL1        0.0384
      6 C          -4.0739  -18.4881   22.0217 C.ar    1  UNL1        0.0207
      7 C          -0.0335  -17.7625   19.8715 C.ar    1  UNL1        0.1196
      8 C          -1.0693  -18.2096   20.8600 C.ar    1  UNL1        0.1022
      9 N          -2.3229  -18.5344   20.1029 N.ar    1  UNL1       -0.2864
     10 C          -2.0617  -18.2881   18.6465 C.ar    1  UNL1        0.1828
     11 N          -0.6469  -17.8110   18.5035 N.ar    1  UNL1       -0.2220
     12 O          -7.4766  -20.4779   22.4826 O.3     1  UNL1       -0.4740
     13 C          -8.4979  -19.4919   22.9670 C.3     1  UNL1        0.2226
     14 C          -9.9599  -19.7831   22.7996 C.3     1  UNL1        0.1202
     15 N         -10.8281  -18.8399   22.0209 N.3     1  UNL1       -0.2653
     16 C         -12.0827  -18.2943   22.6358 C.3     1  UNL1        0.1047
     17 C         -12.9509  -17.3511   21.8571 C.3     1  UNL1        0.1595
     18 O         -12.5645  -16.9534   20.4633 O.3     1  UNL1       -0.3508
     19 C         -11.3098  -17.4990   19.8483 C.3     1  UNL1        0.1595
     20 C         -10.4416  -18.4422   20.6272 C.3     1  UNL1        0.1047
@<TRIPOS>BOND
     1     7     8   ar
     2     8     9   ar
     3     9     1    1
     4     1     2   ar
     5     2     3   ar
     6     3     4   ar
     7     4    12    1
     8    12    13    1
     9    13    14    1
    10    14    15    1
    11    15    16    1
    12    16    17    1
    13    17    18    1
    14    18    19    1
    15    19    20    1
    16     4     5   ar
    17     5     6   ar
    18     9    10   ar
    19    10    11   ar
    20    11     7   ar
    21     6     1   ar
    22    20    15    1
@<TRIPOS>MOLECULE
*****
 20 22 0 0 0
SMALL
GASTEIGER

@<TRIPOS>ATOM
      1 C          -9.2243  -17.3030   23.1389 C.ar    1  UNL1        0.0657
      2 C          -8.6825  -16.1254   23.8937 C.ar    1  UNL1        0.0207
      3 C          -7.2038  -15.8767   23.9346 C.ar    1  UNL1        0.0384
      4 C          -6.2670  -16.8056   23.2207 C.ar    1  UNL1        0.1387
      5 C          -6.8088  -17.9831   22.4659 C.ar    1  UNL1        0.0384
      6 C          -8.2875  -18.2318   22.4250 C.ar    1  UNL1        0.0207
      7 C         -13.0234  -17.5604   22.3863 C.ar    1  UNL1        0.1196
      8 C         -11.6449  -17.0928   22.0245 C.ar    1  UNL1        0.1022
      9 N         -10.7030  -17.5517   23.0980 N.ar    1  UNL1       -0.2864
     10 C         -11.4994  -18.3030   24.1232 C.ar    1  UNL1        0.1828
     11 N         -12.9335  -18.3084   23.6835 N.ar    1  UNL1       -0.2220
     12 O          -4.7883  -16.5568   23.2617 O.3     1  UNL1       -0.4740
     13 C          -3.8513  -17.6661   23.6377 C.3     1  UNL1        0.2226
     14 C          -2.5090  -17.7707   22.9763 C.3     1  UNL1        0.1202
     15 N          -2.4166  -18.0852   21.5126 N.3     1  UNL1       -0.2653
     16 C          -1.3005  -17.5112   20.6911 C.3     1  UNL1        0.1047
     17 C          -1.2081  -17.8258   19.2274 C.3     1  UNL1        0.1595
     18 O          -2.2317  -18.7144   18.5851 O.3     1  UNL1       -0.3508
     19 C          -3.3478  -19.2885   19.4066 C.3     1  UNL1        0.1595
     20 C          -3.4402  -18.9739   20.8704 C.3     1  UNL1        0.1047
@<TRIPOS>BOND
     1     7     8   ar
     2     8     9   ar
     3     9     1    1
     4     1     2   ar
     5     2     3   ar
     6     3     4   ar
     7     4    12    1
     8    12    13    1
     9    13    14    1
    10    14    15    1
    11    15    16    1
    12    16    17    1
    13    17    18    1
    14    18    19    1
    15    19    20    1
    16     4     5   ar
    17     5     6   ar
    18     9    10   ar
    19    10    11   ar
    20    11     7   ar
    21     6     1   ar
    22    20    15    1
@<TRIPOS>MOLECULE
*****
 20 22 0 0 0
SMALL
GASTEIGER

@<TRIPOS>ATOM
      1 C          -5.5551  -19.2942   20.8715 C.ar    1  UNL1        0.0657
      2 C          -6.1737  -19.5032   22.2219 C.ar    1  UNL1        0.0207
      3 C          -7.6641  -19.6050   22.3563 C.ar    1  UNL1        0.0384
      4 C          -8.5360  -19.4978   21.1404 C.ar    1  UNL1        0.1387
      5 C          -7.9174  -19.2888   19.7901 C.ar    1  UNL1        0.0384
      6 C          -6.4269  -19.1870   19.6556 C.ar    1  UNL1        0.0207
      7 C          -1.8528  -18.7444   19.8436 C.ar    1  UNL1        0.1196
      8 C          -3.3209  -18.6613   19.5474 C.ar    1  UNL1        0.1022
      9 N          -4.0645  -19.1924   20.7370 N.ar    1  UNL1       -0.2864
     10 C          -3.0560  -19.6037   21.7683 C.ar    1  UNL1        0.1828
     11 N          -1.6891  -19.3269   21.2162 N.ar    1  UNL1       -0.2220
     12 O         -10.0265  -19.5996   21.2750 O.3     1  UNL1       -0.4740
     13 C         -10.9033  -18.4989   20.7558 C.3     1  UNL1        0.2226
     14 C         -11.0495  -17.2256   21.5353 C.3     1  UNL1        0.1202
     15 N          -9.9832  -16.8144   22.5068 N.3     1  UNL1       -0.2653
     16 C         -10.0902  -17.2101   23.9497 C.3     1  UNL1        0.1047
     17 C          -9.0239  -16.7989   24.9212 C.3     1  UNL1        0.1595
     18 O          -7.8506  -15.9919   24.4499 O.3     1  UNL1       -0.3508
     19 C          -7.7436  -15.5962   23.0070 C.3     1  UNL1        0.1595
     20 C          -8.8099  -16.0074   22.0354 C.3     1  UNL1        0.1047
@<TRIPOS>BOND
     1     7     8   ar
     2     8     9   ar
     3     9     1    1
     4     1     2   ar
     5     2     3   ar
     6     3     4   ar
     7     4    12    1
     8    12    13    1
     9    13    14    1
    10    14    15    1
    11    15    16    1
    12    16    17    1
    13    17    18    1
    14    18    19    1
    15    19    20    1
    16     4     5   ar
    17     5     6   ar
    18     9    10   ar
    19    10    11   ar
    20    11     7   ar
    21     6     1   ar
    22    20    15    1
@<TRIPOS>MOLECULE
*****
 20 22 0 0 0
SMALL
GASTEIGER

@<TRIPOS>ATOM
      1 C          -4.8991  -17.9823   22.4036 C.ar    1  UNL1        0.0657
      2 C          -4.9894  -16.8116   23.3369 C.ar    1  UNL1        0.0207
      3 C          -6.3275  -16.3482   23.8315 C.ar    1  UNL1        0.0384
      4 C          -7.5753  -17.0555   23.3927 C.ar    1  UNL1        0.1387
      5 C          -7.4851  -18.2262   22.4593 C.ar    1  UNL1        0.0384
      6 C          -6.1469  -18.6896   21.9648 C.ar    1  UNL1        0.0207
      7 C          -1.3041  -18.4475   21.0158 C.ar    1  UNL1        0.1196
      8 C          -2.4547  -17.5671   21.4046 C.ar    1  UNL1        0.1022
      9 N          -3.5609  -18.4457   21.9090 N.ar    1  UNL1       -0.2864
     10 C          -3.0940  -19.8691   21.8319 C.ar    1  UNL1        0.1828
     11 N          -1.6993  -19.8702   21.2799 N.ar    1  UNL1       -0.2220
     12 O          -8.9135  -16.5920   23.8873 O.3     1  UNL1       -0.4740
     13 C          -9.8088  -17.5403   24.6282 C.3     1  UNL1        0.2226
     14 C         -10.9729  -18.1755   23.9271 C.3     1  UNL1        0.1202
     15 N         -11.2643  -17.8331   22.4961 N.3     1  UNL1       -0.2653
     16 C         -10.8164  -18.7525   21.3987 C.3     1  UNL1        0.1047
     17 C         -11.1078  -18.4100   19.9677 C.3     1  UNL1        0.1595
     18 O         -11.8471  -17.1482   19.6340 O.3     1  UNL1       -0.3508
     19 C         -12.2950  -16.2289   20.7314 C.3     1  UNL1        0.1595
     20 C         -12.0036  -16.5713   22.1624 C.3     1  UNL1        0.1047
@<TRIPOS>BOND
     1     7     8   ar
     2     8     9   ar
     3     9     1    1
     4     1     2   ar
     5     2     3   ar
     6     3     4   ar
     7     4    12    1
     8    12    13    1
     9    13    14    1
    10    14    15    1
    11    15    16    1
    12    16    17    1
    13    17    18    1
    14    18    19    1
    15    19    20    1
    16     4     5   ar
    17     5     6   ar
    18     9    10   ar
    19    10    11   ar
    20    11     7   ar
    21     6     1   ar
    22    20    15    1
@<TRIPOS>MOLECULE
*****
 20 22 0 0 0
SMALL
GASTEIGER

@<TRIPOS>ATOM
      1 C          -3.7677  -18.6079   20.9815 C.ar    1  UNL1        0.0657
      2 C          -4.2819  -18.2264   22.3379 C.ar    1  UNL1        0.0207
      3 C          -5.6890  -18.5679   22.7299 C.ar    1  UNL1        0.0384
      4 C          -6.5818  -19.2908   21.7654 C.ar    1  UNL1        0.1387
      5 C          -6.0676  -19.6723   20.4089 C.ar    1  UNL1        0.0384
      6 C          -4.6605  -19.3308   20.0170 C.ar    1  UNL1        0.0207
      7 C          -0.3022  -17.0355   20.2176 C.ar    1  UNL1        0.1196
      8 C          -1.7063  -16.9244   20.7334 C.ar    1  UNL1        0.1022
      9 N          -2.3607  -18.2664   20.5894 N.ar    1  UNL1       -0.2864
     10 C          -1.3609  -19.2070   19.9846 C.ar    1  UNL1        0.1828
     11 N          -0.0887  -18.4463   19.7548 N.ar    1  UNL1       -0.2220
     12 O          -7.9888  -19.6323   22.1574 O.3     1  UNL1       -0.4740
     13 C          -9.1425  -19.0151   21.4239 C.3     1  UNL1        0.2226
     14 C          -9.5105  -17.5826   21.6743 C.3     1  UNL1        0.1202
     15 N          -8.9522  -16.8620   22.8656 N.3     1  UNL1       -0.2653
     16 C          -7.9745  -15.7408   22.6736 C.3     1  UNL1        0.1047
     17 C          -7.4162  -15.0202   23.8648 C.3     1  UNL1        0.1595
     18 O          -7.8356  -15.4210   25.2482 O.3     1  UNL1       -0.3508
     19 C          -8.8133  -16.5422   25.4402 C.3     1  UNL1        0.1595
     20 C          -9.3716  -17.2628   24.2488 C.3     1  UNL1        0.1047
@<TRIPOS>BOND
     1     7     8   ar
     2     8     9   ar
     3     9     1    1
     4     1     2   ar
     5     2     3   ar
     6     3     4   ar
     7     4    12    1
     8    12    13    1
     9    13    14    1
    10    14    15    1
    11    15    16    1
    12    16    17    1
    13    17    18    1
    14    18    19    1
    15    19    20    1
    16     4     5   ar
    17     5     6   ar
    18     9    10   ar
    19    10    11   ar
    20    11     7   ar
    21     6     1   ar
    22    20    15    1
@<TRIPOS>MOLECULE
*****
 20 22 0 0 0
SMALL
GASTEIGER

@<TRIPOS>ATOM
      1 C          -9.6551  -17.9791   22.3905 C.ar    1  UNL1        0.0657
      2 C          -8.4940  -17.2306   22.9750 C.ar    1  UNL1        0.0207
      3 C          -7.0936  -17.7093   22.7309 C.ar    1  UNL1        0.0384
      4 C          -6.8542  -18.9366   21.9024 C.ar    1  UNL1        0.1387
      5 C          -8.0152  -19.6851   21.3179 C.ar    1  UNL1        0.0384
      6 C          -9.4157  -19.2064   21.5619 C.ar    1  UNL1        0.0207
      7 C         -13.0525  -16.1211   22.6570 C.ar    1  UNL1        0.1196
      8 C         -11.6229  -16.1793   22.2068 C.ar    1  UNL1        0.1022
      9 N         -11.0556  -17.5004   22.6345 N.ar    1  UNL1       -0.2864
     10 C         -12.1346  -18.2587   23.3491 C.ar    1  UNL1        0.1828
     11 N         -13.3688  -17.4062   23.3630 N.ar    1  UNL1       -0.2220
     12 O          -5.4537  -19.4153   21.6584 O.3     1  UNL1       -0.4740
     13 C          -5.1950  -20.4935   20.6482 C.3     1  UNL1        0.2226
     14 C          -3.8377  -20.6258   20.0233 C.3     1  UNL1        0.1202
     15 N          -2.9097  -19.4479   19.9894 N.3     1  UNL1       -0.2653
     16 C          -2.8117  -18.6056   18.7521 C.3     1  UNL1        0.1047
     17 C          -1.8836  -17.4277   18.7182 C.3     1  UNL1        0.1595
     18 O          -1.0534  -17.0921   19.9217 O.3     1  UNL1       -0.3508
     19 C          -1.1514  -17.9344   21.1590 C.3     1  UNL1        0.1595
     20 C          -2.0795  -19.1123   21.1928 C.3     1  UNL1        0.1047
@<TRIPOS>BOND
     1     7     8   ar
     2     8     9   ar
     3     9     1    1
     4     1     2   ar
     5     2     3   ar
     6     3     4   ar
     7     4    12    1
     8    12    13    1
     9    13    14    1
    10    14    15    1
    11    15    16    1
    12    16    17    1
    13    17    18    1
    14    18    19    1
    15    19    20    1
    16     4     5   ar
    17     5     6   ar
    18     9    10   ar
    19    10    11   ar
    20    11     7   ar
    21     6     1   ar
    22    20    15    1
@<TRIPOS>MOLECULE
*****
 20 22 0 0 0
SMALL
GASTEIGER

@<TRIPOS>ATOM
      1 C         -15.0618   -6.7975   19.3381 C.ar    1  UNL1        0.0657
      2 C         -13.5885   -6.5163   19.3558 C.ar    1  UNL1        0.0207
      3 C         -13.0940   -5.1228   19.6074 C.ar    1  UNL1        0.0384
      4 C         -14.0727   -4.0104   19.8413 C.ar    1  UNL1        0.1387
      5 C         -15.5460   -4.2916   19.8235 C.ar    1  UNL1        0.0384
      6 C         -16.0405   -5.6852   19.5720 C.ar    1  UNL1        0.0207
      7 C         -16.9284  -10.1931   19.1107 C.ar    1  UNL1        0.1196
      8 C         -16.8354   -8.7797   19.6041 C.ar    1  UNL1        0.1022
      9 N         -15.5564   -8.1912   19.0865 N.ar    1  UNL1       -0.2864
     10 C         -14.8589   -9.2409   18.2731 C.ar    1  UNL1        0.1828
     11 N         -15.7068  -10.4782   18.2880 N.ar    1  UNL1       -0.2220
     12 O         -13.5781   -2.6168   20.0929 O.3     1  UNL1       -0.4740
     13 C         -13.2280   -1.7253   18.9384 C.3     1  UNL1        0.2226
     14 C         -11.8294   -1.7145   18.3964 C.3     1  UNL1        0.1202
     15 N         -11.2305   -2.9726   17.8410 N.3     1  UNL1       -0.2653
     16 C         -11.7269   -3.5283   16.5391 C.3     1  UNL1        0.1047
     17 C         -11.1281   -4.7864   15.9837 C.3     1  UNL1        0.1595
     18 O         -10.0328   -5.4889   16.7301 O.3     1  UNL1       -0.3508
     19 C          -9.5365   -4.9332   18.0320 C.3     1  UNL1        0.1595
     20 C         -10.1354   -3.6751   18.5874 C.3     1  UNL1        0.1047
@<TRIPOS>BOND
     1     7     8   ar
     2     8     9   ar
     3     9     1    1
     4     1     2   ar
     5     2     3   ar
     6     3     4   ar
     7     4    12    1
     8    12    13    1
     9    13    14    1
    10    14    15    1
    11    15    16    1
    12    16    17    1
    13    17    18    1
    14    18    19    1
    15    19    20    1
    16     4     5   ar
    17     5     6   ar
    18     9    10   ar
    19    10    11   ar
    20    11     7   ar
    21     6     1   ar
    22    20    15    1
@<TRIPOS>MOLECULE
*****
 20 22 0 0 0
SMALL
GASTEIGER

@<TRIPOS>ATOM
      1 C           3.0968   -0.5290   18.9336 C.ar    1  UNL1        0.0657
      2 C           2.5586    0.7104   18.2824 C.ar    1  UNL1        0.0207
      3 C           1.2736    1.3142   18.7662 C.ar    1  UNL1        0.0384
      4 C           0.5267    0.6786   19.9011 C.ar    1  UNL1        0.1387
      5 C           1.0649   -0.5609   20.5523 C.ar    1  UNL1        0.0384
      6 C           2.3499   -1.1647   20.0686 C.ar    1  UNL1        0.0207
      7 C           6.2139   -2.6853   18.0968 C.ar    1  UNL1        0.1196
      8 C           4.9018   -2.4960   18.7987 C.ar    1  UNL1        0.1022
      9 N           4.3819   -1.1329   18.4499 N.ar    1  UNL1       -0.2864
     10 C           5.3726   -0.4797   17.5324 C.ar    1  UNL1        0.1828
     11 N           6.5049   -1.4391   17.3142 N.ar    1  UNL1       -0.2220
     12 O          -0.7584    1.2825   20.3849 O.3     1  UNL1       -0.4740
     13 C          -0.8390    2.7552   20.6579 C.3     1  UNL1        0.2226
     14 C          -2.1511    3.3776   21.0337 C.3     1  UNL1        0.1202
     15 N          -3.2351    3.5200   20.0069 N.3     1  UNL1       -0.2653
     16 C          -2.8947    3.9552   18.6123 C.3     1  UNL1        0.1047
     17 C          -3.9787    4.0977   17.5854 C.3     1  UNL1        0.1595
     18 O          -5.4032    3.8050   17.9530 O.3     1  UNL1       -0.3508
     19 C          -5.7437    3.3698   19.3476 C.3     1  UNL1        0.1595
     20 C          -4.6595    3.2273   20.3745 C.3     1  UNL1        0.1047
@<TRIPOS>BOND
     1     7     8   ar
     2     8     9   ar
     3     9     1    1
     4     1     2   ar
     5     2     3   ar
     6     3     4   ar
     7     4    12    1
     8    12    13    1
     9    13    14    1
    10    14    15    1
    11    15    16    1
    12    16    17    1
    13    17    18    1
    14    18    19    1
    15    19    20    1
    16     4     5   ar
    17     5     6   ar
    18     9    10   ar
    19    10    11   ar
    20    11     7   ar
    21     6     1   ar
    22    20    15    1
