@<TRIPOS>MOLECULE
*****
 37 40 0 0 0
SMALL
GASTEIGER

@<TRIPOS>ATOM
      1 N          -9.2921  -19.9217   22.6923 N.pl3   1  UNL1       -0.3316
      2 H          -9.6655  -20.8132   22.8796 H       1  UNL1        0.1468
      3 C          -7.9871  -19.7930   21.9641 C.ar    1  UNL1        0.0577
      4 C          -6.7094  -19.6434   22.7354 C.ar    1  UNL1        0.0462
      5 C          -5.4043  -19.5147   22.0072 C.ar    1  UNL1        0.1602
      6 F          -4.1266  -19.3652   22.7785 F       1  UNL1       -0.2027
      7 C          -5.3770  -19.5356   20.5076 C.ar    1  UNL1        0.1534
      8 C          -6.6548  -19.6851   19.7362 C.ar    1  UNL1        0.0351
      9 C          -7.9598  -19.8138   20.4644 C.ar    1  UNL1        0.0722
     10 CL         -9.2375  -19.9634   19.6930 Cl      1  UNL1       -0.0809
     11 S          -4.0720  -19.4069   19.7794 S.O2    1  UNL1        0.0769
     12 O          -4.5572  -18.1432   19.1332 O.2     1  UNL1       -0.1498
     13 O          -3.5868  -20.6706   20.4256 O.2     1  UNL1       -0.1498
     14 N          -2.7669  -19.2781   19.0511 N.pl3   1  UNL1       -0.1984
     15 H          -2.6165  -19.7806   18.2180 H       1  UNL1        0.1753
     16 C          -1.6912  -18.3838   19.5923 C.ar    1  UNL1        0.1542
     17 C          -1.9043  -17.1274   20.3836 C.ar    1  UNL1        0.0725
     18 S          -0.5582  -16.5560   20.7176 S.2     1  UNL1       -0.0625
     19 C           0.4869  -17.4592   20.1327 C.ar    1  UNL1        0.1360
     20 N          -0.2133  -18.5889   19.4372 N.ar    1  UNL1       -0.2203
     21 C         -10.0284  -18.6921   23.1350 C.3     1  UNL1        0.0927
     22 N         -12.0615  -19.1492   20.9769 N.3     1  UNL1       -0.3219
     23 C         -11.3490  -17.8325   21.0693 C.3     1  UNL1        0.0568
     24 C         -11.6529  -16.7443   20.0827 C.3     1  UNL1        0.0205
     25 C         -10.9404  -15.4276   20.1752 C.3     1  UNL1        0.0271
     26 C          -9.9238  -15.1990   21.2542 C.2     1  UNL1       -0.0303
     27 C          -9.6199  -16.2872   22.2408 C.2     1  UNL1       -0.0238
     28 C         -10.3324  -17.6039   22.1484 C.3     1  UNL1        0.0557
     29 H         -12.7118  -19.1294   20.1913 H       1  UNL1        0.1188
     30 H         -12.5769  -19.3182   21.8407 H       1  UNL1        0.1188
     31 C          -8.6033  -16.0587   23.3199 C.ar    1  UNL1       -0.0040
     32 C          -7.1404  -16.0800   22.9889 C.ar    1  UNL1        0.0020
     33 C          -6.1239  -15.8515   24.0680 C.ar    1  UNL1        0.0296
     34 C          -6.5702  -15.6017   25.4781 C.ar    1  UNL1        0.1401
     35 F          -5.5537  -15.3732   26.5572 F       1  UNL1       -0.2042
     36 C          -8.0331  -15.5805   25.8091 C.ar    1  UNL1        0.0296
     37 C          -9.0496  -15.8090   24.7300 C.ar    1  UNL1        0.0020
@<TRIPOS>BOND
     1    23    22    1
     2    23    24    1
     3    24    25    1
     4    25    26    1
     5    26    27    2
     6    27    31    1
     7    31    32   ar
     8    32    33   ar
     9    33    34   ar
    10    34    35    1
    11    34    36   ar
    12    36    37   ar
    13    27    28    1
    14    28    21    1
    15    21     1    1
    16     1     3    1
    17     3     4   ar
    18     4     5   ar
    19     5     6    1
    20     5     7   ar
    21     7    11    1
    22    11    12    2
    23    11    13    2
    24    11    14    1
    25    14    16    1
    26    16    17   ar
    27    17    18   ar
    28    18    19   ar
    29    19    20   ar
    30     7     8   ar
    31     8     9   ar
    32     9    10    1
    33    28    23    1
    34     9     3   ar
    35    37    31   ar
    36    20    16   ar
    37    22    29    1
    38    22    30    1
    39     1     2    1
    40    14    15    1
@<TRIPOS>MOLECULE
*****
 37 40 0 0 0
SMALL
GASTEIGER

@<TRIPOS>ATOM
      1 N         -10.5957  -20.2821   22.4444 N.pl3   1  UNL1       -0.3316
      2 H         -11.0496  -21.1514   22.3581 H       1  UNL1        0.1468
      3 C          -9.2510  -20.0722   21.8137 C.ar    1  UNL1        0.0577
      4 C          -8.0039  -20.2670   22.6240 C.ar    1  UNL1        0.0462
      5 C          -6.6592  -20.0571   21.9932 C.ar    1  UNL1        0.1602
      6 F          -5.4120  -20.2519   22.8035 F       1  UNL1       -0.2027
      7 C          -6.5617  -19.6525   20.5521 C.ar    1  UNL1        0.1534
      8 C          -7.8089  -19.4577   19.7418 C.ar    1  UNL1        0.0351
      9 C          -9.1535  -19.6676   20.3725 C.ar    1  UNL1        0.0722
     10 CL        -10.4007  -19.4728   19.5622 Cl      1  UNL1       -0.0809
     11 S          -5.2171  -19.4426   19.9214 S.O2    1  UNL1        0.0769
     12 O          -5.5836  -18.0212   19.6130 O.2     1  UNL1       -0.1498
     13 O          -4.8506  -20.8640   20.2297 O.2     1  UNL1       -0.1498
     14 N          -3.8724  -19.2327   19.2906 N.pl3   1  UNL1       -0.1984
     15 H          -3.6390  -19.7066   18.4598 H       1  UNL1        0.1753
     16 C          -2.8834  -18.3007   19.9256 C.ar    1  UNL1        0.1542
     17 C          -1.5325  -17.9435   19.3801 C.ar    1  UNL1        0.0725
     18 S          -0.8858  -16.9843   20.3350 S.2     1  UNL1       -0.0625
     19 C          -1.8370  -16.7487   21.4706 C.ar    1  UNL1        0.1360
     20 N          -3.0717  -17.5622   21.2177 N.ar    1  UNL1       -0.2203
     21 C         -11.2487  -19.1675   23.2068 C.3     1  UNL1        0.0927
     22 N         -10.1396  -20.0601   25.8475 N.3     1  UNL1       -0.3219
     23 C          -9.8585  -18.6748   25.3457 C.3     1  UNL1        0.0568
     24 C          -9.0229  -17.7357   26.1642 C.3     1  UNL1        0.0205
     25 C          -8.7418  -16.3504   25.6623 C.3     1  UNL1        0.0271
     26 C          -9.2963  -15.9041   24.3420 C.2     1  UNL1       -0.0303
     27 C         -10.1319  -16.8431   23.5235 C.2     1  UNL1       -0.0238
     28 C         -10.4130  -18.2285   24.0254 C.3     1  UNL1        0.0557
     29 H          -9.6888  -20.1917   26.7530 H       1  UNL1        0.1188
     30 H          -9.7746  -20.7429   25.1835 H       1  UNL1        0.1188
     31 C         -10.6865  -16.3968   22.2031 C.ar    1  UNL1       -0.0040
     32 C         -12.1486  -16.5592   21.9103 C.ar    1  UNL1        0.0020
     33 C         -12.7031  -16.1129   20.5899 C.ar    1  UNL1        0.0296
     34 C         -11.7955  -15.5042   19.5624 C.ar    1  UNL1        0.1401
     35 F         -12.3500  -15.0580   18.2421 F       1  UNL1       -0.2042
     36 C         -10.3333  -15.3419   19.8553 C.ar    1  UNL1        0.0296
     37 C          -9.7788  -15.7881   21.1757 C.ar    1  UNL1        0.0020
@<TRIPOS>BOND
     1    23    22    1
     2    23    24    1
     3    24    25    1
     4    25    26    1
     5    26    27    2
     6    27    31    1
     7    31    32   ar
     8    32    33   ar
     9    33    34   ar
    10    34    35    1
    11    34    36   ar
    12    36    37   ar
    13    27    28    1
    14    28    21    1
    15    21     1    1
    16     1     3    1
    17     3     4   ar
    18     4     5   ar
    19     5     6    1
    20     5     7   ar
    21     7    11    1
    22    11    12    2
    23    11    13    2
    24    11    14    1
    25    14    16    1
    26    16    17   ar
    27    17    18   ar
    28    18    19   ar
    29    19    20   ar
    30     7     8   ar
    31     8     9   ar
    32     9    10    1
    33    28    23    1
    34     9     3   ar
    35    37    31   ar
    36    20    16   ar
    37    22    29    1
    38    22    30    1
    39     1     2    1
    40    14    15    1
@<TRIPOS>MOLECULE
*****
 37 40 0 0 0
SMALL
GASTEIGER

@<TRIPOS>ATOM
      1 N          -8.7429  -15.6545   24.7793 N.pl3   1  UNL1       -0.3316
      2 H          -8.7556  -14.8867   25.3953 H       1  UNL1        0.1468
      3 C          -7.4347  -16.2057   24.2947 C.ar    1  UNL1        0.0577
      4 C          -7.3953  -17.0859   23.0807 C.ar    1  UNL1        0.0462
      5 C          -6.0871  -17.6370   22.5961 C.ar    1  UNL1        0.1602
      6 F          -6.0476  -18.5172   21.3821 F       1  UNL1       -0.2027
      7 C          -4.8183  -17.3079   23.3254 C.ar    1  UNL1        0.1534
      8 C          -4.8577  -16.4277   24.5394 C.ar    1  UNL1        0.0351
      9 C          -6.1659  -15.8766   25.0240 C.ar    1  UNL1        0.0722
     10 CL         -6.2053  -14.9964   26.2380 Cl      1  UNL1       -0.0809
     11 S          -3.5102  -17.8591   22.8408 S.O2    1  UNL1        0.0769
     12 O          -3.0484  -16.4711   22.5088 O.2     1  UNL1       -0.1498
     13 O          -3.9719  -19.2470   23.1728 O.2     1  UNL1       -0.1498
     14 N          -2.2019  -18.4102   22.3561 N.pl3   1  UNL1       -0.1984
     15 H          -1.6191  -18.9092   22.9730 H       1  UNL1        0.1753
     16 C          -1.7816  -18.2010   20.9314 C.ar    1  UNL1        0.1542
     17 C          -2.6958  -18.1242   19.7447 C.ar    1  UNL1        0.0725
     18 S          -1.8526  -17.9075   18.5232 S.2     1  UNL1       -0.0625
     19 C          -0.4172  -17.8504   18.9550 C.ar    1  UNL1        0.1360
     20 N          -0.3733  -18.0318   20.4434 N.ar    1  UNL1       -0.2203
     21 C         -10.0317  -16.2733   24.3254 C.3     1  UNL1        0.0927
     22 N          -9.2298  -17.9673   26.6679 N.3     1  UNL1       -0.3219
     23 C          -9.7610  -18.6128   25.4224 C.3     1  UNL1        0.0568
     24 C          -9.8912  -20.1052   25.3482 C.3     1  UNL1        0.0205
     25 C         -10.4223  -20.7507   24.1027 C.3     1  UNL1        0.0271
     26 C         -10.8232  -19.9038   22.9315 C.2     1  UNL1       -0.0303
     27 C         -10.6930  -18.4113   23.0057 C.2     1  UNL1       -0.0238
     28 C         -10.1619  -17.7658   24.2512 C.3     1  UNL1        0.0557
     29 H          -9.0092  -18.6869   27.3563 H       1  UNL1        0.1188
     30 H          -9.9336  -17.3356   27.0501 H       1  UNL1        0.1188
     31 C         -11.0940  -17.5642   21.8344 C.ar    1  UNL1       -0.0040
     32 C         -10.2183  -17.5034   20.6181 C.ar    1  UNL1        0.0020
     33 C         -10.6192  -16.6564   19.4469 C.ar    1  UNL1        0.0296
     34 C         -11.8959  -15.8701   19.4920 C.ar    1  UNL1        0.1401
     35 F         -12.2968  -15.0231   18.3208 F       1  UNL1       -0.2042
     36 C         -12.7716  -15.9310   20.7084 C.ar    1  UNL1        0.0296
     37 C         -12.3706  -16.7780   21.8796 C.ar    1  UNL1        0.0020
@<TRIPOS>BOND
     1    23    22    1
     2    23    24    1
     3    24    25    1
     4    25    26    1
     5    26    27    2
     6    27    31    1
     7    31    32   ar
     8    32    33   ar
     9    33    34   ar
    10    34    35    1
    11    34    36   ar
    12    36    37   ar
    13    27    28    1
    14    28    21    1
    15    21     1    1
    16     1     3    1
    17     3     4   ar
    18     4     5   ar
    19     5     6    1
    20     5     7   ar
    21     7    11    1
    22    11    12    2
    23    11    13    2
    24    11    14    1
    25    14    16    1
    26    16    17   ar
    27    17    18   ar
    28    18    19   ar
    29    19    20   ar
    30     7     8   ar
    31     8     9   ar
    32     9    10    1
    33    28    23    1
    34     9     3   ar
    35    37    31   ar
    36    20    16   ar
    37    22    29    1
    38    22    30    1
    39     1     2    1
    40    14    15    1
@<TRIPOS>MOLECULE
*****
 37 40 0 0 0
SMALL
GASTEIGER

@<TRIPOS>ATOM
      1 N           5.3303    0.5640   19.2357 N.pl3   1  UNL1       -0.3316
      2 H           5.9527    0.9868   18.6008 H       1  UNL1        0.1468
      3 C           3.9341    1.0923   19.3816 C.ar    1  UNL1        0.0577
      4 C           3.6212    2.1006   20.4472 C.ar    1  UNL1        0.0462
      5 C           2.2248    2.6289   20.5930 C.ar    1  UNL1        0.1602
      6 F           1.9119    3.6371   21.6586 F       1  UNL1       -0.2027
      7 C           1.1415    2.1489   19.6733 C.ar    1  UNL1        0.1534
      8 C           1.4544    1.1407   18.6077 C.ar    1  UNL1        0.0351
      9 C           2.8506    0.6124   18.4618 C.ar    1  UNL1        0.0722
     10 CL          3.1635   -0.3959   17.3962 Cl      1  UNL1       -0.0809
     11 S          -0.2548    2.6772   19.8192 S.O2    1  UNL1        0.0769
     12 O          -0.6697    1.3974   20.4824 O.2     1  UNL1       -0.1498
     13 O           0.1601    3.9570   19.1559 O.2     1  UNL1       -0.1498
     14 N          -1.6511    3.2055   19.9651 N.pl3   1  UNL1       -0.1984
     15 H          -2.1928    3.3926   19.1646 H       1  UNL1        0.1753
     16 C          -2.2221    3.4486   21.3307 C.ar    1  UNL1        0.1542
     17 C          -1.4724    3.9732   22.5192 C.ar    1  UNL1        0.0725
     18 S          -2.4300    4.0587   23.6706 S.2     1  UNL1       -0.0625
     19 C          -3.7716    3.5869   23.1937 C.ar    1  UNL1        0.1360
     20 N          -3.6432    3.2098   21.7475 N.ar    1  UNL1       -0.2203
     21 C           5.7783   -0.6084   20.0571 C.3     1  UNL1        0.0927
     22 N           6.5361   -2.0398   17.5319 N.3     1  UNL1       -0.3219
     23 C           5.6071   -2.6909   18.5132 C.3     1  UNL1        0.0568
     24 C           5.0570   -4.0577   18.2319 C.3     1  UNL1        0.0205
     25 C           4.1280   -4.7089   19.2131 C.3     1  UNL1        0.0271
     26 C           3.7490   -3.9932   20.4757 C.2     1  UNL1       -0.0303
     27 C           4.2991   -2.6264   20.7570 C.2     1  UNL1       -0.0238
     28 C           5.2282   -1.9753   19.7758 C.3     1  UNL1        0.0557
     29 H           6.6833   -2.6630   16.7380 H       1  UNL1        0.1188
     30 H           7.4299   -1.8492   17.9848 H       1  UNL1        0.1188
     31 C           3.9202   -1.9107   22.0197 C.ar    1  UNL1       -0.0040
     32 C           4.6609   -2.1931   23.2931 C.ar    1  UNL1        0.0020
     33 C           4.2820   -1.4773   24.5557 C.ar    1  UNL1        0.0296
     34 C           3.1624   -0.4792   24.5449 C.ar    1  UNL1        0.1401
     35 F           2.7834    0.2366   25.8074 F       1  UNL1       -0.2042
     36 C           2.4217   -0.1968   23.2714 C.ar    1  UNL1        0.0296
     37 C           2.8006   -0.9125   22.0089 C.ar    1  UNL1        0.0020
@<TRIPOS>BOND
     1    23    22    1
     2    23    24    1
     3    24    25    1
     4    25    26    1
     5    26    27    2
     6    27    31    1
     7    31    32   ar
     8    32    33   ar
     9    33    34   ar
    10    34    35    1
    11    34    36   ar
    12    36    37   ar
    13    27    28    1
    14    28    21    1
    15    21     1    1
    16     1     3    1
    17     3     4   ar
    18     4     5   ar
    19     5     6    1
    20     5     7   ar
    21     7    11    1
    22    11    12    2
    23    11    13    2
    24    11    14    1
    25    14    16    1
    26    16    17   ar
    27    17    18   ar
    28    18    19   ar
    29    19    20   ar
    30     7     8   ar
    31     8     9   ar
    32     9    10    1
    33    28    23    1
    34     9     3   ar
    35    37    31   ar
    36    20    16   ar
    37    22    29    1
    38    22    30    1
    39     1     2    1
    40    14    15    1
@<TRIPOS>MOLECULE
*****
 37 40 0 0 0
SMALL
GASTEIGER

@<TRIPOS>ATOM
      1 N           5.7603    0.2144   19.7150 N.pl3   1  UNL1       -0.3316
      2 H           6.4101    0.7403   19.1949 H       1  UNL1        0.1468
      3 C           4.3472    0.6969   19.8572 C.ar    1  UNL1        0.0577
      4 C           3.3336    0.3713   18.8004 C.ar    1  UNL1        0.0462
      5 C           1.9205    0.8539   18.9427 C.ar    1  UNL1        0.1602
      6 F           0.9069    0.5283   17.8859 F       1  UNL1       -0.2027
      7 C           1.5209    1.6619   20.1415 C.ar    1  UNL1        0.1534
      8 C           2.5345    1.9875   21.1983 C.ar    1  UNL1        0.0351
      9 C           3.9476    1.5050   21.0561 C.ar    1  UNL1        0.0722
     10 CL          4.9612    1.8305   22.1128 Cl      1  UNL1       -0.0809
     11 S           0.1078    2.1444   20.2837 S.O2    1  UNL1        0.0769
     12 O           0.5061    3.4766   19.7211 O.2     1  UNL1       -0.1498
     13 O          -0.2905    0.8122   20.8463 O.2     1  UNL1       -0.1498
     14 N          -1.3054    2.6270   20.4258 N.pl3   1  UNL1       -0.1984
     15 H          -1.9318    2.5450   19.6708 H       1  UNL1        0.1753
     16 C          -1.7640    3.2346   21.7183 C.ar    1  UNL1        0.1542
     17 C          -3.1697    3.6359   22.0541 C.ar    1  UNL1        0.0725
     18 S          -3.1719    4.1969   23.4453 S.2     1  UNL1       -0.0625
     19 C          -1.7675    4.1423   23.9693 C.ar    1  UNL1        0.1360
     20 N          -0.8972    3.5475   22.9020 N.ar    1  UNL1       -0.2203
     21 C           6.1835   -1.0694   20.3652 C.3     1  UNL1        0.0927
     22 N           6.4923   -2.3104   17.6515 N.3     1  UNL1       -0.3219
     23 C           5.6225   -2.9673   18.6820 C.3     1  UNL1        0.0568
     24 C           4.9071   -4.2447   18.3557 C.3     1  UNL1        0.0205
     25 C           4.0374   -4.9016   19.3862 C.3     1  UNL1        0.0271
     26 C           3.8830   -4.2811   20.7431 C.2     1  UNL1       -0.0303
     27 C           4.5983   -3.0037   21.0694 C.2     1  UNL1       -0.0238
     28 C           5.4681   -2.3469   20.0389 C.3     1  UNL1        0.0557
     29 H           6.4818   -2.8641   16.7948 H       1  UNL1        0.1188
     30 H           7.4475   -2.2467   18.0034 H       1  UNL1        0.1188
     31 C           4.4440   -2.3832   22.4263 C.ar    1  UNL1       -0.0040
     32 C           3.3360   -1.4049   22.6820 C.ar    1  UNL1        0.0020
     33 C           3.1817   -0.7844   24.0389 C.ar    1  UNL1        0.0296
     34 C           4.1353   -1.1421   25.1401 C.ar    1  UNL1        0.1401
     35 F           3.9810   -0.5217   26.4970 F       1  UNL1       -0.2042
     36 C           5.2433   -2.1205   24.8844 C.ar    1  UNL1        0.0296
     37 C           5.3976   -2.7409   23.5275 C.ar    1  UNL1        0.0020
@<TRIPOS>BOND
     1    23    22    1
     2    23    24    1
     3    24    25    1
     4    25    26    1
     5    26    27    2
     6    27    31    1
     7    31    32   ar
     8    32    33   ar
     9    33    34   ar
    10    34    35    1
    11    34    36   ar
    12    36    37   ar
    13    27    28    1
    14    28    21    1
    15    21     1    1
    16     1     3    1
    17     3     4   ar
    18     4     5   ar
    19     5     6    1
    20     5     7   ar
    21     7    11    1
    22    11    12    2
    23    11    13    2
    24    11    14    1
    25    14    16    1
    26    16    17   ar
    27    17    18   ar
    28    18    19   ar
    29    19    20   ar
    30     7     8   ar
    31     8     9   ar
    32     9    10    1
    33    28    23    1
    34     9     3   ar
    35    37    31   ar
    36    20    16   ar
    37    22    29    1
    38    22    30    1
    39     1     2    1
    40    14    15    1
@<TRIPOS>MOLECULE
*****
 37 40 0 0 0
SMALL
GASTEIGER

@<TRIPOS>ATOM
      1 N           5.6270    1.3342   20.6649 N.pl3   1  UNL1       -0.3316
      2 H           5.5891    2.0963   21.2869 H       1  UNL1        0.1468
      3 C           6.1501    0.0088   21.1336 C.ar    1  UNL1        0.0577
      4 C           7.0272   -0.8116   20.2350 C.ar    1  UNL1        0.0462
      5 C           7.5503   -2.1370   20.7038 C.ar    1  UNL1        0.1602
      6 F           8.4275   -2.9575   19.8052 F       1  UNL1       -0.2027
      7 C           7.1963   -2.6419   22.0711 C.ar    1  UNL1        0.1534
      8 C           6.3192   -1.8215   22.9698 C.ar    1  UNL1        0.0351
      9 C           5.7961   -0.4962   22.5010 C.ar    1  UNL1        0.0722
     10 CL          4.9189    0.3243   23.3996 Cl      1  UNL1       -0.0809
     11 S           7.7194   -3.9673   22.5399 S.O2    1  UNL1        0.0769
     12 O           6.4417   -4.6241   22.1086 O.2     1  UNL1       -0.1498
     13 O           8.9971   -3.3105   22.9712 O.2     1  UNL1       -0.1498
     14 N           8.2425   -5.2927   23.0086 N.pl3   1  UNL1       -0.1984
     15 H           8.8763   -5.7975   22.4493 H       1  UNL1        0.1753
     16 C           7.8000   -5.8490   24.3295 C.ar    1  UNL1        0.1542
     17 C           8.0169   -7.2525   24.8124 C.ar    1  UNL1        0.0725
     18 S           7.4139   -7.3704   26.1807 S.2     1  UNL1       -0.0625
     19 C           6.8242   -6.0397   26.5436 C.ar    1  UNL1        0.1360
     20 N           7.0628   -5.0994   25.3995 N.ar    1  UNL1       -0.2203
     21 C           5.1616    1.4984   19.2484 C.3     1  UNL1        0.0927
     22 N           3.9440    4.2295   19.0064 N.3     1  UNL1       -0.3219
     23 C           3.0896    3.0092   18.8308 C.3     1  UNL1        0.0568
     24 C           1.6264    3.1544   18.5341 C.3     1  UNL1        0.0205
     25 C           0.7720    1.9341   18.3586 C.3     1  UNL1        0.0271
     26 C           1.3808    0.5686   18.4796 C.2     1  UNL1       -0.0303
     27 C           2.8439    0.4233   18.7762 C.2     1  UNL1       -0.0238
     28 C           3.6983    1.6436   18.9518 C.3     1  UNL1        0.0557
     29 H           3.3707    5.0653   18.8916 H       1  UNL1        0.1188
     30 H           4.6867    4.2280   18.3073 H       1  UNL1        0.1188
     31 C           3.4527   -0.9423   18.8972 C.ar    1  UNL1       -0.0040
     32 C           4.3438   -1.4652   17.8098 C.ar    1  UNL1        0.0020
     33 C           4.9526   -2.8308   17.9308 C.ar    1  UNL1        0.0296
     34 C           4.6703   -3.6734   19.1393 C.ar    1  UNL1        0.1401
     35 F           5.2791   -5.0389   19.2604 F       1  UNL1       -0.2042
     36 C           3.7793   -3.1503   20.2267 C.ar    1  UNL1        0.0296
     37 C           3.1705   -1.7848   20.1057 C.ar    1  UNL1        0.0020
@<TRIPOS>BOND
     1    23    22    1
     2    23    24    1
     3    24    25    1
     4    25    26    1
     5    26    27    2
     6    27    31    1
     7    31    32   ar
     8    32    33   ar
     9    33    34   ar
    10    34    35    1
    11    34    36   ar
    12    36    37   ar
    13    27    28    1
    14    28    21    1
    15    21     1    1
    16     1     3    1
    17     3     4   ar
    18     4     5   ar
    19     5     6    1
    20     5     7   ar
    21     7    11    1
    22    11    12    2
    23    11    13    2
    24    11    14    1
    25    14    16    1
    26    16    17   ar
    27    17    18   ar
    28    18    19   ar
    29    19    20   ar
    30     7     8   ar
    31     8     9   ar
    32     9    10    1
    33    28    23    1
    34     9     3   ar
    35    37    31   ar
    36    20    16   ar
    37    22    29    1
    38    22    30    1
    39     1     2    1
    40    14    15    1
@<TRIPOS>MOLECULE
*****
 37 40 0 0 0
SMALL
GASTEIGER

@<TRIPOS>ATOM
      1 N           5.8808    0.3504   20.9516 N.pl3   1  UNL1       -0.3316
      2 H           6.8299    0.4756   21.1813 H       1  UNL1        0.1468
      3 C           4.8149    0.7183   21.9407 C.ar    1  UNL1        0.0577
      4 C           4.5359   -0.1779   23.1107 C.ar    1  UNL1        0.0462
      5 C           3.4699    0.1901   24.0999 C.ar    1  UNL1        0.1602
      6 F           3.1909   -0.7061   25.2699 F       1  UNL1       -0.2027
      7 C           2.6830    1.4542   23.9190 C.ar    1  UNL1        0.1534
      8 C           2.9620    2.3504   22.7490 C.ar    1  UNL1        0.0351
      9 C           4.0279    1.9825   21.7598 C.ar    1  UNL1        0.0722
     10 CL          4.3069    2.8787   20.5898 Cl      1  UNL1       -0.0809
     11 S           1.6171    1.8221   24.9082 S.O2    1  UNL1        0.0769
     12 O           0.6577    0.8985   24.2179 O.2     1  UNL1       -0.1498
     13 O           2.5765    2.7457   25.5984 O.2     1  UNL1       -0.1498
     14 N           0.5511    2.1900   25.8973 N.pl3   1  UNL1       -0.1984
     15 H           0.0112    3.0017   25.7600 H       1  UNL1        0.1753
     16 C           0.3078    1.3212   27.0956 C.ar    1  UNL1        0.1542
     17 C          -1.0147    1.0934   27.7657 C.ar    1  UNL1        0.0725
     18 S          -0.7955    0.1590   28.9184 S.2     1  UNL1       -0.0625
     19 C           0.6625   -0.1908   28.9608 C.ar    1  UNL1        0.1360
     20 N           1.3445    0.5275   27.8343 N.ar    1  UNL1       -0.2203
     21 C           5.5007   -0.2083   19.6124 C.3     1  UNL1        0.0927
     22 N           7.5392   -2.4067   19.5036 N.3     1  UNL1       -0.3219
     23 C           6.0771   -2.7357   19.4395 C.3     1  UNL1        0.0568
     24 C           5.6343   -4.1639   19.3210 C.3     1  UNL1        0.0205
     25 C           4.1723   -4.4930   19.2569 C.3     1  UNL1        0.0271
     26 C           3.1530   -3.3939   19.3113 C.2     1  UNL1       -0.0303
     27 C           3.5958   -1.9657   19.4298 C.2     1  UNL1       -0.0238
     28 C           5.0579   -1.6366   19.4939 C.3     1  UNL1        0.0557
     29 H           8.0839   -3.2676   19.4541 H       1  UNL1        0.1188
     30 H           7.7414   -1.9262   20.3803 H       1  UNL1        0.1188
     31 C           2.5766   -0.8665   19.4842 C.ar    1  UNL1       -0.0040
     32 C           2.4818    0.1247   18.3624 C.ar    1  UNL1        0.0020
     33 C           1.4625    1.2239   18.4168 C.ar    1  UNL1        0.0296
     34 C           0.5381    1.3319   19.5931 C.ar    1  UNL1        0.1401
     35 F          -0.4811    2.4311   19.6475 F       1  UNL1       -0.2042
     36 C           0.6329    0.3407   20.7150 C.ar    1  UNL1        0.0296
     37 C           1.6521   -0.7584   20.6606 C.ar    1  UNL1        0.0020
@<TRIPOS>BOND
     1    23    22    1
     2    23    24    1
     3    24    25    1
     4    25    26    1
     5    26    27    2
     6    27    31    1
     7    31    32   ar
     8    32    33   ar
     9    33    34   ar
    10    34    35    1
    11    34    36   ar
    12    36    37   ar
    13    27    28    1
    14    28    21    1
    15    21     1    1
    16     1     3    1
    17     3     4   ar
    18     4     5   ar
    19     5     6    1
    20     5     7   ar
    21     7    11    1
    22    11    12    2
    23    11    13    2
    24    11    14    1
    25    14    16    1
    26    16    17   ar
    27    17    18   ar
    28    18    19   ar
    29    19    20   ar
    30     7     8   ar
    31     8     9   ar
    32     9    10    1
    33    28    23    1
    34     9     3   ar
    35    37    31   ar
    36    20    16   ar
    37    22    29    1
    38    22    30    1
    39     1     2    1
    40    14    15    1
@<TRIPOS>MOLECULE
*****
 37 40 0 0 0
SMALL
GASTEIGER

@<TRIPOS>ATOM
      1 N           5.9630    0.0845   21.1189 N.pl3   1  UNL1       -0.3316
      2 H           6.9161    0.1123   21.3642 H       1  UNL1        0.1468
      3 C           4.9214    0.5202   22.1063 C.ar    1  UNL1        0.0577
      4 C           4.2726    1.8655   21.9676 C.ar    1  UNL1        0.0462
      5 C           3.2309    2.3012   22.9552 C.ar    1  UNL1        0.1602
      6 F           2.5822    3.6465   22.8165 F       1  UNL1       -0.2027
      7 C           2.8381    1.3916   24.0813 C.ar    1  UNL1        0.1534
      8 C           3.4869    0.0463   24.2200 C.ar    1  UNL1        0.0351
      9 C           4.5285   -0.3894   23.2326 C.ar    1  UNL1        0.0722
     10 CL          5.1773   -1.7347   23.3713 Cl      1  UNL1       -0.0809
     11 S           1.7965    1.8273   25.0688 S.O2    1  UNL1        0.0769
     12 O           2.8117    2.6888   25.7596 O.2     1  UNL1       -0.1498
     13 O           0.7813    0.9659   24.3780 O.2     1  UNL1       -0.1498
     14 N           0.7549    2.2631   26.0563 N.pl3   1  UNL1       -0.1984
     15 H           0.3169    3.1391   25.9556 H       1  UNL1        0.1753
     16 C           0.3805    1.3642   27.1973 C.ar    1  UNL1        0.1542
     17 C          -1.0060    1.1371   27.7226 C.ar    1  UNL1        0.0725
     18 S          -0.9165    0.1671   28.8633 S.2     1  UNL1       -0.0625
     19 C           0.5254   -0.2052   29.0431 C.ar    1  UNL1        0.1360
     20 N           1.3271    0.5347   28.0135 N.ar    1  UNL1       -0.2203
     21 C           5.5526   -0.3936   19.7576 C.3     1  UNL1        0.0927
     22 N           7.5342   -2.6420   19.6239 N.3     1  UNL1       -0.3219
     23 C           6.0666   -2.9276   19.5032 C.3     1  UNL1        0.0568
     24 C           5.5899   -4.3373   19.3156 C.3     1  UNL1        0.0205
     25 C           4.1222   -4.6229   19.1949 C.3     1  UNL1        0.0271
     26 C           3.1314   -3.4988   19.2618 C.2     1  UNL1       -0.0303
     27 C           3.6082   -2.0890   19.4493 C.2     1  UNL1       -0.0238
     28 C           5.0758   -1.8034   19.5700 C.3     1  UNL1        0.0557
     29 H           8.0572   -3.5152   19.5571 H       1  UNL1        0.1188
     30 H           7.7219   -2.2013   20.5245 H       1  UNL1        0.1188
     31 C           2.6174   -0.9648   19.5162 C.ar    1  UNL1       -0.0040
     32 C           2.4537   -0.0388   18.3475 C.ar    1  UNL1        0.0020
     33 C           1.4629    1.0854   18.4144 C.ar    1  UNL1        0.0296
     34 C           0.6358    1.2836   19.6499 C.ar    1  UNL1        0.1401
     35 F          -0.3550    2.4078   19.7168 F       1  UNL1       -0.2042
     36 C           0.7995    0.3576   20.8186 C.ar    1  UNL1        0.0296
     37 C           1.7903   -0.7666   20.7517 C.ar    1  UNL1        0.0020
@<TRIPOS>BOND
     1    23    22    1
     2    23    24    1
     3    24    25    1
     4    25    26    1
     5    26    27    2
     6    27    31    1
     7    31    32   ar
     8    32    33   ar
     9    33    34   ar
    10    34    35    1
    11    34    36   ar
    12    36    37   ar
    13    27    28    1
    14    28    21    1
    15    21     1    1
    16     1     3    1
    17     3     4   ar
    18     4     5   ar
    19     5     6    1
    20     5     7   ar
    21     7    11    1
    22    11    12    2
    23    11    13    2
    24    11    14    1
    25    14    16    1
    26    16    17   ar
    27    17    18   ar
    28    18    19   ar
    29    19    20   ar
    30     7     8   ar
    31     8     9   ar
    32     9    10    1
    33    28    23    1
    34     9     3   ar
    35    37    31   ar
    36    20    16   ar
    37    22    29    1
    38    22    30    1
    39     1     2    1
    40    14    15    1
@<TRIPOS>MOLECULE
*****
 37 40 0 0 0
SMALL
GASTEIGER

@<TRIPOS>ATOM
      1 N           4.1361   -1.0838   23.4898 N.pl3   1  UNL1       -0.3316
      2 H           4.6096   -1.7644   24.0206 H       1  UNL1        0.1468
      3 C           3.1147   -0.2004   24.1428 C.ar    1  UNL1        0.0577
      4 C           2.0435    0.4461   23.3155 C.ar    1  UNL1        0.0462
      5 C           1.0221    1.3295   23.9685 C.ar    1  UNL1        0.1602
      6 F          -0.0491    1.9761   23.1412 F       1  UNL1       -0.2027
      7 C           1.0719    1.5663   25.4488 C.ar    1  UNL1        0.1534
      8 C           2.1431    0.9198   26.2762 C.ar    1  UNL1        0.0351
      9 C           3.1645    0.0364   25.6232 C.ar    1  UNL1        0.0722
     10 CL          4.2357   -0.6101   26.4505 Cl      1  UNL1       -0.0809
     11 S           0.0506    2.4497   26.1018 S.O2    1  UNL1        0.0769
     12 O           0.7833    3.6618   25.6081 O.2     1  UNL1       -0.1498
     13 O          -0.6822    1.2376   26.5955 O.2     1  UNL1       -0.1498
     14 N          -0.9709    3.3331   26.7548 N.pl3   1  UNL1       -0.1984
     15 H          -0.7612    3.7828   27.6052 H       1  UNL1        0.1753
     16 C          -2.3116    3.5314   26.1121 C.ar    1  UNL1        0.1542
     17 C          -2.6003    3.4812   24.6411 C.ar    1  UNL1        0.0725
     18 S          -4.0662    3.7335   24.4474 S.2     1  UNL1       -0.0625
     19 C          -4.6835    3.9397   25.7989 C.ar    1  UNL1        0.1360
     20 N          -3.5992    3.8148   26.8278 N.ar    1  UNL1       -0.2203
     21 C           4.4360   -0.9301   22.0282 C.3     1  UNL1        0.0927
     22 N           6.1354   -3.3434   22.5649 N.3     1  UNL1       -0.3219
     23 C           5.2082   -3.3262   21.3859 C.3     1  UNL1        0.0568
     24 C           5.1307   -4.5155   20.4752 C.3     1  UNL1        0.0205
     25 C           4.2035   -4.4983   19.2962 C.3     1  UNL1        0.0271
     26 C           3.3538   -3.2917   19.0279 C.2     1  UNL1       -0.0303
     27 C           3.4314   -2.1023   19.9385 C.2     1  UNL1       -0.0238
     28 C           4.3585   -2.1195   21.1175 C.3     1  UNL1        0.0557
     29 H           6.6314   -4.2342   22.5943 H       1  UNL1        0.1188
     30 H           5.5966   -3.2257   23.4229 H       1  UNL1        0.1188
     31 C           2.5817   -0.8956   19.6702 C.ar    1  UNL1       -0.0040
     32 C           1.2127   -0.7928   20.2745 C.ar    1  UNL1        0.0020
     33 C           0.3630    0.4139   20.0062 C.ar    1  UNL1        0.0296
     34 C           0.8824    1.5178   19.1335 C.ar    1  UNL1        0.1401
     35 F           0.0327    2.7245   18.8652 F       1  UNL1       -0.2042
     36 C           2.2514    1.4150   18.5291 C.ar    1  UNL1        0.0296
     37 C           3.1010    0.2084   18.7975 C.ar    1  UNL1        0.0020
@<TRIPOS>BOND
     1    23    22    1
     2    23    24    1
     3    24    25    1
     4    25    26    1
     5    26    27    2
     6    27    31    1
     7    31    32   ar
     8    32    33   ar
     9    33    34   ar
    10    34    35    1
    11    34    36   ar
    12    36    37   ar
    13    27    28    1
    14    28    21    1
    15    21     1    1
    16     1     3    1
    17     3     4   ar
    18     4     5   ar
    19     5     6    1
    20     5     7   ar
    21     7    11    1
    22    11    12    2
    23    11    13    2
    24    11    14    1
    25    14    16    1
    26    16    17   ar
    27    17    18   ar
    28    18    19   ar
    29    19    20   ar
    30     7     8   ar
    31     8     9   ar
    32     9    10    1
    33    28    23    1
    34     9     3   ar
    35    37    31   ar
    36    20    16   ar
    37    22    29    1
    38    22    30    1
    39     1     2    1
    40    14    15    1
