@<TRIPOS>MOLECULE
*****
 35 38 0 0 0
SMALL
GASTEIGER

@<TRIPOS>ATOM
      1 C           6.5586   -3.4685   20.3954 C.ar    1  UNL1        0.0126
      2 C           6.3492   -4.0269   21.7717 C.ar    1  UNL1       -0.0034
      3 C           7.4731   -4.0146   22.7650 C.ar    1  UNL1        0.0068
      4 C           8.8064   -3.4439   22.3820 C.ar    1  UNL1       -0.0010
      5 C           9.0158   -2.8855   21.0057 C.ar    1  UNL1        0.0109
      6 C           7.8919   -2.8977   20.0123 C.ar    1  UNL1        0.0555
      7 CL          8.1012   -2.3393   18.6360 Cl      1  UNL1       -0.0825
      8 C           7.2638   -4.5730   24.1413 C.3     1  UNL1        0.1667
      9 O           7.6860   -5.9783   24.4528 O.3     1  UNL1       -0.3466
     10 C           7.4766   -6.5367   25.8291 C.3     1  UNL1        0.1739
     11 C           6.8451   -5.6899   26.8940 C.3     1  UNL1        0.1692
     12 O           6.6357   -6.2483   28.2704 O.3     1  UNL1       -0.3794
     13 C           6.4228   -4.2847   26.5826 C.3     1  UNL1        0.1692
     14 O           5.7913   -3.4379   27.6475 O.3     1  UNL1       -0.3794
     15 C           6.6322   -3.7262   25.2063 C.3     1  UNL1        0.1709
     16 O           6.2100   -2.3210   24.8948 O.3     1  UNL1       -0.3792
     17 H           6.2196   -5.5759   28.8323 H       1  UNL1        0.2105
     18 H           5.5802   -2.5641   27.2830 H       1  UNL1        0.2105
     19 H           5.8230   -1.9166   25.6870 H       1  UNL1        0.2106
     20 C           7.8988   -7.9420   26.1406 C.3     1  UNL1        0.1692
     21 O           6.9398   -8.8829   26.8076 O.3     1  UNL1       -0.3794
     22 H           6.7493   -8.5679   27.7051 H       1  UNL1        0.2105
     23 C           5.4347   -3.4807   19.4020 C.3     1  UNL1        0.1595
     24 C          -0.2397    1.7083   20.9830 C.3     1  UNL1        0.0321
     25 C           0.8259    0.9522   20.2462 C.ar    1  UNL1       -0.0067
     26 C           1.5627   -0.1621   20.9284 C.ar    1  UNL1        0.0359
     27 C           2.6283   -0.9182   20.1916 C.ar    1  UNL1        0.1706
     28 N           3.5164   -2.0559   20.6001 N.ar    1  UNL1       -0.1471
     29 N           4.3940   -2.4008   19.4336 N.ar    1  UNL1       -0.1960
     30 C           4.0482   -1.4763   18.3041 C.ar    1  UNL1        0.3526
     31 O           4.6824   -1.4694   16.9448 O.2     1  UNL1       -0.2444
     32 N           2.9570   -0.5600   18.7725 N.ar    1  UNL1       -0.2400
     33 C           2.2201    0.5543   18.0904 C.ar    1  UNL1        0.0969
     34 C           1.1546    1.3104   18.8272 C.ar    1  UNL1        0.0715
     35 CL          0.4177    2.4247   18.1449 Cl      1  UNL1       -0.0810
@<TRIPOS>BOND
     1    24    25    1
     2    25    26   ar
     3    26    27   ar
     4    27    28   ar
     5    28    29   ar
     6    29    23    1
     7    23     1    1
     8     1     2   ar
     9     2     3   ar
    10     8     3    1
    11     8     9    1
    12     9    10    1
    13    10    20    1
    14    20    21    1
    15    10    11    1
    16    11    12    1
    17    11    13    1
    18    13    14    1
    19    13    15    1
    20    15    16    1
    21     3     4   ar
    22     4     5   ar
    23     5     6   ar
    24     6     7    1
    25    29    30   ar
    26    30    31    2
    27    30    32   ar
    28    32    33   ar
    29    33    34   ar
    30    34    35    1
    31    34    25   ar
    32    32    27   ar
    33     6     1   ar
    34    15     8    1
    35    21    22    1
    36    12    17    1
    37    14    18    1
    38    16    19    1
@<TRIPOS>MOLECULE
*****
 35 38 0 0 0
SMALL
GASTEIGER

@<TRIPOS>ATOM
      1 C           6.7055   -3.5600   20.5225 C.ar    1  UNL1        0.0126
      2 C           6.5265   -4.1821   21.8756 C.ar    1  UNL1       -0.0034
      3 C           7.6443   -4.1383   22.8750 C.ar    1  UNL1        0.0068
      4 C           8.9410   -3.4725   22.5213 C.ar    1  UNL1       -0.0010
      5 C           9.1200   -2.8504   21.1681 C.ar    1  UNL1        0.0109
      6 C           8.0023   -2.8942   20.1687 C.ar    1  UNL1        0.0555
      7 CL          8.1813   -2.2722   18.8156 Cl      1  UNL1       -0.0825
      8 C           7.4653   -4.7603   24.2281 C.3     1  UNL1        0.1667
      9 O           6.9856   -3.9267   25.3793 O.3     1  UNL1       -0.3466
     10 C           6.8066   -4.5487   26.7324 C.3     1  UNL1        0.1739
     11 C           7.1072   -6.0043   26.9345 C.3     1  UNL1        0.1692
     12 O           6.9282   -6.6264   28.2876 O.3     1  UNL1       -0.3794
     13 C           7.5869   -6.8379   25.7834 C.3     1  UNL1        0.1692
     14 O           7.8876   -8.2935   25.9855 O.3     1  UNL1       -0.3794
     15 C           7.7659   -6.2159   24.4302 C.3     1  UNL1        0.1709
     16 O           8.2456   -7.0495   23.2791 O.3     1  UNL1       -0.3792
     17 H           7.1643   -7.5662   28.2452 H       1  UNL1        0.2105
     18 H           8.1842   -8.6818   25.1475 H       1  UNL1        0.2105
     19 H           8.3918   -7.9605   23.5784 H       1  UNL1        0.2106
     20 C           6.3269   -3.7152   27.8835 C.3     1  UNL1        0.1692
     21 O           6.8189   -3.9994   29.2717 O.3     1  UNL1       -0.3794
     22 H           6.4982   -4.8694   29.5566 H       1  UNL1        0.2105
     23 C           5.5878   -3.6038   19.5231 C.3     1  UNL1        0.1595
     24 C          -0.1651    1.5453   20.9424 C.3     1  UNL1        0.0321
     25 C           0.9242    0.7949   20.2352 C.ar    1  UNL1       -0.0067
     26 C           1.6530   -0.3106   20.9399 C.ar    1  UNL1        0.0359
     27 C           2.7424   -1.0609   20.2327 C.ar    1  UNL1        0.1706
     28 N           3.6293   -2.1898   20.6677 N.ar    1  UNL1       -0.1471
     29 N           4.5381   -2.5323   19.5246 N.ar    1  UNL1       -0.1960
     30 C           4.2128   -1.6151   18.3830 C.ar    1  UNL1        0.3526
     31 O           4.8801   -1.6085   17.0397 O.2     1  UNL1       -0.2444
     32 N           3.1030   -0.7058   18.8207 N.ar    1  UNL1       -0.2400
     33 C           2.3742    0.3997   18.1159 C.ar    1  UNL1        0.0969
     34 C           1.2849    1.1500   18.8232 C.ar    1  UNL1        0.0715
     35 CL          0.5561    2.2556   18.1183 Cl      1  UNL1       -0.0810
@<TRIPOS>BOND
     1    24    25    1
     2    25    26   ar
     3    26    27   ar
     4    27    28   ar
     5    28    29   ar
     6    29    23    1
     7    23     1    1
     8     1     2   ar
     9     2     3   ar
    10     8     3    1
    11     8     9    1
    12     9    10    1
    13    10    20    1
    14    20    21    1
    15    10    11    1
    16    11    12    1
    17    11    13    1
    18    13    14    1
    19    13    15    1
    20    15    16    1
    21     3     4   ar
    22     4     5   ar
    23     5     6   ar
    24     6     7    1
    25    29    30   ar
    26    30    31    2
    27    30    32   ar
    28    32    33   ar
    29    33    34   ar
    30    34    35    1
    31    34    25   ar
    32    32    27   ar
    33     6     1   ar
    34    15     8    1
    35    21    22    1
    36    12    17    1
    37    14    18    1
    38    16    19    1
@<TRIPOS>MOLECULE
*****
 35 38 0 0 0
SMALL
GASTEIGER

@<TRIPOS>ATOM
      1 C           0.0024    3.2898   20.0228 C.ar    1  UNL1        0.0126
      2 C          -1.4618    3.3047   20.3480 C.ar    1  UNL1       -0.0034
      3 C          -1.9441    3.9652   21.6055 C.ar    1  UNL1        0.0068
      4 C          -0.9622    4.6107   22.5377 C.ar    1  UNL1       -0.0010
      5 C           0.5021    4.5958   22.2125 C.ar    1  UNL1        0.0109
      6 C           0.9844    3.9353   20.9551 C.ar    1  UNL1        0.0555
      7 CL          2.4486    3.9204   20.6299 Cl      1  UNL1       -0.0825
      8 C          -3.4083    3.9801   21.9307 C.3     1  UNL1        0.1667
      9 O          -4.4063    4.3649   20.8790 O.3     1  UNL1       -0.3466
     10 C          -5.8705    4.3799   21.2042 C.3     1  UNL1        0.1739
     11 C          -6.3368    4.0101   22.5811 C.3     1  UNL1        0.1692
     12 O          -7.8010    4.0250   22.9064 O.3     1  UNL1       -0.3794
     13 C          -5.3389    3.6253   23.6328 C.3     1  UNL1        0.1692
     14 O          -5.8052    3.2555   25.0097 O.3     1  UNL1       -0.3794
     15 C          -3.8746    3.6103   23.3076 C.3     1  UNL1        0.1709
     16 O          -2.8767    3.2255   24.3593 O.3     1  UNL1       -0.3792
     17 H          -7.9295    3.7626   23.8313 H       1  UNL1        0.2105
     18 H          -5.0390    3.0350   25.5622 H       1  UNL1        0.2105
     19 H          -3.3411    3.0177   25.1851 H       1  UNL1        0.2106
     20 C          -6.8684    4.7647   20.1526 C.3     1  UNL1        0.1692
     21 O          -8.0389    5.6317   20.5107 O.3     1  UNL1       -0.3794
     22 H          -8.6219    5.1523   21.1200 H       1  UNL1        0.2105
     23 C           0.4847    2.6293   18.7654 C.3     1  UNL1        0.1595
     24 C           6.3525   -2.5563   18.2153 C.3     1  UNL1        0.0321
     25 C           5.0579   -1.9171   18.6221 C.ar    1  UNL1       -0.0067
     26 C           4.6846   -0.5688   18.0812 C.ar    1  UNL1        0.0359
     27 C           3.3901    0.0705   18.4881 C.ar    1  UNL1        0.1706
     28 N           2.7590    1.3810   18.1215 N.ar    1  UNL1       -0.1471
     29 N           1.4477    1.4818   18.8428 N.ar    1  UNL1       -0.1960
     30 C           1.2684    0.2336   19.6551 C.ar    1  UNL1        0.3526
     31 O           0.0946   -0.0863   20.5326 O.2     1  UNL1       -0.2444
     32 N           2.4688   -0.6387   19.4359 N.ar    1  UNL1       -0.2400
     33 C           2.8421   -1.9870   19.9768 C.ar    1  UNL1        0.0969
     34 C           4.1367   -2.6262   19.5699 C.ar    1  UNL1        0.0715
     35 CL          4.5099   -3.9746   20.1109 Cl      1  UNL1       -0.0810
@<TRIPOS>BOND
     1    24    25    1
     2    25    26   ar
     3    26    27   ar
     4    27    28   ar
     5    28    29   ar
     6    29    23    1
     7    23     1    1
     8     1     2   ar
     9     2     3   ar
    10     8     3    1
    11     8     9    1
    12     9    10    1
    13    10    20    1
    14    20    21    1
    15    10    11    1
    16    11    12    1
    17    11    13    1
    18    13    14    1
    19    13    15    1
    20    15    16    1
    21     3     4   ar
    22     4     5   ar
    23     5     6   ar
    24     6     7    1
    25    29    30   ar
    26    30    31    2
    27    30    32   ar
    28    32    33   ar
    29    33    34   ar
    30    34    35    1
    31    34    25   ar
    32    32    27   ar
    33     6     1   ar
    34    15     8    1
    35    21    22    1
    36    12    17    1
    37    14    18    1
    38    16    19    1
@<TRIPOS>MOLECULE
*****
 35 38 0 0 0
SMALL
GASTEIGER

@<TRIPOS>ATOM
      1 C           8.3337   -5.2033   23.7371 C.ar    1  UNL1        0.0126
      2 C           7.9525   -4.5999   25.0564 C.ar    1  UNL1       -0.0034
      3 C           7.6756   -5.4861   26.2345 C.ar    1  UNL1        0.0068
      4 C           7.7799   -6.9758   26.0932 C.ar    1  UNL1       -0.0010
      5 C           8.1611   -7.5793   24.7739 C.ar    1  UNL1        0.0109
      6 C           8.4380   -6.6930   23.5958 C.ar    1  UNL1        0.0555
      7 CL          8.8191   -7.2964   22.2765 Cl      1  UNL1       -0.0825
      8 C           7.2944   -4.8827   27.5537 C.3     1  UNL1        0.1667
      9 O           7.5909   -5.6168   28.8279 O.3     1  UNL1       -0.3466
     10 C           7.2097   -5.0134   30.1472 C.3     1  UNL1        0.1739
     11 C           6.5321   -3.6760   30.1924 C.3     1  UNL1        0.1692
     12 O           6.1509   -3.0726   31.5117 O.3     1  UNL1       -0.3794
     13 C           6.2356   -2.9419   28.9184 C.3     1  UNL1        0.1692
     14 O           5.5580   -1.6044   28.9636 O.3     1  UNL1       -0.3794
     15 C           6.6168   -3.5453   27.5990 C.3     1  UNL1        0.1709
     16 O           6.3204   -2.8112   26.3250 O.3     1  UNL1       -0.3792
     17 H           5.7259   -2.2133   31.3635 H       1  UNL1        0.2105
     18 H           5.4418   -1.2702   28.0605 H       1  UNL1        0.2105
     19 H           5.8838   -1.9698   26.5307 H       1  UNL1        0.2106
     20 C           7.5061   -5.7475   31.4212 C.3     1  UNL1        0.1692
     21 O           6.4815   -5.7943   32.5157 O.3     1  UNL1       -0.3794
     22 H           6.3463   -4.9016   32.8704 H       1  UNL1        0.2105
     23 C           8.6106   -4.3170   22.5590 C.3     1  UNL1        0.1595
     24 C           1.9098   -1.0389   20.1142 C.3     1  UNL1        0.0321
     25 C           3.3315   -1.5167   20.1312 C.ar    1  UNL1       -0.0067
     26 C           3.8719   -2.2204   21.3406 C.ar    1  UNL1        0.0359
     27 C           5.2937   -2.6981   21.3575 C.ar    1  UNL1        0.1706
     28 N           6.0987   -3.4167   22.3995 N.ar    1  UNL1       -0.1471
     29 N           7.4777   -3.6349   21.8510 N.ar    1  UNL1       -0.1960
     30 C           7.5248   -3.0511   20.4700 C.ar    1  UNL1        0.3526
     31 O           8.7132   -3.0470   19.5546 O.2     1  UNL1       -0.2444
     32 N           6.1751   -2.4722   20.1651 N.ar    1  UNL1       -0.2400
     33 C           5.6347   -1.7685   18.9556 C.ar    1  UNL1        0.0969
     34 C           4.2129   -1.2908   18.9387 C.ar    1  UNL1        0.0715
     35 CL          3.6725   -0.5870   17.7292 Cl      1  UNL1       -0.0810
@<TRIPOS>BOND
     1    24    25    1
     2    25    26   ar
     3    26    27   ar
     4    27    28   ar
     5    28    29   ar
     6    29    23    1
     7    23     1    1
     8     1     2   ar
     9     2     3   ar
    10     8     3    1
    11     8     9    1
    12     9    10    1
    13    10    20    1
    14    20    21    1
    15    10    11    1
    16    11    12    1
    17    11    13    1
    18    13    14    1
    19    13    15    1
    20    15    16    1
    21     3     4   ar
    22     4     5   ar
    23     5     6   ar
    24     6     7    1
    25    29    30   ar
    26    30    31    2
    27    30    32   ar
    28    32    33   ar
    29    33    34   ar
    30    34    35    1
    31    34    25   ar
    32    32    27   ar
    33     6     1   ar
    34    15     8    1
    35    21    22    1
    36    12    17    1
    37    14    18    1
    38    16    19    1
@<TRIPOS>MOLECULE
*****
 35 38 0 0 0
SMALL
GASTEIGER

@<TRIPOS>ATOM
      1 C           0.8932    2.8516   18.7024 C.ar    1  UNL1        0.0126
      2 C           1.4601    1.5143   19.0770 C.ar    1  UNL1       -0.0034
      3 C           2.9348    1.2656   18.9608 C.ar    1  UNL1        0.0068
      4 C           3.8425    2.3541   18.4698 C.ar    1  UNL1       -0.0010
      5 C           3.2757    3.6914   18.0952 C.ar    1  UNL1        0.0109
      6 C           1.8010    3.9402   18.2114 C.ar    1  UNL1        0.0555
      7 CL          1.2341    5.2774   17.8368 Cl      1  UNL1       -0.0825
      8 C           3.5016   -0.0716   19.3354 C.3     1  UNL1        0.1667
      9 O           3.6211   -0.4575   20.7801 O.3     1  UNL1       -0.3466
     10 C           4.1880   -1.7948   21.1547 C.3     1  UNL1        0.1739
     11 C           4.6354   -2.7461   20.0848 C.3     1  UNL1        0.1692
     12 O           5.2023   -4.0834   20.4595 O.3     1  UNL1       -0.3794
     13 C           4.5160   -2.3603   18.6403 C.3     1  UNL1        0.1692
     14 O           4.9634   -3.3117   17.5704 O.3     1  UNL1       -0.3794
     15 C           3.9491   -1.0230   18.2655 C.3     1  UNL1        0.1709
     16 O           3.8296   -0.6371   16.8210 O.3     1  UNL1       -0.3792
     17 H           5.4400   -4.5707   19.6551 H       1  UNL1        0.2105
     18 H           4.8183   -2.9102   16.6993 H       1  UNL1        0.2105
     19 H           4.1609   -1.3596   16.2649 H       1  UNL1        0.2106
     20 C           4.3074   -2.1806   22.5993 C.3     1  UNL1        0.1692
     21 O           4.3677   -3.6286   22.9863 O.3     1  UNL1       -0.3794
     22 H           3.5232   -4.0556   22.7736 H       1  UNL1        0.2105
     23 C          -0.5814    3.1003   18.8187 C.3     1  UNL1        0.1595
     24 C          -2.5084    3.5520   26.4152 C.3     1  UNL1        0.0321
     25 C          -2.6311    3.5098   24.9208 C.ar    1  UNL1       -0.0067
     26 C          -1.4034    3.3652   24.0712 C.ar    1  UNL1        0.0359
     27 C          -1.5261    3.3230   22.5769 C.ar    1  UNL1        0.1706
     28 N          -0.5019    3.1888   21.4891 N.ar    1  UNL1       -0.1471
     29 N          -1.2194    3.2081   20.1720 N.ar    1  UNL1       -0.1960
     30 C          -2.6870    3.3543   20.4458 C.ar    1  UNL1        0.3526
     31 O          -3.7742    3.4182   19.4143 O.2     1  UNL1       -0.2444
     32 N          -2.8765    3.4252   21.9320 N.ar    1  UNL1       -0.2400
     33 C          -4.1042    3.5698   22.7816 C.ar    1  UNL1        0.0969
     34 C          -3.9815    3.6120   24.2760 C.ar    1  UNL1        0.0715
     35 CL         -5.2093    3.7566   25.1255 Cl      1  UNL1       -0.0810
@<TRIPOS>BOND
     1    24    25    1
     2    25    26   ar
     3    26    27   ar
     4    27    28   ar
     5    28    29   ar
     6    29    23    1
     7    23     1    1
     8     1     2   ar
     9     2     3   ar
    10     8     3    1
    11     8     9    1
    12     9    10    1
    13    10    20    1
    14    20    21    1
    15    10    11    1
    16    11    12    1
    17    11    13    1
    18    13    14    1
    19    13    15    1
    20    15    16    1
    21     3     4   ar
    22     4     5   ar
    23     5     6   ar
    24     6     7    1
    25    29    30   ar
    26    30    31    2
    27    30    32   ar
    28    32    33   ar
    29    33    34   ar
    30    34    35    1
    31    34    25   ar
    32    32    27   ar
    33     6     1   ar
    34    15     8    1
    35    21    22    1
    36    12    17    1
    37    14    18    1
    38    16    19    1
@<TRIPOS>MOLECULE
*****
 35 38 0 0 0
SMALL
GASTEIGER

@<TRIPOS>ATOM
      1 C           6.1456   -2.0289   25.3041 C.ar    1  UNL1        0.0126
      2 C           5.7733   -1.8308   23.8647 C.ar    1  UNL1       -0.0034
      3 C           5.9973   -2.9339   22.8733 C.ar    1  UNL1        0.0068
      4 C           6.5936   -4.2353   23.3214 C.ar    1  UNL1       -0.0010
      5 C           6.9659   -4.4335   24.7609 C.ar    1  UNL1        0.0109
      6 C           6.7419   -3.3303   25.7523 C.ar    1  UNL1        0.0555
      7 CL          7.1142   -3.5285   27.1917 Cl      1  UNL1       -0.0825
      8 C           5.6250   -2.7358   21.4338 C.3     1  UNL1        0.1667
      9 O           6.2479   -1.6227   20.6444 O.3     1  UNL1       -0.3466
     10 C           5.8756   -1.4245   19.2050 C.3     1  UNL1        0.1739
     11 C           4.8804   -2.3394   18.5548 C.3     1  UNL1        0.1692
     12 O           4.5081   -2.1412   17.1154 O.3     1  UNL1       -0.3794
     13 C           4.2576   -3.4524   19.3442 C.3     1  UNL1        0.1692
     14 O           3.2624   -4.3673   18.6940 O.3     1  UNL1       -0.3794
     15 C           4.6299   -3.6507   20.7837 C.3     1  UNL1        0.1709
     16 O           4.0070   -4.7637   21.5730 O.3     1  UNL1       -0.3792
     17 H           3.8584   -2.8123   16.8541 H       1  UNL1        0.2105
     18 H           2.9597   -5.0261   19.3385 H       1  UNL1        0.2105
     19 H           3.3914   -5.2559   21.0076 H       1  UNL1        0.2106
     20 C           6.4984   -0.3114   18.4156 C.3     1  UNL1        0.1692
     21 O           6.7976   -0.5017   16.9582 O.3     1  UNL1       -0.3794
     22 H           7.4850   -1.1783   16.8548 H       1  UNL1        0.2105
     23 C           5.9216   -0.9257   26.2955 C.3     1  UNL1        0.1595
     24 C          -1.2482    0.3914   29.2080 C.3     1  UNL1        0.0321
     25 C          -0.0397    0.4728   28.3232 C.ar    1  UNL1       -0.0067
     26 C           1.1694   -0.3614   28.6265 C.ar    1  UNL1        0.0359
     27 C           2.3780   -0.2800   27.7418 C.ar    1  UNL1        0.1706
     28 N           3.7057   -0.9764   27.7897 N.ar    1  UNL1       -0.1471
     29 N           4.5257   -0.4911   26.6312 N.ar    1  UNL1       -0.1960
     30 C           3.7047    0.5051   25.8673 C.ar    1  UNL1        0.3526
     31 O           4.1354    1.2416   24.6336 O.2     1  UNL1       -0.2444
     32 N           2.3773    0.6356   26.5537 N.ar    1  UNL1       -0.2400
     33 C           1.1682    1.4698   26.2503 C.ar    1  UNL1        0.0969
     34 C          -0.0403    1.3884   27.1351 C.ar    1  UNL1        0.0715
     35 CL         -1.2495    2.2227   26.8317 Cl      1  UNL1       -0.0810
@<TRIPOS>BOND
     1    24    25    1
     2    25    26   ar
     3    26    27   ar
     4    27    28   ar
     5    28    29   ar
     6    29    23    1
     7    23     1    1
     8     1     2   ar
     9     2     3   ar
    10     8     3    1
    11     8     9    1
    12     9    10    1
    13    10    20    1
    14    20    21    1
    15    10    11    1
    16    11    12    1
    17    11    13    1
    18    13    14    1
    19    13    15    1
    20    15    16    1
    21     3     4   ar
    22     4     5   ar
    23     5     6   ar
    24     6     7    1
    25    29    30   ar
    26    30    31    2
    27    30    32   ar
    28    32    33   ar
    29    33    34   ar
    30    34    35    1
    31    34    25   ar
    32    32    27   ar
    33     6     1   ar
    34    15     8    1
    35    21    22    1
    36    12    17    1
    37    14    18    1
    38    16    19    1
@<TRIPOS>MOLECULE
*****
 35 38 0 0 0
SMALL
GASTEIGER

@<TRIPOS>ATOM
      1 C           0.3926    2.2476   22.4417 C.ar    1  UNL1        0.0126
      2 C           0.6053    1.4669   23.7047 C.ar    1  UNL1       -0.0034
      3 C           0.7871    2.1853   25.0089 C.ar    1  UNL1        0.0068
      4 C           0.7561    3.6843   25.0501 C.ar    1  UNL1       -0.0010
      5 C           0.5434    4.4651   23.7871 C.ar    1  UNL1        0.0109
      6 C           0.3616    3.7468   22.4829 C.ar    1  UNL1        0.0555
      7 CL          0.1489    4.5275   21.2199 Cl      1  UNL1       -0.0825
      8 C           0.9998    1.4045   26.2719 C.3     1  UNL1        0.1667
      9 O           2.2869    0.6653   26.4889 O.3     1  UNL1       -0.3466
     10 C           2.4996   -0.1154   27.7519 C.3     1  UNL1        0.1739
     11 C           1.4253   -0.1570   28.7979 C.3     1  UNL1        0.1692
     12 O           1.6380   -0.9377   30.0609 O.3     1  UNL1       -0.3794
     13 C           0.1383    0.5822   28.5809 C.3     1  UNL1        0.1692
     14 O          -0.9360    0.5407   29.6269 O.3     1  UNL1       -0.3794
     15 C          -0.0745    1.3630   27.3179 C.3     1  UNL1        0.1709
     16 O          -1.3615    2.1022   27.1009 O.3     1  UNL1       -0.3792
     17 H           0.8526   -0.8604   30.6249 H       1  UNL1        0.2105
     18 H          -1.6955    1.0668   29.3315 H       1  UNL1        0.2105
     19 H          -1.9422    1.9721   27.8669 H       1  UNL1        0.2106
     20 C           3.7866   -0.8546   27.9688 C.3     1  UNL1        0.1692
     21 O           3.9598   -2.2377   27.4146 O.3     1  UNL1       -0.3794
     22 H           3.3474   -2.8437   27.8603 H       1  UNL1        0.2105
     23 C           0.2108    1.5293   21.1375 C.3     1  UNL1        0.1595
     24 C           5.0387   -4.1448   18.6636 C.3     1  UNL1        0.0321
     25 C           4.4966   -2.7834   18.9840 C.ar    1  UNL1       -0.0067
     26 C           3.1344   -2.6435   19.5961 C.ar    1  UNL1        0.0359
     27 C           2.5923   -1.2821   19.9165 C.ar    1  UNL1        0.1706
     28 N           1.2931   -0.8353   20.5187 N.ar    1  UNL1       -0.1471
     29 N           1.3103    0.6624   20.5991 N.ar    1  UNL1       -0.1960
     30 C           2.6201    1.1413   20.0466 C.ar    1  UNL1        0.3526
     31 O           3.0603    2.5709   19.9355 O.2     1  UNL1       -0.2444
     32 N           3.4124   -0.0605   19.6247 N.ar    1  UNL1       -0.2400
     33 C           4.7746   -0.2004   19.0126 C.ar    1  UNL1        0.0969
     34 C           5.3167   -1.5618   18.6922 C.ar    1  UNL1        0.0715
     35 CL          6.6790   -1.7016   18.0801 Cl      1  UNL1       -0.0810
@<TRIPOS>BOND
     1    24    25    1
     2    25    26   ar
     3    26    27   ar
     4    27    28   ar
     5    28    29   ar
     6    29    23    1
     7    23     1    1
     8     1     2   ar
     9     2     3   ar
    10     8     3    1
    11     8     9    1
    12     9    10    1
    13    10    20    1
    14    20    21    1
    15    10    11    1
    16    11    12    1
    17    11    13    1
    18    13    14    1
    19    13    15    1
    20    15    16    1
    21     3     4   ar
    22     4     5   ar
    23     5     6   ar
    24     6     7    1
    25    29    30   ar
    26    30    31    2
    27    30    32   ar
    28    32    33   ar
    29    33    34   ar
    30    34    35    1
    31    34    25   ar
    32    32    27   ar
    33     6     1   ar
    34    15     8    1
    35    21    22    1
    36    12    17    1
    37    14    18    1
    38    16    19    1
@<TRIPOS>MOLECULE
*****
 35 38 0 0 0
SMALL
GASTEIGER

@<TRIPOS>ATOM
      1 C           8.3564   -5.2736   24.4672 C.ar    1  UNL1        0.0126
      2 C           7.9811   -4.6912   25.7976 C.ar    1  UNL1       -0.0034
      3 C           7.6164   -5.5965   26.9367 C.ar    1  UNL1        0.0068
      4 C           7.6270   -7.0842   26.7453 C.ar    1  UNL1       -0.0010
      5 C           8.0023   -7.6666   25.4149 C.ar    1  UNL1        0.0109
      6 C           8.3670   -6.7613   24.2758 C.ar    1  UNL1        0.0555
      7 CL          8.7423   -7.3437   22.9455 Cl      1  UNL1       -0.0825
      8 C           7.2412   -5.0141   28.2670 C.3     1  UNL1        0.1667
      9 O           6.8539   -3.5686   28.3707 O.3     1  UNL1       -0.3466
     10 C           6.4786   -2.9862   29.7010 C.3     1  UNL1        0.1739
     11 C           6.4906   -3.8493   30.9278 C.3     1  UNL1        0.1692
     12 O           6.1153   -3.2669   32.2582 O.3     1  UNL1       -0.3794
     13 C           6.8778   -5.2947   30.8243 C.3     1  UNL1        0.1692
     14 O           6.8898   -6.1577   32.0511 O.3     1  UNL1       -0.3794
     15 C           7.2531   -5.8771   29.4938 C.3     1  UNL1        0.1709
     16 O           7.6403   -7.3226   29.3902 O.3     1  UNL1       -0.3792
     17 H           6.1749   -3.9539   32.9404 H       1  UNL1        0.2105
     18 H           7.1607   -7.0576   31.8107 H       1  UNL1        0.2105
     19 H           7.5959   -7.7329   30.2681 H       1  UNL1        0.2106
     20 C           6.0914   -1.5408   29.8046 C.3     1  UNL1        0.1692
     21 O           5.0354   -1.1154   30.7813 O.3     1  UNL1       -0.3794
     22 H           4.1815   -1.4938   30.5196 H       1  UNL1        0.2105
     23 C           8.7211   -4.3683   23.3282 C.3     1  UNL1        0.1595
     24 C           2.2776   -1.3185   20.0411 C.3     1  UNL1        0.0321
     25 C           3.6693   -1.8540   20.2036 C.ar    1  UNL1       -0.0067
     26 C           4.1395   -2.3251   21.5479 C.ar    1  UNL1        0.0359
     27 C           5.5312   -2.8606   21.7104 C.ar    1  UNL1        0.1706
     28 N           6.2687   -3.3934   22.9030 N.ar    1  UNL1       -0.1471
     29 N           7.6461   -3.7871   22.4582 N.ar    1  UNL1       -0.1960
     30 C           7.7598   -3.4976   20.9908 C.ar    1  UNL1        0.3526
     31 O           8.9684   -3.7385   20.1357 O.2     1  UNL1       -0.2444
     32 N           6.4527   -2.9250   20.5286 N.ar    1  UNL1       -0.2400
     33 C           5.9826   -2.4539   19.1844 C.ar    1  UNL1        0.0969
     34 C           4.5909   -1.9184   19.0219 C.ar    1  UNL1        0.0715
     35 CL          4.1208   -1.4474   17.6776 Cl      1  UNL1       -0.0810
@<TRIPOS>BOND
     1    24    25    1
     2    25    26   ar
     3    26    27   ar
     4    27    28   ar
     5    28    29   ar
     6    29    23    1
     7    23     1    1
     8     1     2   ar
     9     2     3   ar
    10     8     3    1
    11     8     9    1
    12     9    10    1
    13    10    20    1
    14    20    21    1
    15    10    11    1
    16    11    12    1
    17    11    13    1
    18    13    14    1
    19    13    15    1
    20    15    16    1
    21     3     4   ar
    22     4     5   ar
    23     5     6   ar
    24     6     7    1
    25    29    30   ar
    26    30    31    2
    27    30    32   ar
    28    32    33   ar
    29    33    34   ar
    30    34    35    1
    31    34    25   ar
    32    32    27   ar
    33     6     1   ar
    34    15     8    1
    35    21    22    1
    36    12    17    1
    37    14    18    1
    38    16    19    1
@<TRIPOS>MOLECULE
*****
 35 38 0 0 0
SMALL
GASTEIGER

@<TRIPOS>ATOM
      1 C           6.6218   -2.9293   32.0409 C.ar    1  UNL1        0.0126
      2 C           6.5725   -3.8424   30.8519 C.ar    1  UNL1       -0.0034
      3 C           7.7765   -3.9908   29.9697 C.ar    1  UNL1        0.0068
      4 C           9.0298   -3.2260   30.2764 C.ar    1  UNL1       -0.0010
      5 C           9.0793   -2.3128   31.4655 C.ar    1  UNL1        0.0109
      6 C           7.8752   -2.1645   32.3477 C.ar    1  UNL1        0.0555
      7 CL          7.9246   -1.2514   33.5367 Cl      1  UNL1       -0.0825
      8 C           7.7271   -4.9039   28.7807 C.3     1  UNL1        0.1667
      9 O           8.0966   -6.3500   28.9297 O.3     1  UNL1       -0.3466
     10 C           8.0473   -7.2631   27.7407 C.3     1  UNL1        0.1739
     11 C           7.6284   -6.7301   26.4026 C.3     1  UNL1        0.1692
     12 O           7.5790   -7.6432   25.2136 O.3     1  UNL1       -0.3794
     13 C           7.2589   -5.2841   26.2536 C.3     1  UNL1        0.1692
     14 O           6.8400   -4.7511   24.9155 O.3     1  UNL1       -0.3794
     15 C           7.3082   -4.3709   27.4426 C.3     1  UNL1        0.1709
     16 O           6.9387   -2.9248   27.2935 O.3     1  UNL1       -0.3792
     17 H           7.2908   -7.1434   24.4339 H       1  UNL1        0.2105
     18 H           6.6370   -3.8057   24.9931 H       1  UNL1        0.2105
     19 H           6.6942   -2.7469   26.3718 H       1  UNL1        0.2106
     20 C           8.4168   -8.7092   27.8898 C.3     1  UNL1        0.1692
     21 O           7.4478   -9.7773   27.4773 O.3     1  UNL1       -0.3794
     22 H           6.6693   -9.7483   28.0552 H       1  UNL1        0.2105
     23 C           5.4178   -2.7810   32.9232 C.3     1  UNL1        0.1595
     24 C           0.6794    3.1716   30.9895 C.3     1  UNL1        0.0321
     25 C           1.5902    2.2846   31.7856 C.ar    1  UNL1       -0.0067
     26 C           2.1632    1.0459   31.1632 C.ar    1  UNL1        0.0359
     27 C           3.0740    0.1590   31.9594 C.ar    1  UNL1        0.1706
     28 N           3.7843   -1.1169   31.6163 N.ar    1  UNL1       -0.1471
     29 N           4.5611   -1.5537   32.8229 N.ar    1  UNL1       -0.1960
     30 C           4.3309   -0.5478   33.9115 C.ar    1  UNL1        0.3526
     31 O           4.9169   -0.5925   35.2916 O.2     1  UNL1       -0.2444
     32 N           3.4118    0.5107   33.3778 N.ar    1  UNL1       -0.2400
     33 C           2.8389    1.7494   34.0002 C.ar    1  UNL1        0.0969
     34 C           1.9281    2.6363   33.2041 C.ar    1  UNL1        0.0715
     35 CL          1.3551    3.8750   33.8265 Cl      1  UNL1       -0.0810
@<TRIPOS>BOND
     1    24    25    1
     2    25    26   ar
     3    26    27   ar
     4    27    28   ar
     5    28    29   ar
     6    29    23    1
     7    23     1    1
     8     1     2   ar
     9     2     3   ar
    10     8     3    1
    11     8     9    1
    12     9    10    1
    13    10    20    1
    14    20    21    1
    15    10    11    1
    16    11    12    1
    17    11    13    1
    18    13    14    1
    19    13    15    1
    20    15    16    1
    21     3     4   ar
    22     4     5   ar
    23     5     6   ar
    24     6     7    1
    25    29    30   ar
    26    30    31    2
    27    30    32   ar
    28    32    33   ar
    29    33    34   ar
    30    34    35    1
    31    34    25   ar
    32    32    27   ar
    33     6     1   ar
    34    15     8    1
    35    21    22    1
    36    12    17    1
    37    14    18    1
    38    16    19    1
