@<TRIPOS>MOLECULE
*****
 28 30 0 0 0
SMALL
GASTEIGER

@<TRIPOS>ATOM
      1 C         -10.3187  -15.5275   20.3764 C.3     1  UNL1        0.1152
      2 N          -9.6302  -16.4097   21.3753 N.am    1  UNL1       -0.2740
      3 C          -8.4340  -15.9026   22.1250 C.2     1  UNL1        0.2303
      4 O          -7.9262  -14.5134   21.8757 O.2     1  UNL1       -0.2745
      5 C          -7.7455  -16.7848   23.1238 C.3     1  UNL1        0.1113
      6 C          -7.4609  -16.2740   24.5052 C.ar    1  UNL1       -0.0157
      7 C          -8.5369  -16.2973   25.5499 C.ar    1  UNL1       -0.0041
      8 C          -8.2523  -15.7864   26.9312 C.ar    1  UNL1       -0.0003
      9 C          -6.8916  -15.2522   27.2677 C.ar    1  UNL1       -0.0003
     10 C          -5.8156  -15.2289   26.2229 C.ar    1  UNL1       -0.0032
     11 C          -6.1003  -15.7398   24.8417 C.ar    1  UNL1       -0.0101
     12 C          -5.0242  -15.7165   23.7968 C.3     1  UNL1        0.0919
     13 N          -4.8749  -14.5230   22.9005 N.3     1  UNL1       -0.3175
     14 H          -5.6965  -14.4429   22.3013 H       1  UNL1        0.1192
     15 H          -4.0420  -14.6341   22.3224 H       1  UNL1        0.1192
     16 C         -10.1380  -17.7989   21.6245 C.3     1  UNL1        0.1138
     17 C         -11.1704  -18.0410   22.6854 C.ar    1  UNL1       -0.0029
     18 C         -10.7945  -18.7585   23.9479 C.ar    1  UNL1       -0.0026
     19 C         -11.8270  -19.0006   25.0088 C.ar    1  UNL1       -0.0003
     20 C         -13.2353  -18.5253   24.8072 C.ar    1  UNL1       -0.0000
     21 C         -13.6112  -17.8078   23.5446 C.ar    1  UNL1       -0.0003
     22 C         -12.5788  -17.5657   22.4837 C.ar    1  UNL1       -0.0026
     23 C          -9.6133  -18.9461   20.8129 C.3     1  UNL1        0.0967
     24 N          -8.1941  -19.3999   20.9857 N.3     1  UNL1       -0.2710
     25 C          -7.6102  -20.0174   22.2217 C.3     1  UNL1        0.0722
     26 C          -6.1648  -20.3151   21.9528 C.3     1  UNL1        0.0188
     27 C          -5.8554  -19.8815   20.5506 C.3     1  UNL1        0.0188
     28 C          -7.1096  -19.3160   19.9529 C.3     1  UNL1        0.0722
@<TRIPOS>BOND
     1     1     2    1
     2     2     3   am
     3     3     4    2
     4     3     5    1
     5     5     6    1
     6     6     7   ar
     7     7     8   ar
     8     8     9   ar
     9     9    10   ar
    10    10    11   ar
    11    11    12    1
    12    12    13    1
    13     2    16    1
    14    16    23    1
    15    23    24    1
    16    24    25    1
    17    25    26    1
    18    26    27    1
    19    27    28    1
    20    16    17    1
    21    17    18   ar
    22    18    19   ar
    23    19    20   ar
    24    20    21   ar
    25    21    22   ar
    26    11     6   ar
    27    28    24    1
    28    22    17   ar
    29    13    14    1
    30    13    15    1
@<TRIPOS>MOLECULE
*****
 28 30 0 0 0
SMALL
GASTEIGER

@<TRIPOS>ATOM
      1 C         -10.1360  -19.0257   25.2937 C.3     1  UNL1        0.1152
      2 N          -9.3072  -18.3050   24.2721 N.am    1  UNL1       -0.2740
      3 C          -8.6162  -19.0767   23.1871 C.2     1  UNL1        0.2303
      4 O          -8.7539  -20.5690   23.1238 O.2     1  UNL1       -0.2745
      5 C          -7.7874  -18.3560   22.1655 C.3     1  UNL1        0.1113
      6 C          -6.4395  -18.8902   21.7809 C.ar    1  UNL1       -0.0157
      7 C          -5.2244  -18.4967   22.5674 C.ar    1  UNL1       -0.0041
      8 C          -3.8766  -19.0309   22.1827 C.ar    1  UNL1       -0.0003
      9 C          -3.7439  -19.9587   21.0116 C.ar    1  UNL1       -0.0003
     10 C          -4.9590  -20.3523   20.2251 C.ar    1  UNL1       -0.0032
     11 C          -6.3068  -19.8180   20.6098 C.ar    1  UNL1       -0.0101
     12 C          -7.5220  -20.2116   19.8233 C.3     1  UNL1        0.0919
     13 N          -8.2462  -19.1883   18.9997 N.3     1  UNL1       -0.3175
     14 H          -8.6604  -18.4879   19.6148 H       1  UNL1        0.1192
     15 H          -8.9817  -19.6446   18.4601 H       1  UNL1        0.1192
     16 C          -9.1695  -16.8127   24.3354 C.3     1  UNL1        0.1138
     17 C          -8.0327  -16.1960   25.0952 C.ar    1  UNL1       -0.0029
     18 C          -8.1300  -16.0245   26.5821 C.ar    1  UNL1       -0.0026
     19 C          -6.9932  -15.4078   27.3420 C.ar    1  UNL1       -0.0003
     20 C          -5.7591  -14.9626   26.6149 C.ar    1  UNL1       -0.0000
     21 C          -5.6618  -15.1341   25.1279 C.ar    1  UNL1       -0.0003
     22 C          -6.7986  -15.7508   24.3681 C.ar    1  UNL1       -0.0026
     23 C         -10.1686  -15.9371   23.6388 C.3     1  UNL1        0.0967
     24 N         -11.0200  -16.4987   22.5390 N.3     1  UNL1       -0.2710
     25 C         -10.7520  -16.3791   21.0680 C.3     1  UNL1        0.0722
     26 C         -11.8552  -17.0850   20.3368 C.3     1  UNL1        0.0188
     27 C         -12.8052  -17.6408   21.3560 C.3     1  UNL1        0.0188
     28 C         -12.2889  -17.2785   22.7170 C.3     1  UNL1        0.0722
@<TRIPOS>BOND
     1     1     2    1
     2     2     3   am
     3     3     4    2
     4     3     5    1
     5     5     6    1
     6     6     7   ar
     7     7     8   ar
     8     8     9   ar
     9     9    10   ar
    10    10    11   ar
    11    11    12    1
    12    12    13    1
    13     2    16    1
    14    16    23    1
    15    23    24    1
    16    24    25    1
    17    25    26    1
    18    26    27    1
    19    27    28    1
    20    16    17    1
    21    17    18   ar
    22    18    19   ar
    23    19    20   ar
    24    20    21   ar
    25    21    22   ar
    26    11     6   ar
    27    28    24    1
    28    22    17   ar
    29    13    14    1
    30    13    15    1
@<TRIPOS>MOLECULE
*****
 28 30 0 0 0
SMALL
GASTEIGER

@<TRIPOS>ATOM
      1 C         -10.2481  -19.1414   24.9614 C.3     1  UNL1        0.1152
      2 N          -9.2374  -18.3819   24.1543 N.am    1  UNL1       -0.2740
      3 C          -8.3261  -19.1131   23.2135 C.2     1  UNL1        0.2303
      4 O          -8.4256  -20.6039   23.0800 O.2     1  UNL1       -0.2745
      5 C          -7.3154  -18.3536   22.4064 C.3     1  UNL1        0.1113
      6 C          -6.1815  -19.0817   21.7473 C.ar    1  UNL1       -0.0157
      7 C          -6.4620  -20.0966   20.6790 C.ar    1  UNL1       -0.0041
      8 C          -5.3282  -20.8246   20.0199 C.ar    1  UNL1       -0.0003
      9 C          -3.9139  -20.5378   20.4291 C.ar    1  UNL1       -0.0003
     10 C          -3.6334  -19.5229   21.4974 C.ar    1  UNL1       -0.0032
     11 C          -4.7672  -18.7948   22.1565 C.ar    1  UNL1       -0.0101
     12 C          -4.4868  -17.7799   23.2248 C.3     1  UNL1        0.0919
     13 N          -3.9252  -16.4387   22.8562 N.3     1  UNL1       -0.3175
     14 H          -2.9841  -16.5557   22.4807 H       1  UNL1        0.1192
     15 H          -3.8891  -15.8457   23.6854 H       1  UNL1        0.1192
     16 C          -9.1379  -16.8912   24.2878 C.3     1  UNL1        0.1138
     17 C          -8.1660  -16.2883   25.2583 C.ar    1  UNL1       -0.0029
     18 C          -8.4616  -16.3128   26.7287 C.ar    1  UNL1       -0.0026
     19 C          -7.4897  -15.7099   27.6993 C.ar    1  UNL1       -0.0003
     20 C          -6.2222  -15.0825   27.1994 C.ar    1  UNL1       -0.0000
     21 C          -5.9266  -15.0581   25.7290 C.ar    1  UNL1       -0.0003
     22 C          -6.8985  -15.6609   24.7585 C.ar    1  UNL1       -0.0026
     23 C         -10.0104  -16.0033   23.4507 C.3     1  UNL1        0.0967
     24 N         -10.9147  -16.6019   22.4145 N.3     1  UNL1       -0.2710
     25 C         -12.3231  -17.0677   22.6365 C.3     1  UNL1        0.0722
     26 C         -12.8483  -17.5935   21.3335 C.3     1  UNL1        0.0188
     27 C         -11.7645  -17.4525   20.3061 C.3     1  UNL1        0.0188
     28 C         -10.5695  -16.8397   20.9743 C.3     1  UNL1        0.0722
@<TRIPOS>BOND
     1     1     2    1
     2     2     3   am
     3     3     4    2
     4     3     5    1
     5     5     6    1
     6     6     7   ar
     7     7     8   ar
     8     8     9   ar
     9     9    10   ar
    10    10    11   ar
    11    11    12    1
    12    12    13    1
    13     2    16    1
    14    16    23    1
    15    23    24    1
    16    24    25    1
    17    25    26    1
    18    26    27    1
    19    27    28    1
    20    16    17    1
    21    17    18   ar
    22    18    19   ar
    23    19    20   ar
    24    20    21   ar
    25    21    22   ar
    26    11     6   ar
    27    28    24    1
    28    22    17   ar
    29    13    14    1
    30    13    15    1
@<TRIPOS>MOLECULE
*****
 28 30 0 0 0
SMALL
GASTEIGER

@<TRIPOS>ATOM
      1 C          -9.4233  -20.5519   23.4522 C.3     1  UNL1        0.1152
      2 N          -8.9114  -19.1548   23.2620 N.am    1  UNL1       -0.2740
      3 C          -9.0262  -18.1560   24.3752 C.2     1  UNL1        0.2303
      4 O          -9.6528  -18.5542   25.6786 O.2     1  UNL1       -0.2745
      5 C          -8.5143  -16.7589   24.1851 C.3     1  UNL1        0.1113
      6 C          -7.8550  -16.0401   25.3247 C.ar    1  UNL1       -0.0157
      7 C          -8.6230  -15.7667   26.5838 C.ar    1  UNL1       -0.0041
      8 C          -7.9637  -15.0479   27.7233 C.ar    1  UNL1       -0.0003
      9 C          -6.5363  -14.6025   27.6037 C.ar    1  UNL1       -0.0003
     10 C          -5.7683  -14.8759   26.3446 C.ar    1  UNL1       -0.0032
     11 C          -6.4277  -15.5947   25.2051 C.ar    1  UNL1       -0.0101
     12 C          -5.6597  -15.8681   23.9459 C.3     1  UNL1        0.0919
     13 N          -5.2293  -14.7305   23.0680 N.3     1  UNL1       -0.3175
     14 H          -6.0523  -14.2772   22.6710 H       1  UNL1        0.1192
     15 H          -4.6405  -15.0862   22.3148 H       1  UNL1        0.1192
     16 C          -8.2848  -18.7566   21.9587 C.3     1  UNL1        0.1138
     17 C          -6.8940  -19.2091   21.6259 C.ar    1  UNL1       -0.0029
     18 C          -5.7277  -18.6891   22.4128 C.ar    1  UNL1       -0.0026
     19 C          -4.3368  -19.1417   22.0800 C.ar    1  UNL1       -0.0003
     20 C          -4.1123  -20.1143   20.9604 C.ar    1  UNL1       -0.0000
     21 C          -5.2787  -20.6343   20.1734 C.ar    1  UNL1       -0.0003
     22 C          -6.6695  -20.1817   20.5062 C.ar    1  UNL1       -0.0026
     23 C          -9.0490  -17.9057   20.9881 C.3     1  UNL1        0.0967
     24 N         -10.4839  -17.5629   21.2593 N.3     1  UNL1       -0.2710
     25 C         -11.6452  -18.5097   21.1884 C.3     1  UNL1        0.0722
     26 C         -12.8885  -17.7451   21.5344 C.3     1  UNL1        0.0188
     27 C         -12.4956  -16.3257   21.8191 C.3     1  UNL1        0.0188
     28 C         -11.0095  -16.2132   21.6491 C.3     1  UNL1        0.0722
@<TRIPOS>BOND
     1     1     2    1
     2     2     3   am
     3     3     4    2
     4     3     5    1
     5     5     6    1
     6     6     7   ar
     7     7     8   ar
     8     8     9   ar
     9     9    10   ar
    10    10    11   ar
    11    11    12    1
    12    12    13    1
    13     2    16    1
    14    16    23    1
    15    23    24    1
    16    24    25    1
    17    25    26    1
    18    26    27    1
    19    27    28    1
    20    16    17    1
    21    17    18   ar
    22    18    19   ar
    23    19    20   ar
    24    20    21   ar
    25    21    22   ar
    26    11     6   ar
    27    28    24    1
    28    22    17   ar
    29    13    14    1
    30    13    15    1
@<TRIPOS>MOLECULE
*****
 28 30 0 0 0
SMALL
GASTEIGER

@<TRIPOS>ATOM
      1 C         -10.6824  -18.8671   25.5244 C.3     1  UNL1        0.1152
      2 N          -9.8396  -18.4377   24.3602 N.am    1  UNL1       -0.2740
      3 C          -8.9450  -19.4285   23.6760 C.2     1  UNL1        0.2303
      4 O          -8.8933  -20.8487   24.1560 O.2     1  UNL1       -0.2745
      5 C          -8.1021  -18.9991   22.5119 C.3     1  UNL1        0.1113
      6 C          -8.5293  -19.3328   21.1132 C.ar    1  UNL1       -0.0157
      7 C          -9.9868  -19.4712   20.7870 C.ar    1  UNL1       -0.0041
      8 C         -10.4138  -19.8048   19.3883 C.ar    1  UNL1       -0.0003
      9 C          -9.3834  -20.0000   18.3159 C.ar    1  UNL1       -0.0003
     10 C          -7.9259  -19.8616   18.6421 C.ar    1  UNL1       -0.0032
     11 C          -7.4988  -19.5280   20.0408 C.ar    1  UNL1       -0.0101
     12 C          -6.0412  -19.3895   20.3671 C.3     1  UNL1        0.0919
     13 N          -5.1850  -18.4373   19.5860 N.3     1  UNL1       -0.3175
     14 H          -5.1140  -18.7576   18.6203 H       1  UNL1        0.1192
     15 H          -4.2539  -18.3987   20.0007 H       1  UNL1        0.1192
     16 C          -9.8913  -17.0175   23.8803 C.3     1  UNL1        0.1138
     17 C         -10.5873  -16.6855   22.5937 C.ar    1  UNL1       -0.0029
     18 C         -12.0043  -17.1251   22.3725 C.ar    1  UNL1       -0.0026
     19 C         -12.7004  -16.7931   21.0859 C.ar    1  UNL1       -0.0003
     20 C         -11.9795  -16.0215   20.0206 C.ar    1  UNL1       -0.0000
     21 C         -10.5624  -15.5820   20.2418 C.ar    1  UNL1       -0.0003
     22 C          -9.8664  -15.9140   21.5284 C.ar    1  UNL1       -0.0026
     23 C          -9.2469  -15.9293   24.6869 C.3     1  UNL1        0.0967
     24 N          -7.7519  -15.8168   24.7355 N.3     1  UNL1       -0.2710
     25 C          -6.9214  -15.6302   25.9706 C.3     1  UNL1        0.0722
     26 C          -5.4811  -15.5691   25.5559 C.3     1  UNL1        0.0188
     27 C          -5.4215  -15.7180   24.0645 C.3     1  UNL1        0.0188
     28 C          -6.8249  -15.8710   23.5575 C.3     1  UNL1        0.0722
@<TRIPOS>BOND
     1     1     2    1
     2     2     3   am
     3     3     4    2
     4     3     5    1
     5     5     6    1
     6     6     7   ar
     7     7     8   ar
     8     8     9   ar
     9     9    10   ar
    10    10    11   ar
    11    11    12    1
    12    12    13    1
    13     2    16    1
    14    16    23    1
    15    23    24    1
    16    24    25    1
    17    25    26    1
    18    26    27    1
    19    27    28    1
    20    16    17    1
    21    17    18   ar
    22    18    19   ar
    23    19    20   ar
    24    20    21   ar
    25    21    22   ar
    26    11     6   ar
    27    28    24    1
    28    22    17   ar
    29    13    14    1
    30    13    15    1
@<TRIPOS>MOLECULE
*****
 28 30 0 0 0
SMALL
GASTEIGER

@<TRIPOS>ATOM
      1 C         -10.3657  -17.8640   20.2520 C.3     1  UNL1        0.1152
      2 N          -9.3596  -18.3853   21.2347 N.am    1  UNL1       -0.2740
      3 C          -8.1215  -19.0765   20.7453 C.2     1  UNL1        0.2303
      4 O          -7.8897  -19.2464   19.2731 O.2     1  UNL1       -0.2745
      5 C          -7.1154  -19.5978   21.7280 C.3     1  UNL1        0.1113
      6 C          -5.6697  -19.6967   21.3402 C.ar    1  UNL1       -0.0157
      7 C          -5.2457  -20.6504   20.2629 C.ar    1  UNL1       -0.0041
      8 C          -3.8001  -20.7492   19.8751 C.ar    1  UNL1       -0.0003
      9 C          -2.7785  -19.8944   20.5647 C.ar    1  UNL1       -0.0003
     10 C          -3.2024  -18.9407   21.6420 C.ar    1  UNL1       -0.0032
     11 C          -4.6481  -18.8419   22.0298 C.ar    1  UNL1       -0.0101
     12 C          -5.0721  -17.8881   23.1072 C.3     1  UNL1        0.0919
     13 N          -4.3593  -16.5788   23.2728 N.3     1  UNL1       -0.3175
     14 H          -3.3973  -16.7500   23.5654 H       1  UNL1        0.1192
     15 H          -4.8355  -16.0196   23.9806 H       1  UNL1        0.1192
     16 C          -9.5914  -18.2154   22.7069 C.3     1  UNL1        0.1138
     17 C          -8.9220  -17.0957   23.4473 C.ar    1  UNL1       -0.0029
     18 C          -9.0609  -16.9932   24.9373 C.ar    1  UNL1       -0.0026
     19 C          -8.3915  -15.8735   25.6777 C.ar    1  UNL1       -0.0003
     20 C          -7.5833  -14.8562   24.9280 C.ar    1  UNL1       -0.0000
     21 C          -7.4445  -14.9587   23.4379 C.ar    1  UNL1       -0.0003
     22 C          -8.1139  -16.0784   22.6976 C.ar    1  UNL1       -0.0026
     23 C         -10.4926  -19.1653   23.4388 C.3     1  UNL1        0.0967
     24 N         -11.8792  -18.7396   23.8211 N.3     1  UNL1       -0.2710
     25 C         -12.8481  -18.0021   22.9452 C.3     1  UNL1        0.0722
     26 C         -14.1080  -17.7833   23.7292 C.3     1  UNL1        0.0188
     27 C         -13.9178  -18.3855   25.0898 C.3     1  UNL1        0.0188
     28 C         -12.5403  -18.9765   25.1466 C.3     1  UNL1        0.0722
@<TRIPOS>BOND
     1     1     2    1
     2     2     3   am
     3     3     4    2
     4     3     5    1
     5     5     6    1
     6     6     7   ar
     7     7     8   ar
     8     8     9   ar
     9     9    10   ar
    10    10    11   ar
    11    11    12    1
    12    12    13    1
    13     2    16    1
    14    16    23    1
    15    23    24    1
    16    24    25    1
    17    25    26    1
    18    26    27    1
    19    27    28    1
    20    16    17    1
    21    17    18   ar
    22    18    19   ar
    23    19    20   ar
    24    20    21   ar
    25    21    22   ar
    26    11     6   ar
    27    28    24    1
    28    22    17   ar
    29    13    14    1
    30    13    15    1
@<TRIPOS>MOLECULE
*****
 28 30 0 0 0
SMALL
GASTEIGER

@<TRIPOS>ATOM
      1 C          -9.7223  -16.2175   21.8103 C.3     1  UNL1        0.1152
      2 N          -8.8759  -17.2422   22.5056 N.am    1  UNL1       -0.2740
      3 C          -7.7562  -17.9154   21.7686 C.2     1  UNL1        0.2303
      4 O          -7.4829  -17.5638   20.3362 O.2     1  UNL1       -0.2745
      5 C          -6.9099  -18.9402   22.4639 C.3     1  UNL1        0.1113
      6 C          -5.5960  -19.3553   21.8709 C.ar    1  UNL1       -0.0157
      7 C          -5.5569  -20.3857   20.7815 C.ar    1  UNL1       -0.0041
      8 C          -4.2432  -20.8007   20.1886 C.ar    1  UNL1       -0.0003
      9 C          -2.9684  -20.1854   20.6850 C.ar    1  UNL1       -0.0003
     10 C          -3.0075  -19.1550   21.7744 C.ar    1  UNL1       -0.0032
     11 C          -4.3213  -18.7400   22.3673 C.ar    1  UNL1       -0.0101
     12 C          -4.3604  -17.7095   23.4567 C.3     1  UNL1        0.0919
     13 N          -4.1115  -16.2662   23.1331 N.3     1  UNL1       -0.3175
     14 H          -3.1473  -16.1489   22.8217 H       1  UNL1        0.1192
     15 H          -4.2715  -15.6986   23.9654 H       1  UNL1        0.1192
     16 C          -9.1492  -17.5939   23.9380 C.3     1  UNL1        0.1138
     17 C          -8.4587  -16.8450   25.0390 C.ar    1  UNL1       -0.0029
     18 C          -8.8954  -17.0320   26.4618 C.ar    1  UNL1       -0.0026
     19 C          -8.2048  -16.2832   27.5629 C.ar    1  UNL1       -0.0003
     20 C          -7.0776  -15.3473   27.2412 C.ar    1  UNL1       -0.0000
     21 C          -6.6409  -15.1603   25.8183 C.ar    1  UNL1       -0.0003
     22 C          -7.3314  -15.9092   24.7173 C.ar    1  UNL1       -0.0026
     23 C         -10.1131  -18.6945   24.2693 C.3     1  UNL1        0.0967
     24 N         -11.5897  -18.4598   24.1485 N.3     1  UNL1       -0.2710
     25 C         -12.6188  -18.7594   25.1979 C.3     1  UNL1        0.0722
     26 C         -13.9616  -18.3691   24.6551 C.3     1  UNL1        0.0188
     27 C         -13.7624  -17.8283   23.2702 C.3     1  UNL1        0.0188
     28 C         -12.2965  -17.8844   22.9571 C.3     1  UNL1        0.0722
@<TRIPOS>BOND
     1     1     2    1
     2     2     3   am
     3     3     4    2
     4     3     5    1
     5     5     6    1
     6     6     7   ar
     7     7     8   ar
     8     8     9   ar
     9     9    10   ar
    10    10    11   ar
    11    11    12    1
    12    12    13    1
    13     2    16    1
    14    16    23    1
    15    23    24    1
    16    24    25    1
    17    25    26    1
    18    26    27    1
    19    27    28    1
    20    16    17    1
    21    17    18   ar
    22    18    19   ar
    23    19    20   ar
    24    20    21   ar
    25    21    22   ar
    26    11     6   ar
    27    28    24    1
    28    22    17   ar
    29    13    14    1
    30    13    15    1
@<TRIPOS>MOLECULE
*****
 28 30 0 0 0
SMALL
GASTEIGER

@<TRIPOS>ATOM
      1 C          -9.2781  -20.5313   23.6355 C.3     1  UNL1        0.1152
      2 N          -8.9391  -19.0887   23.4035 N.am    1  UNL1       -0.2740
      3 C          -9.1809  -18.0781   24.4852 C.2     1  UNL1        0.2303
      4 O          -9.7618  -18.5101   25.7990 O.2     1  UNL1       -0.2745
      5 C          -8.8418  -16.6355   24.2532 C.3     1  UNL1        0.1113
      6 C          -7.5096  -16.0991   24.6863 C.ar    1  UNL1       -0.0157
      7 C          -6.3701  -16.0454   23.7123 C.ar    1  UNL1       -0.0041
      8 C          -5.0380  -15.5090   24.1454 C.ar    1  UNL1       -0.0003
      9 C          -4.8453  -15.0263   25.5524 C.ar    1  UNL1       -0.0003
     10 C          -5.9847  -15.0800   26.5264 C.ar    1  UNL1       -0.0032
     11 C          -7.3169  -15.6164   26.0934 C.ar    1  UNL1       -0.0101
     12 C          -8.4564  -15.6701   27.0674 C.3     1  UNL1        0.0919
     13 N          -8.7049  -14.5180   27.9953 N.3     1  UNL1       -0.3175
     14 H          -7.9259  -14.4334   28.6484 H       1  UNL1        0.1192
     15 H          -9.5678  -14.6796   28.5145 H       1  UNL1        0.1192
     16 C          -8.3582  -18.6567   22.0897 C.3     1  UNL1        0.1138
     17 C          -7.0224  -19.1800   21.6520 C.ar    1  UNL1       -0.0029
     18 C          -5.7804  -18.7768   22.3902 C.ar    1  UNL1       -0.0026
     19 C          -4.4445  -19.3001   21.9524 C.ar    1  UNL1       -0.0003
     20 C          -4.3506  -20.2265   20.7764 C.ar    1  UNL1       -0.0000
     21 C          -5.5926  -20.6297   20.0382 C.ar    1  UNL1       -0.0003
     22 C          -6.9285  -20.1064   20.4760 C.ar    1  UNL1       -0.0026
     23 C          -9.1133  -17.7014   21.2137 C.3     1  UNL1        0.0967
     24 N         -10.5777  -17.4711   21.4428 N.3     1  UNL1       -0.2710
     25 C         -11.2217  -16.1592   21.7803 C.3     1  UNL1        0.0722
     26 C         -12.6973  -16.3896   21.9207 C.3     1  UNL1        0.0188
     27 C         -12.9652  -17.8440   21.6700 C.3     1  UNL1        0.0188
     28 C         -11.6552  -18.5124   21.3746 C.3     1  UNL1        0.0722
@<TRIPOS>BOND
     1     1     2    1
     2     2     3   am
     3     3     4    2
     4     3     5    1
     5     5     6    1
     6     6     7   ar
     7     7     8   ar
     8     8     9   ar
     9     9    10   ar
    10    10    11   ar
    11    11    12    1
    12    12    13    1
    13     2    16    1
    14    16    23    1
    15    23    24    1
    16    24    25    1
    17    25    26    1
    18    26    27    1
    19    27    28    1
    20    16    17    1
    21    17    18   ar
    22    18    19   ar
    23    19    20   ar
    24    20    21   ar
    25    21    22   ar
    26    11     6   ar
    27    28    24    1
    28    22    17   ar
    29    13    14    1
    30    13    15    1
@<TRIPOS>MOLECULE
*****
 28 30 0 0 0
SMALL
GASTEIGER

@<TRIPOS>ATOM
      1 C          -6.8451  -21.2743   20.1311 C.3     1  UNL1        0.1152
      2 N          -7.6469  -20.0114   20.2412 N.am    1  UNL1       -0.2740
      3 C          -8.7514  -19.7366   19.2641 C.2     1  UNL1        0.2303
      4 O          -9.0540  -20.7247   18.1769 O.2     1  UNL1       -0.2745
      5 C          -9.5532  -18.4737   19.3742 C.3     1  UNL1        0.1113
      6 C         -10.6966  -18.3932   20.3419 C.ar    1  UNL1       -0.0157
      7 C         -11.0674  -19.5904   21.1660 C.ar    1  UNL1       -0.0041
      8 C         -12.2107  -19.5098   22.1336 C.ar    1  UNL1       -0.0003
      9 C         -12.9832  -18.2320   22.2771 C.ar    1  UNL1       -0.0003
     10 C         -12.6124  -17.0348   21.4530 C.ar    1  UNL1       -0.0032
     11 C         -11.4691  -17.1154   20.4854 C.ar    1  UNL1       -0.0101
     12 C         -11.0982  -15.9182   19.6613 C.3     1  UNL1        0.0919
     13 N         -12.1314  -15.2480   18.8049 N.3     1  UNL1       -0.3175
     14 H         -12.4214  -15.8836   18.0618 H       1  UNL1        0.1192
     15 H         -11.7358  -14.4023   18.3940 H       1  UNL1        0.1192
     16 C          -7.3443  -19.0232   21.3284 C.3     1  UNL1        0.1138
     17 C          -8.2145  -18.9606   22.5485 C.ar    1  UNL1       -0.0029
     18 C          -8.6400  -17.6317   23.0988 C.ar    1  UNL1       -0.0026
     19 C          -9.5103  -17.5690   24.3190 C.ar    1  UNL1       -0.0003
     20 C          -9.9551  -18.8353   24.9888 C.ar    1  UNL1       -0.0000
     21 C          -9.5296  -20.1643   24.4384 C.ar    1  UNL1       -0.0003
     22 C          -8.6593  -20.2269   23.2183 C.ar    1  UNL1       -0.0026
     23 C          -6.1714  -18.0976   21.1954 C.3     1  UNL1        0.0967
     24 N          -4.7811  -18.6553   21.1163 N.3     1  UNL1       -0.2710
     25 C          -3.9788  -18.8489   19.8638 C.3     1  UNL1        0.0722
     26 C          -2.6509  -19.4306   20.2491 C.3     1  UNL1        0.0188
     27 C          -2.6326  -19.5965   21.7398 C.3     1  UNL1        0.0188
     28 C          -3.9491  -19.1174   22.2757 C.3     1  UNL1        0.0722
@<TRIPOS>BOND
     1     1     2    1
     2     2     3   am
     3     3     4    2
     4     3     5    1
     5     5     6    1
     6     6     7   ar
     7     7     8   ar
     8     8     9   ar
     9     9    10   ar
    10    10    11   ar
    11    11    12    1
    12    12    13    1
    13     2    16    1
    14    16    23    1
    15    23    24    1
    16    24    25    1
    17    25    26    1
    18    26    27    1
    19    27    28    1
    20    16    17    1
    21    17    18   ar
    22    18    19   ar
    23    19    20   ar
    24    20    21   ar
    25    21    22   ar
    26    11     6   ar
    27    28    24    1
    28    22    17   ar
    29    13    14    1
    30    13    15    1
