@<TRIPOS>MOLECULE
*****
 40 45 0 0 0
SMALL
GASTEIGER

@<TRIPOS>ATOM
      1 C           7.0849   -4.2469   22.6830 C.ar    1  UNL1        0.1669
      2 N           5.7394   -3.9111   22.1114 N.ar    1  UNL1       -0.2221
      3 C           5.9521   -3.2619   20.7760 C.ar    1  UNL1        0.1307
      4 C           4.9916   -2.7219   19.7582 C.ar    1  UNL1        0.0777
      5 C           5.5082   -2.1163   18.4868 C.ar    1  UNL1        0.0893
      6 CL          4.5476   -1.5763   17.4689 Cl      1  UNL1       -0.0794
      7 C           6.9850   -2.0508   18.2331 C.ar    1  UNL1        0.0863
      8 N           7.9455   -2.5909   19.2509 N.ar    1  UNL1       -0.3354
      9 C           7.4290   -3.1964   20.5223 C.ar    1  UNL1        0.1613
     10 N           8.1292   -3.8052   21.7009 N.ar    1  UNL1       -0.2080
     11 H           8.9149   -2.5479   19.0844 H       1  UNL1        0.1675
     12 C           6.9280   -4.2284   25.2763 C.ar    1  UNL1        0.1413
     13 C           7.1843   -4.8899   26.5979 C.ar    1  UNL1        0.0341
     14 C           7.8540   -6.2312   26.6481 C.ar    1  UNL1       -0.0031
     15 C           8.2673   -6.9110   25.3765 C.ar    1  UNL1       -0.0026
     16 C           8.0109   -6.2496   24.0548 C.ar    1  UNL1        0.0058
     17 C           7.3413   -4.9083   24.0047 C.ar    1  UNL1        0.0697
     18 C           6.9689   -1.6741   25.7492 C.3     1  UNL1        0.2525
     19 O           6.2583   -2.8872   25.2263 O.3     1  UNL1       -0.4713
     20 C           8.1104   -6.8926   27.9697 C.3     1  UNL1        0.0994
     21 N           8.1669   -6.0689   29.2220 N.3     1  UNL1       -0.2646
     22 C           9.4795   -5.5259   29.7040 C.3     1  UNL1        0.1049
     23 C           9.5359   -4.7022   30.9564 C.3     1  UNL1        0.1595
     24 O           8.2798   -4.4215   31.7268 O.3     1  UNL1       -0.3508
     25 C           6.9672   -4.9645   31.2448 C.3     1  UNL1        0.1595
     26 C           6.9108   -5.7882   29.9924 C.3     1  UNL1        0.1049
     27 N           3.5146   -2.7873   20.0118 N.pl3   1  UNL1       -0.3313
     28 H           3.0305   -3.6352   19.8853 H       1  UNL1        0.1469
     29 C           2.7752   -1.5610   20.4583 C.3     1  UNL1        0.0819
     30 C           3.0531   -0.7673   21.7003 C.3     1  UNL1        0.0983
     31 C           2.0777    0.3712   21.7508 C.3     1  UNL1        0.0323
     32 C           0.9307    1.0192   21.0336 C.2     1  UNL1       -0.0304
     33 C           0.6528    0.2255   19.7915 C.2     1  UNL1       -0.0294
     34 C           1.6282   -0.9131   19.7410 C.3     1  UNL1        0.0404
     35 C           2.5088   -0.8230   20.9519 C.3     1  UNL1        0.0109
     36 C           4.1191   -1.0606   22.7141 C.2     1  UNL1        0.2208
     37 N           3.9101   -2.1439   23.7303 N.am    1  UNL1       -0.3288
     38 O           5.3942   -0.2705   22.7116 O.2     1  UNL1       -0.2753
     39 H           3.0732   -2.6625   23.7319 H       1  UNL1        0.1449
     40 H           4.6097   -2.3364   24.3956 H       1  UNL1        0.1449
@<TRIPOS>BOND
     1    18    19    1
     2    19    12    1
     3    12    13   ar
     4    13    14   ar
     5    14    20    1
     6    20    21    1
     7    21    22    1
     8    22    23    1
     9    23    24    1
    10    24    25    1
    11    25    26    1
    12    14    15   ar
    13    15    16   ar
    14    16    17   ar
    15    17     1    1
    16     1     2   ar
    17     2     3   ar
    18     3     4   ar
    19     4    27    1
    20    29    27    1
    21    29    30    1
    22    30    36    1
    23    36    37   am
    24    36    38    2
    25    30    31    1
    26    31    32    1
    27    32    33    2
    28    34    33    1
    29    34    35    1
    30     4     5   ar
    31     5     6    1
    32     5     7   ar
    33     7     8   ar
    34     8     9   ar
    35     9    10   ar
    36    17    12   ar
    37    10     1   ar
    38    26    21    1
    39     9     3    1
    40    34    29    1
    41    35    31    1
    42    27    28    1
    43    37    39    1
    44    37    40    1
    45     8    11    1
@<TRIPOS>MOLECULE
*****
 40 45 0 0 0
SMALL
GASTEIGER

@<TRIPOS>ATOM
      1 C          -0.8132    2.5556   20.3788 C.ar    1  UNL1        0.1669
      2 N          -2.1330    2.5157   21.0904 N.ar    1  UNL1       -0.2221
      3 C          -2.9836    3.6278   20.5522 C.ar    1  UNL1        0.1307
      4 C          -4.3787    4.0722   20.8781 C.ar    1  UNL1        0.0777
      5 C          -4.9796    5.2440   20.1597 C.ar    1  UNL1        0.0893
      6 CL         -6.3747    5.6884   20.4856 Cl      1  UNL1       -0.0794
      7 C          -4.1854    5.9712   19.1156 C.ar    1  UNL1        0.0863
      8 N          -2.7903    5.5268   18.7897 N.ar    1  UNL1       -0.3354
      9 C          -2.1894    4.3551   19.5080 C.ar    1  UNL1        0.1613
     10 N          -0.8480    3.6924   19.4008 N.ar    1  UNL1       -0.2080
     11 H          -2.2691    6.0041   18.1043 H       1  UNL1        0.1675
     12 C           1.2481    1.8249   21.7814 C.ar    1  UNL1        0.1413
     13 C           2.4005    0.8918   22.0079 C.ar    1  UNL1        0.0341
     14 C           2.6441   -0.2437   21.0585 C.ar    1  UNL1       -0.0031
     15 C           1.7352   -0.4461   19.8825 C.ar    1  UNL1       -0.0026
     16 C           0.5827    0.4871   19.6560 C.ar    1  UNL1        0.0058
     17 C           0.3392    1.6225   20.6054 C.ar    1  UNL1        0.0697
     18 C           0.1508    2.7518   23.9463 C.3     1  UNL1        0.2525
     19 O           1.0047    2.9604   22.7308 O.3     1  UNL1       -0.4713
     20 C           3.7965   -1.1767   21.2851 C.3     1  UNL1        0.0994
     21 N           4.5939   -1.6806   20.1188 N.3     1  UNL1       -0.2646
     22 C           5.5950   -0.7847   19.4516 C.3     1  UNL1        0.1049
     23 C           6.3924   -1.2886   18.2853 C.3     1  UNL1        0.1595
     24 O           6.1888   -2.6885   17.7862 O.3     1  UNL1       -0.3508
     25 C           5.1877   -3.5844   18.4535 C.3     1  UNL1        0.1595
     26 C           4.3903   -3.0804   19.6198 C.3     1  UNL1        0.1049
     27 N          -5.1729    3.3450   21.9223 N.pl3   1  UNL1       -0.3313
     28 H          -5.8097    2.6429   21.6561 H       1  UNL1        0.1469
     29 C          -4.9970    3.6875   23.3720 C.3     1  UNL1        0.0819
     30 C          -6.0194    4.3407   24.2540 C.3     1  UNL1        0.0983
     31 C          -5.4221    4.4938   25.6214 C.3     1  UNL1        0.0323
     32 C          -4.1929    4.2432   26.4437 C.2     1  UNL1       -0.0304
     33 C          -3.1705    3.5899   25.5617 C.2     1  UNL1       -0.0294
     34 C          -3.7678    3.4368   24.1943 C.3     1  UNL1        0.0404
     35 C          -5.1594    3.9954   24.2312 C.3     1  UNL1        0.0109
     36 C          -7.3973    4.7662   23.8410 C.2     1  UNL1        0.2208
     37 N          -8.4522    3.7340   23.5732 N.am    1  UNL1       -0.3288
     38 O          -7.7202    6.2238   23.6960 O.2     1  UNL1       -0.2753
     39 H          -8.2403    2.7774   23.6684 H       1  UNL1        0.1449
     40 H          -9.3566    4.0133   23.3022 H       1  UNL1        0.1449
@<TRIPOS>BOND
     1    18    19    1
     2    19    12    1
     3    12    13   ar
     4    13    14   ar
     5    14    20    1
     6    20    21    1
     7    21    22    1
     8    22    23    1
     9    23    24    1
    10    24    25    1
    11    25    26    1
    12    14    15   ar
    13    15    16   ar
    14    16    17   ar
    15    17     1    1
    16     1     2   ar
    17     2     3   ar
    18     3     4   ar
    19     4    27    1
    20    29    27    1
    21    29    30    1
    22    30    36    1
    23    36    37   am
    24    36    38    2
    25    30    31    1
    26    31    32    1
    27    32    33    2
    28    34    33    1
    29    34    35    1
    30     4     5   ar
    31     5     6    1
    32     5     7   ar
    33     7     8   ar
    34     8     9   ar
    35     9    10   ar
    36    17    12   ar
    37    10     1   ar
    38    26    21    1
    39     9     3    1
    40    34    29    1
    41    35    31    1
    42    27    28    1
    43    37    39    1
    44    37    40    1
    45     8    11    1
@<TRIPOS>MOLECULE
*****
 40 45 0 0 0
SMALL
GASTEIGER

@<TRIPOS>ATOM
      1 C           6.9828   -4.4329   23.0642 C.ar    1  UNL1        0.1669
      2 N           6.4639   -4.7203   24.4420 N.ar    1  UNL1       -0.2221
      3 C           7.3289   -5.7840   25.0504 C.ar    1  UNL1        0.1307
      4 C           7.2933   -6.4635   26.3872 C.ar    1  UNL1        0.0777
      5 C           8.3113   -7.5131   26.7223 C.ar    1  UNL1        0.0893
      6 CL          8.2758   -8.1926   28.0592 Cl      1  UNL1       -0.0794
      7 C           9.3647   -7.8831   25.7207 C.ar    1  UNL1        0.0863
      8 N           9.4002   -7.2036   24.3839 N.ar    1  UNL1       -0.3354
      9 C           8.3823   -6.1541   24.0488 C.ar    1  UNL1        0.1613
     10 N           8.1684   -5.3190   22.8212 N.ar    1  UNL1       -0.2080
     11 H          10.0916   -7.4465   23.7265 H       1  UNL1        0.1675
     12 C           6.4003   -1.9765   22.4504 C.ar    1  UNL1        0.1413
     13 C           5.8331   -0.9783   21.4850 C.ar    1  UNL1        0.0341
     14 C           5.2812   -1.4382   20.1682 C.ar    1  UNL1       -0.0031
     15 C           5.2965   -2.8963   19.8168 C.ar    1  UNL1       -0.0026
     16 C           5.8637   -3.8945   20.7822 C.ar    1  UNL1        0.0058
     17 C           6.4156   -3.4346   22.0989 C.ar    1  UNL1        0.0697
     18 C           6.6062   -0.1541   24.2906 C.3     1  UNL1        0.2525
     19 O           6.9521   -1.5165   23.7671 O.3     1  UNL1       -0.4713
     20 C           4.7140   -0.4399   19.2029 C.3     1  UNL1        0.0994
     21 N           3.2550   -0.0950   19.2516 N.3     1  UNL1       -0.2646
     22 C           2.3524   -0.7890   20.2281 C.3     1  UNL1        0.1049
     23 C           0.8934   -0.4440   20.2767 C.3     1  UNL1        0.1595
     24 O           0.3370    0.5950   19.3487 O.3     1  UNL1       -0.3508
     25 C           1.2397    1.2890   18.3722 C.3     1  UNL1        0.1595
     26 C           2.6987    0.9440   18.3236 C.3     1  UNL1        0.1049
     27 N           6.2399   -6.0935   27.3889 N.pl3   1  UNL1       -0.3313
     28 H           5.3168   -6.4161   27.2744 H       1  UNL1        0.1469
     29 C           6.5929   -5.2322   28.5651 C.3     1  UNL1        0.0819
     30 C           6.7999   -3.7468   28.5395 C.3     1  UNL1        0.0983
     31 C           7.1358   -3.3015   29.9319 C.3     1  UNL1        0.0323
     32 C           7.3438   -3.7742   31.3402 C.2     1  UNL1       -0.0304
     33 C           7.1368   -5.2596   31.3658 C.2     1  UNL1       -0.0294
     34 C           6.8009   -5.7049   29.9734 C.3     1  UNL1        0.0404
     35 C           6.8002   -4.4947   29.0871 C.3     1  UNL1        0.0109
     36 C           6.6902   -2.8619   27.3332 C.2     1  UNL1        0.2208
     37 N           7.8934   -2.6150   26.4722 N.am    1  UNL1       -0.3288
     38 O           5.3772   -2.2240   26.9879 O.2     1  UNL1       -0.2753
     39 H           8.7551   -3.0337   26.6989 H       1  UNL1        0.1449
     40 H           7.8214   -2.0343   25.6805 H       1  UNL1        0.1449
@<TRIPOS>BOND
     1    18    19    1
     2    19    12    1
     3    12    13   ar
     4    13    14   ar
     5    14    20    1
     6    20    21    1
     7    21    22    1
     8    22    23    1
     9    23    24    1
    10    24    25    1
    11    25    26    1
    12    14    15   ar
    13    15    16   ar
    14    16    17   ar
    15    17     1    1
    16     1     2   ar
    17     2     3   ar
    18     3     4   ar
    19     4    27    1
    20    29    27    1
    21    29    30    1
    22    30    36    1
    23    36    37   am
    24    36    38    2
    25    30    31    1
    26    31    32    1
    27    32    33    2
    28    34    33    1
    29    34    35    1
    30     4     5   ar
    31     5     6    1
    32     5     7   ar
    33     7     8   ar
    34     8     9   ar
    35     9    10   ar
    36    17    12   ar
    37    10     1   ar
    38    26    21    1
    39     9     3    1
    40    34    29    1
    41    35    31    1
    42    27    28    1
    43    37    39    1
    44    37    40    1
    45     8    11    1
@<TRIPOS>MOLECULE
*****
 40 45 0 0 0
SMALL
GASTEIGER

@<TRIPOS>ATOM
      1 C          -0.8883    2.4860   20.6496 C.ar    1  UNL1        0.1669
      2 N          -0.8725    3.2532   21.9384 N.ar    1  UNL1       -0.2221
      3 C          -2.1686    4.0001   22.0492 C.ar    1  UNL1        0.1307
      4 C          -2.7105    4.9190   23.1036 C.ar    1  UNL1        0.0777
      5 C          -4.0694    5.5323   22.9376 C.ar    1  UNL1        0.0893
      6 CL         -4.6114    6.4513   23.9921 Cl      1  UNL1       -0.0794
      7 C          -4.8862    5.2266   21.7173 C.ar    1  UNL1        0.0863
      8 N          -4.3443    4.3076   20.6628 N.ar    1  UNL1       -0.3354
      9 C          -2.9855    3.6944   20.8288 C.ar    1  UNL1        0.1613
     10 N          -2.1942    2.7586   19.9638 N.ar    1  UNL1       -0.2080
     11 H          -4.8804    4.1070   19.8619 H       1  UNL1        0.1675
     12 C           1.1459    2.1051   19.0790 C.ar    1  UNL1        0.1413
     13 C           2.2433    1.2204   18.5661 C.ar    1  UNL1        0.0341
     14 C           2.4039   -0.1680   19.1108 C.ar    1  UNL1       -0.0031
     15 C           1.4671   -0.6717   20.1684 C.ar    1  UNL1       -0.0026
     16 C           0.3697    0.2130   20.6813 C.ar    1  UNL1        0.0058
     17 C           0.2091    1.6014   20.1367 C.ar    1  UNL1        0.0697
     18 C           2.1935    4.2833   18.1262 C.3     1  UNL1        0.2525
     19 O           0.9854    3.4934   18.5343 O.3     1  UNL1       -0.4713
     20 C           3.5014   -1.0526   18.5978 C.3     1  UNL1        0.0994
     21 N           3.9480   -2.2369   19.4027 N.3     1  UNL1       -0.2646
     22 C           4.8987   -2.0500   20.5478 C.3     1  UNL1        0.1049
     23 C           5.3453   -3.2343   21.3527 C.3     1  UNL1        0.1595
     24 O           4.8412   -4.6056   21.0126 O.3     1  UNL1       -0.3508
     25 C           3.8905   -4.7925   19.8675 C.3     1  UNL1        0.1595
     26 C           3.4439   -3.6081   19.0625 C.3     1  UNL1        0.1049
     27 N          -1.8937    5.2248   24.3240 N.pl3   1  UNL1       -0.3313
     28 H          -1.5367    6.1317   24.4629 H       1  UNL1        0.1469
     29 C          -1.6208    4.1487   25.3328 C.3     1  UNL1        0.0819
     30 C          -2.6087    3.5872   26.3119 C.3     1  UNL1        0.0983
     31 C          -1.9106    2.5367   27.1238 C.3     1  UNL1        0.0323
     32 C          -0.6020    1.8333   27.3305 C.2     1  UNL1       -0.0304
     33 C           0.3859    2.3948   26.3514 C.2     1  UNL1       -0.0294
     34 C          -0.3122    3.4453   25.5395 C.3     1  UNL1        0.0404
     35 C          -1.7315    3.5330   26.0168 C.3     1  UNL1        0.0109
     36 C          -4.0429    4.0031   26.4542 C.2     1  UNL1        0.2208
     37 N          -4.4272    5.0340   27.4737 N.am    1  UNL1       -0.3288
     38 O          -5.0927    3.3880   25.5770 O.2     1  UNL1       -0.2753
     39 H          -3.7381    5.4377   28.0495 H       1  UNL1        0.1449
     40 H          -5.3685    5.3070   27.5671 H       1  UNL1        0.1449
@<TRIPOS>BOND
     1    18    19    1
     2    19    12    1
     3    12    13   ar
     4    13    14   ar
     5    14    20    1
     6    20    21    1
     7    21    22    1
     8    22    23    1
     9    23    24    1
    10    24    25    1
    11    25    26    1
    12    14    15   ar
    13    15    16   ar
    14    16    17   ar
    15    17     1    1
    16     1     2   ar
    17     2     3   ar
    18     3     4   ar
    19     4    27    1
    20    29    27    1
    21    29    30    1
    22    30    36    1
    23    36    37   am
    24    36    38    2
    25    30    31    1
    26    31    32    1
    27    32    33    2
    28    34    33    1
    29    34    35    1
    30     4     5   ar
    31     5     6    1
    32     5     7   ar
    33     7     8   ar
    34     8     9   ar
    35     9    10   ar
    36    17    12   ar
    37    10     1   ar
    38    26    21    1
    39     9     3    1
    40    34    29    1
    41    35    31    1
    42    27    28    1
    43    37    39    1
    44    37    40    1
    45     8    11    1
@<TRIPOS>MOLECULE
*****
 40 45 0 0 0
SMALL
GASTEIGER

@<TRIPOS>ATOM
      1 C           0.8380    3.0806   18.8123 C.ar    1  UNL1        0.1669
      2 N           1.3484    1.7195   18.4423 N.ar    1  UNL1       -0.2221
      3 C           2.8340    1.8157   18.2589 C.ar    1  UNL1        0.1307
      4 C           3.8682    0.7932   17.8914 C.ar    1  UNL1        0.0777
      5 C           5.3102    1.1913   17.7806 C.ar    1  UNL1        0.0893
      6 CL          6.3444    0.1688   17.4130 Cl      1  UNL1       -0.0794
      7 C           5.7180    2.6117   18.0374 C.ar    1  UNL1        0.0863
      8 N           4.6838    3.6342   18.4049 N.ar    1  UNL1       -0.3354
      9 C           3.2418    3.2362   18.5157 C.ar    1  UNL1        0.1613
     10 N           2.0082    4.0180   18.8578 N.ar    1  UNL1       -0.2080
     11 H           4.9515    4.5665   18.5735 H       1  UNL1        0.1675
     12 C          -1.2944    2.8617   20.2803 C.ar    1  UNL1        0.1413
     13 C          -2.7240    3.2223   20.5564 C.ar    1  UNL1        0.0341
     14 C          -3.4508    4.1622   19.6408 C.ar    1  UNL1       -0.0031
     15 C          -2.7480    4.7417   18.4491 C.ar    1  UNL1       -0.0026
     16 C          -1.3184    4.3811   18.1730 C.ar    1  UNL1        0.0058
     17 C          -0.5916    3.4411   19.0885 C.ar    1  UNL1        0.0697
     18 C           0.0389    2.4337   22.4687 C.3     1  UNL1        0.2525
     19 O          -0.5677    1.9218   21.1959 O.3     1  UNL1       -0.4713
     20 C          -4.8804    4.5228   19.9170 C.3     1  UNL1        0.0994
     21 N          -5.3032    4.9029   21.3051 N.3     1  UNL1       -0.2646
     22 C          -6.3911    4.1343   21.9947 C.3     1  UNL1        0.1049
     23 C          -6.8139    4.5145   23.3828 C.3     1  UNL1        0.1595
     24 O          -6.1488    5.6634   24.0812 O.3     1  UNL1       -0.3508
     25 C          -5.0609    6.4320   23.3916 C.3     1  UNL1        0.1595
     26 C          -4.6381    6.0518   22.0034 C.3     1  UNL1        0.1049
     27 N           3.4604   -0.6273   17.6346 N.pl3   1  UNL1       -0.3313
     28 H           3.0179   -0.8671   16.7884 H       1  UNL1        0.1469
     29 C           3.7268   -1.6824   18.6669 C.3     1  UNL1        0.0819
     30 C           3.1353   -1.7374   20.0442 C.3     1  UNL1        0.0983
     31 C           3.6744   -2.9567   20.7318 C.3     1  UNL1        0.0323
     32 C           4.5791   -4.1419   20.5682 C.2     1  UNL1       -0.0304
     33 C           5.1706   -4.0868   19.1909 C.2     1  UNL1       -0.0294
     34 C           4.6315   -2.8676   18.5033 C.3     1  UNL1        0.0404
     35 C           3.7068   -2.1691   19.4556 C.3     1  UNL1        0.0109
     36 C           2.1735   -0.7471   20.6310 C.2     1  UNL1        0.2208
     37 N           0.7359   -0.7537   20.2030 N.am    1  UNL1       -0.3288
     38 O           2.6493    0.2498   21.6458 O.2     1  UNL1       -0.2753
     39 H           0.4236   -1.4080   19.5369 H       1  UNL1        0.1449
     40 H           0.1046   -0.1037   20.5881 H       1  UNL1        0.1449
@<TRIPOS>BOND
     1    18    19    1
     2    19    12    1
     3    12    13   ar
     4    13    14   ar
     5    14    20    1
     6    20    21    1
     7    21    22    1
     8    22    23    1
     9    23    24    1
    10    24    25    1
    11    25    26    1
    12    14    15   ar
    13    15    16   ar
    14    16    17   ar
    15    17     1    1
    16     1     2   ar
    17     2     3   ar
    18     3     4   ar
    19     4    27    1
    20    29    27    1
    21    29    30    1
    22    30    36    1
    23    36    37   am
    24    36    38    2
    25    30    31    1
    26    31    32    1
    27    32    33    2
    28    34    33    1
    29    34    35    1
    30     4     5   ar
    31     5     6    1
    32     5     7   ar
    33     7     8   ar
    34     8     9   ar
    35     9    10   ar
    36    17    12   ar
    37    10     1   ar
    38    26    21    1
    39     9     3    1
    40    34    29    1
    41    35    31    1
    42    27    28    1
    43    37    39    1
    44    37    40    1
    45     8    11    1
@<TRIPOS>MOLECULE
*****
 40 45 0 0 0
SMALL
GASTEIGER

@<TRIPOS>ATOM
      1 C           4.4651   -1.3595   26.1015 C.ar    1  UNL1        0.1669
      2 N           3.4703   -1.1389   27.2023 N.ar    1  UNL1       -0.2221
      3 C           4.2165   -1.1137   28.5032 C.ar    1  UNL1        0.1307
      4 C           3.7583   -0.9306   29.9197 C.ar    1  UNL1        0.0777
      5 C           4.7561   -0.9526   31.0395 C.ar    1  UNL1        0.0893
      6 CL          4.2978   -0.7694   32.4561 Cl      1  UNL1       -0.0794
      7 C           6.2120   -1.1577   30.7429 C.ar    1  UNL1        0.0863
      8 N           6.6703   -1.3408   29.3264 N.ar    1  UNL1       -0.3354
      9 C           5.6725   -1.3189   28.2066 C.ar    1  UNL1        0.1613
     10 N           5.8262   -1.4708   26.7222 N.ar    1  UNL1       -0.2080
     11 H           7.6259   -1.4755   29.1317 H       1  UNL1        0.1675
     12 C           3.3402   -0.3811   23.9738 C.ar    1  UNL1        0.1413
     13 C           3.0287   -0.4742   22.5095 C.ar    1  UNL1        0.0341
     14 C           3.5308   -1.6388   21.7084 C.ar    1  UNL1       -0.0031
     15 C           4.3442   -2.7103   22.3718 C.ar    1  UNL1       -0.0026
     16 C           4.6557   -2.6172   23.8362 C.ar    1  UNL1        0.0058
     17 C           4.1537   -1.4526   24.6372 C.ar    1  UNL1        0.0697
     18 C           3.4364    2.1446   24.5755 C.3     1  UNL1        0.2525
     19 O           2.8381    0.7836   24.7748 O.3     1  UNL1       -0.4713
     20 C           3.2193   -1.7319   20.2441 C.3     1  UNL1        0.0994
     21 N           4.3059   -1.5228   19.2315 N.3     1  UNL1       -0.2646
     22 C           4.3044   -0.2929   18.3728 C.3     1  UNL1        0.1049
     23 C           5.3911   -0.0838   17.3602 C.3     1  UNL1        0.1595
     24 O           6.4794   -1.1047   17.2063 O.3     1  UNL1       -0.3508
     25 C           6.4809   -2.3345   18.0649 C.3     1  UNL1        0.1595
     26 C           5.3941   -2.5436   19.0776 C.3     1  UNL1        0.1049
     27 N           2.3023   -0.7254   30.2165 N.pl3   1  UNL1       -0.3313
     28 H           1.7223   -1.5007   30.3951 H       1  UNL1        0.1469
     29 C           1.7299    0.6608   30.2411 C.3     1  UNL1        0.0819
     30 C           0.7302    1.2192   29.2722 C.3     1  UNL1        0.0983
     31 C           0.4392    2.6356   29.6712 C.3     1  UNL1        0.0323
     32 C           0.7661    3.7069   30.6690 C.2     1  UNL1       -0.0304
     33 C           1.7658    3.1485   31.6379 C.2     1  UNL1       -0.0294
     34 C           2.0568    1.7321   31.2389 C.3     1  UNL1        0.0404
     35 C           1.2369    1.4151   30.0234 C.3     1  UNL1        0.0109
     36 C           0.1273    0.4894   28.1086 C.2     1  UNL1        0.2208
     37 N           0.7607    0.5869   26.7524 N.am    1  UNL1       -0.3288
     38 O          -1.1089   -0.3379   28.3012 O.2     1  UNL1       -0.2753
     39 H           1.5721    1.1300   26.6260 H       1  UNL1        0.1449
     40 H           0.3650    0.1079   25.9887 H       1  UNL1        0.1449
@<TRIPOS>BOND
     1    18    19    1
     2    19    12    1
     3    12    13   ar
     4    13    14   ar
     5    14    20    1
     6    20    21    1
     7    21    22    1
     8    22    23    1
     9    23    24    1
    10    24    25    1
    11    25    26    1
    12    14    15   ar
    13    15    16   ar
    14    16    17   ar
    15    17     1    1
    16     1     2   ar
    17     2     3   ar
    18     3     4   ar
    19     4    27    1
    20    29    27    1
    21    29    30    1
    22    30    36    1
    23    36    37   am
    24    36    38    2
    25    30    31    1
    26    31    32    1
    27    32    33    2
    28    34    33    1
    29    34    35    1
    30     4     5   ar
    31     5     6    1
    32     5     7   ar
    33     7     8   ar
    34     8     9   ar
    35     9    10   ar
    36    17    12   ar
    37    10     1   ar
    38    26    21    1
    39     9     3    1
    40    34    29    1
    41    35    31    1
    42    27    28    1
    43    37    39    1
    44    37    40    1
    45     8    11    1
@<TRIPOS>MOLECULE
*****
 40 45 0 0 0
SMALL
GASTEIGER

@<TRIPOS>ATOM
      1 C           3.1160    2.1388   32.3744 C.ar    1  UNL1        0.1669
      2 N           3.2951    2.4877   33.8222 N.ar    1  UNL1       -0.2221
      3 C           2.2934    3.5484   34.1707 C.ar    1  UNL1        0.1307
      4 C           2.0049    4.2747   35.4511 C.ar    1  UNL1        0.0777
      5 C           0.9182    5.3076   35.4989 C.ar    1  UNL1        0.0893
      6 CL          0.6297    6.0339   36.7794 Cl      1  UNL1       -0.0794
      7 C           0.1201    5.6143   34.2665 C.ar    1  UNL1        0.0863
      8 N           0.4086    4.8880   32.9862 N.ar    1  UNL1       -0.3354
      9 C           1.4952    3.8551   32.9383 C.ar    1  UNL1        0.1613
     10 N           2.0036    2.9839   31.8281 N.ar    1  UNL1       -0.2080
     11 H          -0.1153    5.0893   32.1773 H       1  UNL1        0.1675
     12 C           3.2083    0.1312   30.7280 C.ar    1  UNL1        0.1413
     13 C           4.0023   -0.8845   29.9611 C.ar    1  UNL1        0.0341
     14 C           5.4979   -0.9081   30.0737 C.ar    1  UNL1       -0.0031
     15 C           6.1995    0.0839   30.9533 C.ar    1  UNL1       -0.0026
     16 C           5.4055    1.0995   31.7201 C.ar    1  UNL1        0.0058
     17 C           3.9099    1.1232   31.6075 C.ar    1  UNL1        0.0697
     18 C           1.0558   -0.1152   29.2941 C.3     1  UNL1        0.2525
     19 O           1.7127    0.1548   30.6153 O.3     1  UNL1       -0.4713
     20 C           6.2918   -1.9238   29.3068 C.3     1  UNL1        0.0994
     21 N           6.5159   -3.2907   29.8824 N.3     1  UNL1       -0.2646
     22 C           6.7082   -4.4661   28.9706 C.3     1  UNL1        0.1049
     23 C           6.9323   -5.8330   29.5462 C.3     1  UNL1        0.1595
     24 O           6.9641   -6.0246   31.0336 O.3     1  UNL1       -0.3508
     25 C           6.7718   -4.8491   31.9454 C.3     1  UNL1        0.1595
     26 C           6.5476   -3.4822   31.3698 C.3     1  UNL1        0.1049
     27 N           2.8031    3.9681   36.6836 N.pl3   1  UNL1       -0.3313
     28 H           3.5931    4.5116   36.9062 H       1  UNL1        0.1469
     29 C           2.3974    2.8334   37.5767 C.3     1  UNL1        0.0819
     30 C           3.1338    1.5375   37.7455 C.3     1  UNL1        0.0983
     31 C           2.3757    0.6985   38.7310 C.3     1  UNL1        0.0323
     32 C           1.1625    0.6604   39.6123 C.2     1  UNL1       -0.0304
     33 C           0.4261    1.9562   39.4436 C.2     1  UNL1       -0.0294
     34 C           1.1842    2.7952   38.4580 C.3     1  UNL1        0.0404
     35 C           2.3891    2.0180   38.0176 C.3     1  UNL1        0.0109
     36 C           4.4052    1.1489   37.0507 C.2     1  UNL1        0.2208
     37 N           4.3539    0.3218   35.8004 N.am    1  UNL1       -0.3288
     38 O           5.7277    1.5874   37.6062 O.2     1  UNL1       -0.2753
     39 H           3.4859    0.0340   35.4358 H       1  UNL1        0.1449
     40 H           5.1883    0.0667   35.3444 H       1  UNL1        0.1449
@<TRIPOS>BOND
     1    18    19    1
     2    19    12    1
     3    12    13   ar
     4    13    14   ar
     5    14    20    1
     6    20    21    1
     7    21    22    1
     8    22    23    1
     9    23    24    1
    10    24    25    1
    11    25    26    1
    12    14    15   ar
    13    15    16   ar
    14    16    17   ar
    15    17     1    1
    16     1     2   ar
    17     2     3   ar
    18     3     4   ar
    19     4    27    1
    20    29    27    1
    21    29    30    1
    22    30    36    1
    23    36    37   am
    24    36    38    2
    25    30    31    1
    26    31    32    1
    27    32    33    2
    28    34    33    1
    29    34    35    1
    30     4     5   ar
    31     5     6    1
    32     5     7   ar
    33     7     8   ar
    34     8     9   ar
    35     9    10   ar
    36    17    12   ar
    37    10     1   ar
    38    26    21    1
    39     9     3    1
    40    34    29    1
    41    35    31    1
    42    27    28    1
    43    37    39    1
    44    37    40    1
    45     8    11    1
@<TRIPOS>MOLECULE
*****
 40 45 0 0 0
SMALL
GASTEIGER

@<TRIPOS>ATOM
      1 C           6.7247   -3.9844   23.0693 C.ar    1  UNL1        0.1669
      2 N           6.2539   -4.3820   24.4369 N.ar    1  UNL1       -0.2221
      3 C           7.0937   -5.5358   24.8988 C.ar    1  UNL1        0.1307
      4 C           7.0850   -6.3400   26.1650 C.ar    1  UNL1        0.0777
      5 C           8.0661   -7.4596   26.3491 C.ar    1  UNL1        0.0893
      6 CL          8.0574   -8.2639   27.6153 Cl      1  UNL1       -0.0794
      7 C           9.0558   -7.7751   25.2671 C.ar    1  UNL1        0.0863
      8 N           9.0645   -6.9710   24.0009 N.ar    1  UNL1       -0.3354
      9 C           8.0834   -5.8513   23.8168 C.ar    1  UNL1        0.1613
     10 N           7.8554   -4.8924   22.6860 N.ar    1  UNL1       -0.2080
     11 H           9.7141   -7.1780   23.2907 H       1  UNL1        0.1675
     12 C           5.5044   -3.1826   20.9203 C.ar    1  UNL1        0.1413
     13 C           4.9430   -2.0718   20.0830 C.ar    1  UNL1        0.0341
     14 C           5.0405   -0.6521   20.5573 C.ar    1  UNL1       -0.0031
     15 C           5.6994   -0.3431   21.8689 C.ar    1  UNL1       -0.0026
     16 C           6.2608   -1.4539   22.7062 C.ar    1  UNL1        0.0058
     17 C           6.1633   -2.8736   22.2319 C.ar    1  UNL1        0.0697
     18 C           4.7576   -4.9102   19.1293 C.3     1  UNL1        0.2525
     19 O           5.4068   -4.6022   20.4460 O.3     1  UNL1       -0.4713
     20 C           4.4792    0.4586   19.7199 C.3     1  UNL1        0.0994
     21 N           2.9995    0.7034   19.6932 N.3     1  UNL1       -0.2646
     22 C           2.3858    1.4658   18.5565 C.3     1  UNL1        0.1049
     23 C           0.9062    1.7105   18.5298 C.3     1  UNL1        0.1595
     24 O           0.0401    1.1928   19.6399 O.3     1  UNL1       -0.3508
     25 C           0.6539    0.4304   20.7765 C.3     1  UNL1        0.1595
     26 C           2.1336    0.1857   20.8032 C.3     1  UNL1        0.1049
     27 N           6.0952   -6.0245   27.2471 N.pl3   1  UNL1       -0.3313
     28 H           5.1687   -6.3498   27.1769 H       1  UNL1        0.1469
     29 C           6.5172   -5.2135   28.4363 C.3     1  UNL1        0.0819
     30 C           6.6890   -3.7238   28.4713 C.3     1  UNL1        0.0983
     31 C           7.1195   -3.3393   29.8559 C.3     1  UNL1        0.0323
     32 C           7.4437   -3.8755   31.2187 C.2     1  UNL1       -0.0304
     33 C           7.2718   -5.3652   31.1837 C.2     1  UNL1       -0.0294
     34 C           6.8414   -5.7497   29.7991 C.3     1  UNL1        0.0404
     35 C           6.7472   -4.4976   28.9785 C.3     1  UNL1        0.0109
     36 C           6.4691   -2.7836   27.3234 C.2     1  UNL1        0.2208
     37 N           5.0783   -2.5149   26.8299 N.am    1  UNL1       -0.3288
     38 O           7.6399   -2.1121   26.6690 O.2     1  UNL1       -0.2753
     39 H           4.3099   -2.9556   27.2594 H       1  UNL1        0.1449
     40 H           4.9339   -1.8978   26.0765 H       1  UNL1        0.1449
@<TRIPOS>BOND
     1    18    19    1
     2    19    12    1
     3    12    13   ar
     4    13    14   ar
     5    14    20    1
     6    20    21    1
     7    21    22    1
     8    22    23    1
     9    23    24    1
    10    24    25    1
    11    25    26    1
    12    14    15   ar
    13    15    16   ar
    14    16    17   ar
    15    17     1    1
    16     1     2   ar
    17     2     3   ar
    18     3     4   ar
    19     4    27    1
    20    29    27    1
    21    29    30    1
    22    30    36    1
    23    36    37   am
    24    36    38    2
    25    30    31    1
    26    31    32    1
    27    32    33    2
    28    34    33    1
    29    34    35    1
    30     4     5   ar
    31     5     6    1
    32     5     7   ar
    33     7     8   ar
    34     8     9   ar
    35     9    10   ar
    36    17    12   ar
    37    10     1   ar
    38    26    21    1
    39     9     3    1
    40    34    29    1
    41    35    31    1
    42    27    28    1
    43    37    39    1
    44    37    40    1
    45     8    11    1
@<TRIPOS>MOLECULE
*****
 40 45 0 0 0
SMALL
GASTEIGER

@<TRIPOS>ATOM
      1 C           4.2751   -1.2266   24.1611 C.ar    1  UNL1        0.1669
      2 N           3.5679   -1.5128   22.8696 N.ar    1  UNL1       -0.2221
      3 C           4.5913   -1.9673   21.8716 C.ar    1  UNL1        0.1307
      4 C           4.4763   -2.3853   20.4356 C.ar    1  UNL1        0.0777
      5 C           5.7011   -2.7980   19.6742 C.ar    1  UNL1        0.0893
      6 CL          5.5862   -3.2160   18.2382 Cl      1  UNL1       -0.0794
      7 C           7.0408   -2.7926   20.3488 C.ar    1  UNL1        0.0863
      8 N           7.1558   -2.3745   21.7848 N.ar    1  UNL1       -0.3354
      9 C           5.9310   -1.9619   22.5462 C.ar    1  UNL1        0.1613
     10 N           5.7356   -1.5041   23.9612 N.ar    1  UNL1       -0.2080
     11 H           8.0351   -2.3710   22.2275 H       1  UNL1        0.1675
     12 C           2.7555    0.4684   25.4131 C.ar    1  UNL1        0.1413
     13 C           2.1149    0.9480   26.6819 C.ar    1  UNL1        0.0341
     14 C           2.3530    0.2121   27.9671 C.ar    1  UNL1       -0.0031
     15 C           3.2319   -1.0033   27.9837 C.ar    1  UNL1       -0.0026
     16 C           3.8726   -1.4828   26.7149 C.ar    1  UNL1        0.0058
     17 C           3.6344   -0.7470   25.4297 C.ar    1  UNL1        0.0697
     18 C           1.1158    1.4586   23.6580 C.3     1  UNL1        0.2525
     19 O           2.5173    1.2043   24.1280 O.3     1  UNL1       -0.4713
     20 C           1.7123    0.6917   29.2357 C.3     1  UNL1        0.0994
     21 N           2.5528    1.3107   30.3129 N.3     1  UNL1       -0.2646
     22 C           3.3472    2.5502   30.0253 C.3     1  UNL1        0.1049
     23 C           4.1877    3.1691   31.1026 C.3     1  UNL1        0.1595
     24 O           4.2339    2.5485   32.4675 O.3     1  UNL1       -0.3508
     25 C           3.4395    1.3091   32.7551 C.3     1  UNL1        0.1595
     26 C           2.5990    0.6901   31.6777 C.3     1  UNL1        0.1049
     27 N           3.1366   -2.3907   19.7609 N.pl3   1  UNL1       -0.3313
     28 H           2.7139   -3.2445   19.5126 H       1  UNL1        0.1469
     29 C           2.4408   -1.0953   19.4645 C.3     1  UNL1        0.0819
     30 C           2.8386   -0.1012   18.4141 C.3     1  UNL1        0.0983
     31 C           1.8688    1.0419   18.4669 C.3     1  UNL1        0.0323
     32 C           0.6532    1.5707   19.1689 C.2     1  UNL1       -0.0304
     33 C           0.2555    0.5765   20.2193 C.2     1  UNL1       -0.0294
     34 C           1.2253   -0.5666   20.1665 C.3     1  UNL1        0.0404
     35 C           2.2224   -0.2790   19.0835 C.3     1  UNL1        0.0109
     36 C           4.0019   -0.2279   17.4756 C.2     1  UNL1        0.2208
     37 N           5.3055    0.4381   17.8027 N.am    1  UNL1       -0.3288
     38 O           3.8616   -1.0207   16.2100 O.2     1  UNL1       -0.2753
     39 H           5.3976    0.9584   18.6334 H       1  UNL1        0.1449
     40 H           6.0690    0.3549   17.1868 H       1  UNL1        0.1449
@<TRIPOS>BOND
     1    18    19    1
     2    19    12    1
     3    12    13   ar
     4    13    14   ar
     5    14    20    1
     6    20    21    1
     7    21    22    1
     8    22    23    1
     9    23    24    1
    10    24    25    1
    11    25    26    1
    12    14    15   ar
    13    15    16   ar
    14    16    17   ar
    15    17     1    1
    16     1     2   ar
    17     2     3   ar
    18     3     4   ar
    19     4    27    1
    20    29    27    1
    21    29    30    1
    22    30    36    1
    23    36    37   am
    24    36    38    2
    25    30    31    1
    26    31    32    1
    27    32    33    2
    28    34    33    1
    29    34    35    1
    30     4     5   ar
    31     5     6    1
    32     5     7   ar
    33     7     8   ar
    34     8     9   ar
    35     9    10   ar
    36    17    12   ar
    37    10     1   ar
    38    26    21    1
    39     9     3    1
    40    34    29    1
    41    35    31    1
    42    27    28    1
    43    37    39    1
    44    37    40    1
    45     8    11    1
