@<TRIPOS>MOLECULE
*****
 20 22 0 0 0
SMALL
GASTEIGER

@<TRIPOS>ATOM
      1 N          -7.1462  -18.5740   22.3865 N.3     1  UNL1       -0.2691
      2 C          -5.7953  -18.9786   21.8752 C.3     1  UNL1        0.0578
      3 C          -4.5582  -18.5643   22.6156 C.3     1  UNL1        0.0160
      4 C          -3.2073  -18.9689   22.1042 C.3     1  UNL1        0.0014
      5 C          -3.0935  -19.7877   20.8525 C.3     1  UNL1        0.0001
      6 C          -4.3306  -20.2019   20.1122 C.3     1  UNL1        0.0014
      7 C          -5.6815  -19.7973   20.6235 C.3     1  UNL1        0.0160
      8 C          -7.4238  -17.1373   22.7166 C.3     1  UNL1        0.0894
      9 C          -8.2433  -16.0455   22.0951 C.3     1  UNL1        0.0862
     10 N          -7.8164  -15.1055   23.1833 N.3     1  UNL1       -0.2951
     11 C          -6.9968  -16.1973   23.8048 C.3     1  UNL1        0.0862
     12 H          -8.5814  -14.7734   23.7705 H       1  UNL1        0.1233
     13 C          -8.2194  -19.6061   22.5678 C.3     1  UNL1        0.0991
     14 CL        -13.8344  -17.9063   23.8259 Cl      1  UNL1       -0.0822
     15 C         -12.4307  -18.3312   23.5114 C.ar    1  UNL1        0.0577
     16 C         -11.4913  -18.6977   24.6219 C.ar    1  UNL1        0.0111
     17 C         -10.0876  -19.1227   24.3074 C.ar    1  UNL1       -0.0021
     18 C          -9.6232  -19.1811   22.8823 C.ar    1  UNL1       -0.0061
     19 C         -10.5625  -18.8146   21.7718 C.ar    1  UNL1       -0.0021
     20 C         -11.9662  -18.3896   22.0863 C.ar    1  UNL1        0.0111
@<TRIPOS>BOND
     1    14    15    1
     2    15    16   ar
     3    16    17   ar
     4    17    18   ar
     5    18    13    1
     6    13     1    1
     7     1     2    1
     8     2     3    1
     9     3     4    1
    10     4     5    1
    11     5     6    1
    12     6     7    1
    13     1     8    1
    14     8     9    1
    15     9    10    1
    16    10    11    1
    17    18    19   ar
    18    19    20   ar
    19    20    15   ar
    20     7     2    1
    21    11     8    1
    22    10    12    1
@<TRIPOS>MOLECULE
*****
 20 22 0 0 0
SMALL
GASTEIGER

@<TRIPOS>ATOM
      1 N          -9.9064  -16.7058   21.9021 N.3     1  UNL1       -0.2691
      2 C         -10.0094  -17.9677   22.7065 C.3     1  UNL1        0.0578
      3 C         -11.1589  -18.1640   23.6499 C.3     1  UNL1        0.0160
      4 C         -11.2619  -19.4259   24.4543 C.3     1  UNL1        0.0014
      5 C         -10.2153  -20.4915   24.3152 C.3     1  UNL1        0.0001
      6 C          -9.0659  -20.2951   23.3717 C.3     1  UNL1        0.0014
      7 C          -8.9629  -19.0332   22.5674 C.3     1  UNL1        0.0160
      8 C         -10.9665  -16.3694   20.8955 C.3     1  UNL1        0.0894
      9 C         -10.9938  -15.6293   19.5910 C.3     1  UNL1        0.0862
     10 N         -12.4655  -15.8937   19.4718 N.3     1  UNL1       -0.2951
     11 C         -12.4382  -16.6338   20.7763 C.3     1  UNL1        0.0862
     12 H         -12.7213  -16.4710   18.6708 H       1  UNL1        0.1233
     13 C          -8.7435  -15.7802   22.1043 C.3     1  UNL1        0.0991
     14 CL         -6.2700  -15.2142   27.5414 Cl      1  UNL1       -0.0822
     15 C          -6.8884  -15.3557   26.1821 C.ar    1  UNL1        0.0577
     16 C          -8.3785  -15.4554   26.0428 C.ar    1  UNL1        0.0111
     17 C          -8.9969  -15.5969   24.6835 C.ar    1  UNL1       -0.0021
     18 C          -8.1251  -15.6387   23.4636 C.ar    1  UNL1       -0.0061
     19 C          -6.6350  -15.5390   23.6029 C.ar    1  UNL1       -0.0021
     20 C          -6.0166  -15.3975   24.9622 C.ar    1  UNL1        0.0111
@<TRIPOS>BOND
     1    14    15    1
     2    15    16   ar
     3    16    17   ar
     4    17    18   ar
     5    18    13    1
     6    13     1    1
     7     1     2    1
     8     2     3    1
     9     3     4    1
    10     4     5    1
    11     5     6    1
    12     6     7    1
    13     1     8    1
    14     8     9    1
    15     9    10    1
    16    10    11    1
    17    18    19   ar
    18    19    20   ar
    19    20    15   ar
    20     7     2    1
    21    11     8    1
    22    10    12    1
@<TRIPOS>MOLECULE
*****
 20 22 0 0 0
SMALL
GASTEIGER

@<TRIPOS>ATOM
      1 N          -7.7715  -16.9925   23.0170 N.3     1  UNL1       -0.2691
      2 C          -7.2726  -16.3443   24.2743 C.3     1  UNL1        0.0578
      3 C          -8.1863  -16.1947   25.4545 C.3     1  UNL1        0.0160
      4 C          -7.6874  -15.5465   26.7119 C.3     1  UNL1        0.0014
      5 C          -6.2748  -15.0479   26.7891 C.3     1  UNL1        0.0001
      6 C          -5.3611  -15.1976   25.6089 C.3     1  UNL1        0.0014
      7 C          -5.8600  -15.8457   24.3516 C.3     1  UNL1        0.0160
      8 C          -7.0483  -18.1758   22.4453 C.3     1  UNL1        0.0894
      9 C          -5.6080  -18.5655   22.2911 C.3     1  UNL1        0.0862
     10 N          -6.0254  -19.8492   21.6369 N.3     1  UNL1       -0.2951
     11 C          -7.4657  -19.4595   21.7911 C.3     1  UNL1        0.0862
     12 H          -5.7626  -20.6863   22.1570 H       1  UNL1        0.1233
     13 C          -8.9935  -16.4574   22.3313 C.3     1  UNL1        0.0991
     14 CL        -14.4445  -18.2497   24.0848 Cl      1  UNL1       -0.0822
     15 C         -13.0818  -17.8016   23.6464 C.ar    1  UNL1        0.0577
     16 C         -12.9357  -16.5949   22.7676 C.ar    1  UNL1        0.0111
     17 C         -11.5730  -16.1468   22.3292 C.ar    1  UNL1       -0.0021
     18 C         -10.3563  -16.9055   22.7697 C.ar    1  UNL1       -0.0061
     19 C         -10.5023  -18.1122   23.6485 C.ar    1  UNL1       -0.0021
     20 C         -11.8651  -18.5603   24.0868 C.ar    1  UNL1        0.0111
@<TRIPOS>BOND
     1    14    15    1
     2    15    16   ar
     3    16    17   ar
     4    17    18   ar
     5    18    13    1
     6    13     1    1
     7     1     2    1
     8     2     3    1
     9     3     4    1
    10     4     5    1
    11     5     6    1
    12     6     7    1
    13     1     8    1
    14     8     9    1
    15     9    10    1
    16    10    11    1
    17    18    19   ar
    18    19    20   ar
    19    20    15   ar
    20     7     2    1
    21    11     8    1
    22    10    12    1
@<TRIPOS>MOLECULE
*****
 20 22 0 0 0
SMALL
GASTEIGER

@<TRIPOS>ATOM
      1 N          -7.0853  -18.5812   22.3283 N.3     1  UNL1       -0.2691
      2 C          -8.4285  -19.0492   21.8518 C.3     1  UNL1        0.0578
      3 C          -9.4514  -19.5241   22.8408 C.3     1  UNL1        0.0160
      4 C         -10.7946  -19.9921   22.3644 C.3     1  UNL1        0.0014
      5 C         -11.1147  -19.9851   20.8989 C.3     1  UNL1        0.0001
      6 C         -10.0918  -19.5102   19.9100 C.3     1  UNL1        0.0014
      7 C          -8.7487  -19.0422   20.3865 C.3     1  UNL1        0.0160
      8 C          -6.9074  -17.1685   22.8002 C.3     1  UNL1        0.0894
      9 C          -7.7095  -15.9055   22.6932 C.3     1  UNL1        0.0862
     10 N          -6.6557  -15.1707   23.4675 N.3     1  UNL1       -0.2951
     11 C          -5.8536  -16.4336   23.5745 C.3     1  UNL1        0.0862
     12 H          -6.9770  -14.8042   24.3636 H       1  UNL1        0.1233
     13 C          -5.9202  -19.5259   22.3329 C.3     1  UNL1        0.0991
     14 CL         -0.8624  -18.0653   19.4544 Cl      1  UNL1       -0.0822
     15 C          -2.1269  -18.4305   20.1740 C.ar    1  UNL1        0.0577
     16 C          -3.3657  -18.7581   19.3944 C.ar    1  UNL1        0.0111
     17 C          -4.6302  -19.1232   20.1140 C.ar    1  UNL1       -0.0021
     18 C          -4.6558  -19.1607   21.6132 C.ar    1  UNL1       -0.0061
     19 C          -3.4170  -18.8331   22.3929 C.ar    1  UNL1       -0.0021
     20 C          -2.1525  -18.4680   21.6733 C.ar    1  UNL1        0.0111
@<TRIPOS>BOND
     1    14    15    1
     2    15    16   ar
     3    16    17   ar
     4    17    18   ar
     5    18    13    1
     6    13     1    1
     7     1     2    1
     8     2     3    1
     9     3     4    1
    10     4     5    1
    11     5     6    1
    12     6     7    1
    13     1     8    1
    14     8     9    1
    15     9    10    1
    16    10    11    1
    17    18    19   ar
    18    19    20   ar
    19    20    15   ar
    20     7     2    1
    21    11     8    1
    22    10    12    1
@<TRIPOS>MOLECULE
*****
 20 22 0 0 0
SMALL
GASTEIGER

@<TRIPOS>ATOM
      1 N          -8.7737  -17.4916   23.0669 N.3     1  UNL1       -0.2691
      2 C         -10.1767  -17.5525   22.5396 C.3     1  UNL1        0.0578
      3 C         -10.4292  -17.4423   21.0651 C.3     1  UNL1        0.0160
      4 C         -11.8321  -17.5032   20.5378 C.3     1  UNL1        0.0014
      5 C         -12.9826  -17.6742   21.4851 C.3     1  UNL1        0.0001
      6 C         -12.7301  -17.7843   22.9595 C.3     1  UNL1        0.0014
      7 C         -11.3271  -17.7235   23.4868 C.3     1  UNL1        0.0160
      8 C          -8.2231  -16.1964   23.5860 C.3     1  UNL1        0.0894
      9 C          -7.2235  -15.1942   23.0898 C.3     1  UNL1        0.0862
     10 N          -7.4444  -14.3648   24.3200 N.3     1  UNL1       -0.2951
     11 C          -8.4440  -15.3671   24.8162 C.3     1  UNL1        0.0862
     12 H          -7.8369  -13.4417   24.1349 H       1  UNL1        0.1233
     13 C          -7.9214  -18.7259   23.0751 C.3     1  UNL1        0.0991
     14 CL         -3.2910  -19.1994   19.2889 Cl      1  UNL1       -0.0822
     15 C          -4.4486  -19.0810   20.2354 C.ar    1  UNL1        0.0577
     16 C          -4.2030  -18.8145   21.6910 C.ar    1  UNL1        0.0111
     17 C          -5.3606  -18.6961   22.6375 C.ar    1  UNL1       -0.0021
     18 C          -6.7638  -18.8443   22.1285 C.ar    1  UNL1       -0.0061
     19 C          -7.0094  -19.1107   20.6730 C.ar    1  UNL1       -0.0021
     20 C          -5.8518  -19.2291   19.7265 C.ar    1  UNL1        0.0111
@<TRIPOS>BOND
     1    14    15    1
     2    15    16   ar
     3    16    17   ar
     4    17    18   ar
     5    18    13    1
     6    13     1    1
     7     1     2    1
     8     2     3    1
     9     3     4    1
    10     4     5    1
    11     5     6    1
    12     6     7    1
    13     1     8    1
    14     8     9    1
    15     9    10    1
    16    10    11    1
    17    18    19   ar
    18    19    20   ar
    19    20    15   ar
    20     7     2    1
    21    11     8    1
    22    10    12    1
@<TRIPOS>MOLECULE
*****
 20 22 0 0 0
SMALL
GASTEIGER

@<TRIPOS>ATOM
      1 N          -8.9442  -17.3243   21.4981 N.3     1  UNL1       -0.2691
      2 C          -7.9954  -18.4566   21.2383 C.3     1  UNL1        0.0578
      3 C          -6.9489  -18.8064   22.2545 C.3     1  UNL1        0.0160
      4 C          -6.0001  -19.9387   21.9946 C.3     1  UNL1        0.0014
      5 C          -6.0976  -20.7212   20.7186 C.3     1  UNL1        0.0001
      6 C          -7.1440  -20.3714   19.7024 C.3     1  UNL1        0.0014
      7 C          -8.0929  -19.2391   19.9623 C.3     1  UNL1        0.0160
      8 C         -10.4174  -17.5180   21.2922 C.3     1  UNL1        0.0894
      9 C         -11.3434  -17.4374   20.1149 C.3     1  UNL1        0.0862
     10 N         -12.5007  -17.7919   21.0009 N.3     1  UNL1       -0.2951
     11 C         -11.5747  -17.8725   22.1782 C.3     1  UNL1        0.0862
     12 H         -12.9510  -18.6760   20.7640 H       1  UNL1        0.1233
     13 C          -8.4200  -15.9983   21.9639 C.3     1  UNL1        0.0991
     14 CL         -6.6851  -15.2927   27.6641 Cl      1  UNL1       -0.0822
     15 C          -7.1188  -15.4691   26.2390 C.ar    1  UNL1        0.0577
     16 C          -6.1361  -15.2622   25.1248 C.ar    1  UNL1        0.0111
     17 C          -6.5699  -15.4386   23.6998 C.ar    1  UNL1       -0.0021
     18 C          -7.9863  -15.8219   23.3889 C.ar    1  UNL1       -0.0061
     19 C          -8.9690  -16.0289   24.5031 C.ar    1  UNL1       -0.0021
     20 C          -8.5353  -15.8525   25.9281 C.ar    1  UNL1        0.0111
@<TRIPOS>BOND
     1    14    15    1
     2    15    16   ar
     3    16    17   ar
     4    17    18   ar
     5    18    13    1
     6    13     1    1
     7     1     2    1
     8     2     3    1
     9     3     4    1
    10     4     5    1
    11     5     6    1
    12     6     7    1
    13     1     8    1
    14     8     9    1
    15     9    10    1
    16    10    11    1
    17    18    19   ar
    18    19    20   ar
    19    20    15   ar
    20     7     2    1
    21    11     8    1
    22    10    12    1
@<TRIPOS>MOLECULE
*****
 20 22 0 0 0
SMALL
GASTEIGER

@<TRIPOS>ATOM
      1 N         -10.1948  -17.5639   22.4632 N.3     1  UNL1       -0.2691
      2 C          -9.7291  -18.3938   21.3036 C.3     1  UNL1        0.0578
      3 C         -10.7199  -18.8984   20.2967 C.3     1  UNL1        0.0160
      4 C         -10.2543  -19.7282   19.1372 C.3     1  UNL1        0.0014
      5 C          -8.7978  -20.0534   18.9845 C.3     1  UNL1        0.0001
      6 C          -7.8072  -19.5488   19.9914 C.3     1  UNL1        0.0014
      7 C          -8.2728  -18.7190   21.1510 C.3     1  UNL1        0.0160
      8 C         -11.1626  -18.1376   23.4553 C.3     1  UNL1        0.0894
      9 C         -11.0428  -18.9961   24.6795 C.3     1  UNL1        0.0862
     10 N         -12.5313  -18.9489   24.8583 N.3     1  UNL1       -0.2951
     11 C         -12.6512  -18.0905   23.6341 C.3     1  UNL1        0.0862
     12 H         -12.8331  -18.4917   25.7187 H       1  UNL1        0.1233
     13 C          -9.6926  -16.1605   22.6307 C.3     1  UNL1        0.0991
     14 CL         -5.1549  -15.0262   26.3887 Cl      1  UNL1       -0.0822
     15 C          -6.2893  -15.3098   25.4492 C.ar    1  UNL1        0.0577
     16 C          -7.6707  -15.5366   25.9881 C.ar    1  UNL1        0.0111
     17 C          -8.8051  -15.8201   25.0486 C.ar    1  UNL1       -0.0021
     18 C          -8.5582  -15.8769   23.5702 C.ar    1  UNL1       -0.0061
     19 C          -7.1768  -15.6501   23.0313 C.ar    1  UNL1       -0.0021
     20 C          -6.0424  -15.3666   23.9708 C.ar    1  UNL1        0.0111
@<TRIPOS>BOND
     1    14    15    1
     2    15    16   ar
     3    16    17   ar
     4    17    18   ar
     5    18    13    1
     6    13     1    1
     7     1     2    1
     8     2     3    1
     9     3     4    1
    10     4     5    1
    11     5     6    1
    12     6     7    1
    13     1     8    1
    14     8     9    1
    15     9    10    1
    16    10    11    1
    17    18    19   ar
    18    19    20   ar
    19    20    15   ar
    20     7     2    1
    21    11     8    1
    22    10    12    1
@<TRIPOS>MOLECULE
*****
 20 22 0 0 0
SMALL
GASTEIGER

@<TRIPOS>ATOM
      1 N          -8.9139  -17.5062   23.4633 N.3     1  UNL1       -0.2691
      2 C         -10.4083  -17.6024   23.5495 C.3     1  UNL1        0.0578
      3 C         -11.0438  -18.6497   24.4152 C.3     1  UNL1        0.0160
      4 C         -12.5383  -18.7459   24.5014 C.3     1  UNL1        0.0014
      5 C         -13.3972  -17.7947   23.7219 C.3     1  UNL1        0.0001
      6 C         -12.7617  -16.7474   22.8563 C.3     1  UNL1        0.0014
      7 C         -11.2673  -16.6512   22.7701 C.3     1  UNL1        0.0160
      8 C          -8.2182  -16.2445   23.8807 C.3     1  UNL1        0.0894
      9 C          -8.5152  -15.1414   24.8528 C.3     1  UNL1        0.0862
     10 N          -7.2345  -14.4602   24.4711 N.3     1  UNL1       -0.2951
     11 C          -6.9375  -15.5633   23.4990 C.3     1  UNL1        0.0862
     12 H          -6.5604  -14.3837   25.2328 H       1  UNL1        0.1233
     13 C          -8.1152  -18.6717   22.9597 C.3     1  UNL1        0.0991
     14 CL         -9.0215  -20.7543   17.4062 Cl      1  UNL1       -0.0822
     15 C          -8.7949  -20.2337   18.7946 C.ar    1  UNL1        0.0577
     16 C          -7.4015  -20.1375   19.3415 C.ar    1  UNL1        0.0111
     17 C          -7.1749  -19.6169   20.7298 C.ar    1  UNL1       -0.0021
     18 C          -8.3418  -19.1924   21.5713 C.ar    1  UNL1       -0.0061
     19 C          -9.7352  -19.2885   21.0245 C.ar    1  UNL1       -0.0021
     20 C          -9.9617  -19.8092   19.6361 C.ar    1  UNL1        0.0111
@<TRIPOS>BOND
     1    14    15    1
     2    15    16   ar
     3    16    17   ar
     4    17    18   ar
     5    18    13    1
     6    13     1    1
     7     1     2    1
     8     2     3    1
     9     3     4    1
    10     4     5    1
    11     5     6    1
    12     6     7    1
    13     1     8    1
    14     8     9    1
    15     9    10    1
    16    10    11    1
    17    18    19   ar
    18    19    20   ar
    19    20    15   ar
    20     7     2    1
    21    11     8    1
    22    10    12    1
@<TRIPOS>MOLECULE
*****
 20 22 0 0 0
SMALL
GASTEIGER

@<TRIPOS>ATOM
      1 N         -12.4647   -6.2954   17.9282 N.3     1  UNL1       -0.2691
      2 C         -12.8710   -5.1897   18.8568 C.3     1  UNL1        0.0578
      3 C         -12.3318   -3.8046   18.6549 C.3     1  UNL1        0.0160
      4 C         -12.7381   -2.6988   19.5835 C.3     1  UNL1        0.0014
      5 C         -13.6835   -2.9782   20.7140 C.3     1  UNL1        0.0001
      6 C         -14.2227   -4.3633   20.9159 C.3     1  UNL1        0.0014
      7 C         -13.8164   -5.4691   19.9873 C.3     1  UNL1        0.0160
      8 C         -11.1363   -6.9704   18.1016 C.3     1  UNL1        0.0894
      9 C          -9.9381   -6.7449   18.9754 C.3     1  UNL1        0.0862
     10 N          -9.2578   -7.9248   18.3468 N.3     1  UNL1       -0.2951
     11 C         -10.4560   -8.1502   17.4730 C.3     1  UNL1        0.0862
     12 H          -9.0654   -8.6885   18.9949 H       1  UNL1        0.1233
     13 C         -13.3867   -6.7263   16.8263 C.3     1  UNL1        0.0991
     14 CL        -18.1329  -10.1817   18.0648 Cl      1  UNL1       -0.0822
     15 C         -16.9464   -9.3178   17.7552 C.ar    1  UNL1        0.0577
     16 C         -17.1187   -8.0715   16.9385 C.ar    1  UNL1        0.0111
     17 C         -15.9322   -7.2077   16.6289 C.ar    1  UNL1       -0.0021
     18 C         -14.5733   -7.5901   17.1360 C.ar    1  UNL1       -0.0061
     19 C         -14.4009   -8.8364   17.9526 C.ar    1  UNL1       -0.0021
     20 C         -15.5875   -9.7003   18.2623 C.ar    1  UNL1        0.0111
@<TRIPOS>BOND
     1    14    15    1
     2    15    16   ar
     3    16    17   ar
     4    17    18   ar
     5    18    13    1
     6    13     1    1
     7     1     2    1
     8     2     3    1
     9     3     4    1
    10     4     5    1
    11     5     6    1
    12     6     7    1
    13     1     8    1
    14     8     9    1
    15     9    10    1
    16    10    11    1
    17    18    19   ar
    18    19    20   ar
    19    20    15   ar
    20     7     2    1
    21    11     8    1
    22    10    12    1
