@<TRIPOS>MOLECULE
*****
 35 39 0 0 0
SMALL
GASTEIGER

@<TRIPOS>ATOM
      1 C           6.4621   -3.7066   31.4864 C.ar    1  UNL1        0.0223
      2 C           7.0392   -5.0072   31.9611 C.ar    1  UNL1        0.0989
      3 N           7.5419   -6.0119   30.9673 N.ar    1  UNL1       -0.2437
      4 C           7.4674   -5.7160   29.4986 C.ar    1  UNL1        0.0844
      5 C           8.0206   -6.8469   28.6831 C.ar    1  UNL1        0.0192
      6 C           8.1332   -6.9565   27.1913 C.ar    1  UNL1        0.0016
      7 C           7.7205   -5.9623   26.1467 C.ar    1  UNL1        0.0031
      8 C           8.0102   -6.4676   24.7644 C.ar    1  UNL1       -0.0002
      9 C           7.6726   -5.6236   23.5713 C.ar    1  UNL1       -0.0025
     10 C           7.0454   -4.2743   23.7604 C.ar    1  UNL1        0.0030
     11 C           6.7557   -3.7689   25.1426 C.ar    1  UNL1        0.0007
     12 C           7.0932   -4.6130   26.3358 C.ar    1  UNL1        0.0387
     13 C           6.7238   -3.9245   27.6163 C.ar    1  UNL1        0.1970
     14 O           6.1061   -2.5655   27.4698 O.2     1  UNL1       -0.2865
     15 C           6.8903   -4.4155   29.0238 C.ar    1  UNL1        0.0566
     16 C           6.3876   -3.4108   30.0177 C.ar    1  UNL1        0.0063
     17 C           6.1466    0.5273   34.6257 C.3     1  UNL1        0.1538
     18 N           5.8144   -0.7557   33.9233 N.ar    1  UNL1       -0.2473
     19 C           6.6809   -1.4641   32.9246 C.ar    1  UNL1        0.0967
     20 C           5.9594   -2.7019   32.4803 C.ar    1  UNL1        0.0411
     21 C           4.6469   -2.7584   33.2043 C.ar    1  UNL1        0.1217
     22 N           4.5573   -1.5557   34.0961 N.ar    1  UNL1       -0.1676
     23 C           6.7078   -3.4301   22.5672 C.3     1  UNL1        0.1952
     24 S           5.6675   -3.8935   21.5910 S.O2    1  UNL1        0.0453
     25 O           6.7472   -4.2783   20.6232 O.2     1  UNL1       -0.1572
     26 O           4.5878   -3.5088   22.5586 O.2     1  UNL1       -0.1572
     27 N           4.6272   -4.3569   20.6146 N.3     1  UNL1       -0.1769
     28 H           3.7271   -4.0310   20.9666 H       1  UNL1        0.1489
     29 C           4.7079   -3.9367   19.1769 C.3     1  UNL1        0.1365
     30 C           4.1901   -2.5926   18.7582 C.ar    1  UNL1        0.0766
     31 C           3.1949   -1.8712   19.6179 C.ar    1  UNL1        0.0162
     32 C           2.6771   -0.5271   19.1993 C.ar    1  UNL1        0.0028
     33 C           3.1546    0.0955   17.9208 C.ar    1  UNL1        0.0207
     34 C           4.1498   -0.6259   17.0610 C.ar    1  UNL1        0.0985
     35 N           4.6676   -1.9700   17.4798 N.ar    1  UNL1       -0.2467
@<TRIPOS>BOND
     1    17    18    1
     2    18    19   ar
     3    19    20   ar
     4    20     1    1
     5     1     2   ar
     6     2     3   ar
     7     3     4   ar
     8     4     5   ar
     9     5     6   ar
    10     6     7   ar
    11     7     8   ar
    12     8     9   ar
    13     9    10   ar
    14    10    23    1
    15    23    24    1
    16    24    25    2
    17    24    26    2
    18    24    27    1
    19    27    29    1
    20    29    30    1
    21    30    31   ar
    22    31    32   ar
    23    32    33   ar
    24    33    34   ar
    25    34    35   ar
    26    10    11   ar
    27    11    12   ar
    28    12    13   ar
    29    13    14    2
    30    13    15   ar
    31    15    16   ar
    32    20    21   ar
    33    21    22   ar
    34    22    18   ar
    35    16     1   ar
    36    15     4   ar
    37    12     7   ar
    38    35    30   ar
    39    27    28    1
@<TRIPOS>MOLECULE
*****
 35 39 0 0 0
SMALL
GASTEIGER

@<TRIPOS>ATOM
      1 C          -1.5198    3.1183   20.8669 C.ar    1  UNL1        0.0223
      2 C          -1.5418    3.4689   22.3251 C.ar    1  UNL1        0.0989
      3 N          -0.6043    2.7844   23.2752 N.ar    1  UNL1       -0.2437
      4 C           0.3551    1.7494   22.7670 C.ar    1  UNL1        0.0844
      5 C           1.1976    1.1918   23.8757 C.ar    1  UNL1        0.0192
      6 C           2.2703    0.1459   23.8000 C.ar    1  UNL1        0.0016
      7 C           2.7652   -0.6006   22.5968 C.ar    1  UNL1        0.0031
      8 C           3.8557   -1.5643   22.9602 C.ar    1  UNL1       -0.0002
      9 C           4.4908   -2.4132   21.8990 C.ar    1  UNL1       -0.0025
     10 C           4.0354   -2.2982   20.4745 C.ar    1  UNL1        0.0030
     11 C           2.9450   -1.3345   20.1110 C.ar    1  UNL1        0.0007
     12 C           2.3099   -0.4856   21.1722 C.ar    1  UNL1        0.0387
     13 C           1.2470    0.4042   20.5989 C.ar    1  UNL1        0.1970
     14 O           1.0248    0.2833   19.1205 O.2     1  UNL1       -0.2865
     15 C           0.3771    1.3989   21.3087 C.ar    1  UNL1        0.0566
     16 C          -0.5603    2.0833   20.3587 C.ar    1  UNL1        0.0063
     17 C          -5.9086    4.5718   18.3161 C.3     1  UNL1        0.1538
     18 N          -4.4746    4.4709   18.7443 N.ar    1  UNL1       -0.2473
     19 C          -3.9382    3.5819   19.8268 C.ar    1  UNL1        0.0967
     20 C          -2.4572    3.8028   19.9167 C.ar    1  UNL1        0.0411
     21 C          -2.0784    4.8283   18.8897 C.ar    1  UNL1        0.1217
     22 N          -3.3251    5.2412   18.1650 N.ar    1  UNL1       -0.1676
     23 C           4.6705   -3.1471   19.4132 C.3     1  UNL1        0.1952
     24 S           5.6605   -2.5426   18.4622 S.O2    1  UNL1        0.0453
     25 O           6.7624   -2.7965   19.4479 O.2     1  UNL1       -0.1572
     26 O           4.5587   -2.2887   17.4765 O.2     1  UNL1       -0.1572
     27 N           6.6506   -1.9381   17.5111 N.3     1  UNL1       -0.1769
     28 H           6.3369   -2.1746   16.5698 H       1  UNL1        0.1489
     29 C           6.8981   -0.4588   17.5262 C.3     1  UNL1        0.1365
     30 C           6.0999    0.4260   18.4373 C.ar    1  UNL1        0.0766
     31 C           4.9164    1.1781   17.9048 C.ar    1  UNL1        0.0162
     32 C           4.1181    2.0629   18.8159 C.ar    1  UNL1        0.0028
     33 C           4.5035    2.1954   20.2595 C.ar    1  UNL1        0.0207
     34 C           5.6870    1.4433   20.7920 C.ar    1  UNL1        0.0985
     35 N           6.4852    0.5585   19.8809 N.ar    1  UNL1       -0.2467
@<TRIPOS>BOND
     1    17    18    1
     2    18    19   ar
     3    19    20   ar
     4    20     1    1
     5     1     2   ar
     6     2     3   ar
     7     3     4   ar
     8     4     5   ar
     9     5     6   ar
    10     6     7   ar
    11     7     8   ar
    12     8     9   ar
    13     9    10   ar
    14    10    23    1
    15    23    24    1
    16    24    25    2
    17    24    26    2
    18    24    27    1
    19    27    29    1
    20    29    30    1
    21    30    31   ar
    22    31    32   ar
    23    32    33   ar
    24    33    34   ar
    25    34    35   ar
    26    10    11   ar
    27    11    12   ar
    28    12    13   ar
    29    13    14    2
    30    13    15   ar
    31    15    16   ar
    32    20    21   ar
    33    21    22   ar
    34    22    18   ar
    35    16     1   ar
    36    15     4   ar
    37    12     7   ar
    38    35    30   ar
    39    27    28    1
@<TRIPOS>MOLECULE
*****
 35 39 0 0 0
SMALL
GASTEIGER

@<TRIPOS>ATOM
      1 C           6.5839   -4.1369   24.3150 C.ar    1  UNL1        0.0223
      2 C           7.6316   -4.7787   23.4546 C.ar    1  UNL1        0.0989
      3 N           7.6297   -4.5475   21.9725 N.ar    1  UNL1       -0.2437
      4 C           6.5802   -3.6746   21.3509 C.ar    1  UNL1        0.0844
      5 C           6.7588   -3.5764   19.8648 C.ar    1  UNL1        0.0192
      6 C           5.9339   -2.8121   18.8721 C.ar    1  UNL1        0.0016
      7 C           4.7266   -1.9573   19.1204 C.ar    1  UNL1        0.0031
      8 C           4.1996   -1.3695   17.8449 C.ar    1  UNL1       -0.0002
      9 C           2.9920   -0.4802   17.8716 C.ar    1  UNL1       -0.0025
     10 C           2.3114   -0.1785   19.1739 C.ar    1  UNL1        0.0030
     11 C           2.8384   -0.7662   20.4493 C.ar    1  UNL1        0.0007
     12 C           4.0460   -1.6556   20.4226 C.ar    1  UNL1        0.0387
     13 C           4.4047   -2.1343   21.7983 C.ar    1  UNL1        0.1970
     14 O           3.5183   -1.6504   22.9073 O.2     1  UNL1       -0.2865
     15 C           5.5325   -3.0328   22.2113 C.ar    1  UNL1        0.0566
     16 C           5.5343   -3.2639   23.6934 C.ar    1  UNL1        0.0063
     17 C           6.5631   -3.2986   29.5283 C.3     1  UNL1        0.1538
     18 N           6.5761   -3.9826   28.1934 N.ar    1  UNL1       -0.2473
     19 C           6.5668   -3.3050   26.8553 C.ar    1  UNL1        0.0967
     20 C           6.5857   -4.3680   25.7971 C.ar    1  UNL1        0.0411
     21 C           6.6066   -5.7027   26.4813 C.ar    1  UNL1        0.1217
     22 N           6.6007   -5.4646   27.9623 N.ar    1  UNL1       -0.1676
     23 C           1.1037    0.7109   19.2007 C.3     1  UNL1        0.1952
     24 S           0.6679    1.3450   20.4882 S.O2    1  UNL1        0.0453
     25 O          -0.3183    0.2349   20.7011 O.2     1  UNL1       -0.1572
     26 O           1.6539    2.4551   20.2754 O.2     1  UNL1       -0.1572
     27 N           0.2319    1.9791   21.7758 N.3     1  UNL1       -0.1769
     28 H           1.0744    2.1263   22.3316 H       1  UNL1        0.1489
     29 C          -0.5075    3.2841   21.7565 C.3     1  UNL1        0.1365
     30 C          -1.9796    3.3163   22.0432 C.ar    1  UNL1        0.0766
     31 C          -2.4681    3.6538   23.4207 C.ar    1  UNL1        0.0162
     32 C          -3.9401    3.6861   23.7074 C.ar    1  UNL1        0.0028
     33 C          -4.9235    3.3808   22.6166 C.ar    1  UNL1        0.0207
     34 C          -4.4349    3.0432   21.2391 C.ar    1  UNL1        0.0985
     35 N          -2.9629    3.0110   20.9524 N.ar    1  UNL1       -0.2467
@<TRIPOS>BOND
     1    17    18    1
     2    18    19   ar
     3    19    20   ar
     4    20     1    1
     5     1     2   ar
     6     2     3   ar
     7     3     4   ar
     8     4     5   ar
     9     5     6   ar
    10     6     7   ar
    11     7     8   ar
    12     8     9   ar
    13     9    10   ar
    14    10    23    1
    15    23    24    1
    16    24    25    2
    17    24    26    2
    18    24    27    1
    19    27    29    1
    20    29    30    1
    21    30    31   ar
    22    31    32   ar
    23    32    33   ar
    24    33    34   ar
    25    34    35   ar
    26    10    11   ar
    27    11    12   ar
    28    12    13   ar
    29    13    14    2
    30    13    15   ar
    31    15    16   ar
    32    20    21   ar
    33    21    22   ar
    34    22    18   ar
    35    16     1   ar
    36    15     4   ar
    37    12     7   ar
    38    35    30   ar
    39    27    28    1
@<TRIPOS>MOLECULE
*****
 35 39 0 0 0
SMALL
GASTEIGER

@<TRIPOS>ATOM
      1 C           7.2963   -4.7084   25.0168 C.ar    1  UNL1        0.0223
      2 C           8.0071   -5.3879   23.8842 C.ar    1  UNL1        0.0989
      3 N           7.6229   -5.0827   22.4667 N.ar    1  UNL1       -0.2437
      4 C           6.5278   -4.0979   22.1820 C.ar    1  UNL1        0.0844
      5 C           6.3032   -3.9393   20.7074 C.ar    1  UNL1        0.0192
      6 C           5.3123   -3.0620   20.0012 C.ar    1  UNL1        0.0016
      7 C           4.3014   -2.1267   20.5954 C.ar    1  UNL1        0.0031
      8 C           3.5027   -1.4348   19.5307 C.ar    1  UNL1       -0.0002
      9 C           2.4343   -0.4539   19.9129 C.ar    1  UNL1       -0.0025
     10 C           2.1645   -0.1648   21.3598 C.ar    1  UNL1        0.0030
     11 C           2.9630   -0.8566   22.4245 C.ar    1  UNL1        0.0007
     12 C           4.0315   -1.8376   22.0423 C.ar    1  UNL1        0.0387
     13 C           4.7060   -2.4125   23.2525 C.ar    1  UNL1        0.1970
     14 O           4.2030   -1.9157   24.5754 O.2     1  UNL1       -0.2865
     15 C           5.8170   -3.4184   23.3146 C.ar    1  UNL1        0.0566
     16 C           6.2012   -3.7236   24.7321 C.ar    1  UNL1        0.0063
     17 C           7.0076   -5.7331   30.1886 C.3     1  UNL1        0.1538
     18 N           7.5478   -5.4846   28.8116 N.ar    1  UNL1       -0.2473
     19 C           6.7350   -5.1952   27.5846 C.ar    1  UNL1        0.0967
     20 C           7.6806   -5.0136   26.4343 C.ar    1  UNL1        0.0411
     21 C           9.0778   -5.1907   26.9505 C.ar    1  UNL1        0.1217
     22 N           8.9958   -5.4818   28.4197 N.ar    1  UNL1       -0.1676
     23 C           1.0960    0.8162   21.7422 C.3     1  UNL1        0.1952
     24 S           0.4656    1.6848   20.6942 S.O2    1  UNL1        0.0453
     25 O           1.5134    2.7316   20.9317 O.2     1  UNL1       -0.1572
     26 O          -0.5821    0.6380   20.4566 O.2     1  UNL1       -0.1572
     27 N          -0.1647    2.5534   19.6462 N.3     1  UNL1       -0.1769
     28 H          -0.7524    1.9462   19.0750 H       1  UNL1        0.1489
     29 C          -1.0140    3.7214   20.0516 C.3     1  UNL1        0.1365
     30 C          -2.5094    3.6113   20.0113 C.ar    1  UNL1        0.0766
     31 C          -3.2549    3.9770   18.7621 C.ar    1  UNL1        0.0162
     32 C          -4.7503    3.8668   18.7217 C.ar    1  UNL1        0.0028
     33 C          -5.5002    3.3909   19.9306 C.ar    1  UNL1        0.0207
     34 C          -4.7547    3.0252   21.1797 C.ar    1  UNL1        0.0985
     35 N          -3.2592    3.1354   21.2201 N.ar    1  UNL1       -0.2467
@<TRIPOS>BOND
     1    17    18    1
     2    18    19   ar
     3    19    20   ar
     4    20     1    1
     5     1     2   ar
     6     2     3   ar
     7     3     4   ar
     8     4     5   ar
     9     5     6   ar
    10     6     7   ar
    11     7     8   ar
    12     8     9   ar
    13     9    10   ar
    14    10    23    1
    15    23    24    1
    16    24    25    2
    17    24    26    2
    18    24    27    1
    19    27    29    1
    20    29    30    1
    21    30    31   ar
    22    31    32   ar
    23    32    33   ar
    24    33    34   ar
    25    34    35   ar
    26    10    11   ar
    27    11    12   ar
    28    12    13   ar
    29    13    14    2
    30    13    15   ar
    31    15    16   ar
    32    20    21   ar
    33    21    22   ar
    34    22    18   ar
    35    16     1   ar
    36    15     4   ar
    37    12     7   ar
    38    35    30   ar
    39    27    28    1
@<TRIPOS>MOLECULE
*****
 35 39 0 0 0
SMALL
GASTEIGER

@<TRIPOS>ATOM
      1 C           0.0600    1.9602   23.6475 C.ar    1  UNL1        0.0223
      2 C          -0.5719    2.8759   22.6414 C.ar    1  UNL1        0.0989
      3 N          -0.1912    2.7767   21.1940 N.ar    1  UNL1       -0.2437
      4 C           0.8213    1.7618   20.7525 C.ar    1  UNL1        0.0844
      5 C           1.0561    1.8299   19.2726 C.ar    1  UNL1        0.0192
      6 C           1.9809    0.9991   18.4332 C.ar    1  UNL1        0.0016
      7 C           2.8992   -0.1050   18.8665 C.ar    1  UNL1        0.0031
      8 C           3.6540   -0.6780   17.7037 C.ar    1  UNL1       -0.0002
      9 C           4.6292   -1.7969   17.9206 C.ar    1  UNL1       -0.0025
     10 C           4.8495   -2.3428   19.3003 C.ar    1  UNL1        0.0030
     11 C           4.0947   -1.7699   20.4630 C.ar    1  UNL1        0.0007
     12 C           3.1195   -0.6510   20.2461 C.ar    1  UNL1        0.0387
     13 C           2.4759   -0.2277   21.5333 C.ar    1  UNL1        0.1970
     14 O           2.9130   -0.9774   22.7567 O.2     1  UNL1       -0.2865
     15 C           1.4531    0.8461   21.7586 C.ar    1  UNL1        0.0566
     16 C           1.0725    0.9453   23.2061 C.ar    1  UNL1        0.0063
     17 C           0.0407    1.3272   28.8897 C.3     1  UNL1        0.1538
     18 N          -0.3294    1.7683   27.5046 N.ar    1  UNL1       -0.2473
     19 C           0.3890    1.4000   26.2404 C.ar    1  UNL1        0.0967
     20 C          -0.3206    2.0593   25.0951 C.ar    1  UNL1        0.0411
     21 C          -1.4777    2.8350   25.6514 C.ar    1  UNL1        0.1217
     22 N          -1.4831    2.6552   27.1405 N.ar    1  UNL1       -0.1676
     23 C           5.8247   -3.4618   19.5172 C.3     1  UNL1        0.1952
     24 S           6.6716   -3.4890   20.7549 S.O2    1  UNL1        0.0453
     25 O           7.6059   -2.4910   20.1374 O.2     1  UNL1       -0.1572
     26 O           5.7374   -4.4870   21.3724 O.2     1  UNL1       -0.1572
     27 N           7.5187   -3.5162   21.9926 N.3     1  UNL1       -0.1769
     28 H           6.9008   -3.3075   22.7769 H       1  UNL1        0.1489
     29 C           8.2754   -4.7591   22.3564 C.3     1  UNL1        0.1365
     30 C           7.9627   -5.4808   23.6337 C.ar    1  UNL1        0.0766
     31 C           8.3928   -6.9064   23.8143 C.ar    1  UNL1        0.0162
     32 C           8.0801   -7.6282   25.0915 C.ar    1  UNL1        0.0028
     33 C           7.3372   -6.9241   26.1882 C.ar    1  UNL1        0.0207
     34 C           6.9072   -5.4985   26.0076 C.ar    1  UNL1        0.0985
     35 N           7.2199   -4.7768   24.7303 N.ar    1  UNL1       -0.2467
@<TRIPOS>BOND
     1    17    18    1
     2    18    19   ar
     3    19    20   ar
     4    20     1    1
     5     1     2   ar
     6     2     3   ar
     7     3     4   ar
     8     4     5   ar
     9     5     6   ar
    10     6     7   ar
    11     7     8   ar
    12     8     9   ar
    13     9    10   ar
    14    10    23    1
    15    23    24    1
    16    24    25    2
    17    24    26    2
    18    24    27    1
    19    27    29    1
    20    29    30    1
    21    30    31   ar
    22    31    32   ar
    23    32    33   ar
    24    33    34   ar
    25    34    35   ar
    26    10    11   ar
    27    11    12   ar
    28    12    13   ar
    29    13    14    2
    30    13    15   ar
    31    15    16   ar
    32    20    21   ar
    33    21    22   ar
    34    22    18   ar
    35    16     1   ar
    36    15     4   ar
    37    12     7   ar
    38    35    30   ar
    39    27    28    1
@<TRIPOS>MOLECULE
*****
 35 39 0 0 0
SMALL
GASTEIGER

@<TRIPOS>ATOM
      1 C           0.3349    1.6383   24.8206 C.ar    1  UNL1        0.0223
      2 C          -0.4984    2.6810   24.1362 C.ar    1  UNL1        0.0989
      3 N          -0.4175    2.8474   22.6477 N.ar    1  UNL1       -0.2437
      4 C           0.4966    1.9711   21.8436 C.ar    1  UNL1        0.0844
      5 C           0.4261    2.3008   20.3820 C.ar    1  UNL1        0.0192
      6 C           1.1716    1.6692   19.2438 C.ar    1  UNL1        0.0016
      7 C           2.1715    0.5520   19.2861 C.ar    1  UNL1        0.0031
      8 C           2.6821    0.2212   17.9150 C.ar    1  UNL1       -0.0002
      9 C           3.6941   -0.8711   17.7349 C.ar    1  UNL1       -0.0025
     10 C           4.1956   -1.6328   18.9258 C.ar    1  UNL1        0.0030
     11 C           3.6851   -1.3020   20.2969 C.ar    1  UNL1        0.0007
     12 C           2.6730   -0.2096   20.4771 C.ar    1  UNL1        0.0387
     13 C           2.2984   -0.0421   21.9199 C.ar    1  UNL1        0.1970
     14 O           2.9830   -0.9675   22.8817 O.2     1  UNL1       -0.2865
     15 C           1.3298    0.9284   22.5280 C.ar    1  UNL1        0.0566
     16 C           1.2490    0.7620   24.0165 C.ar    1  UNL1        0.0063
     17 C           1.6043    0.5419   29.8274 C.3     1  UNL1        0.1538
     18 N           0.8376    0.9678   28.6106 N.ar    1  UNL1       -0.2473
     19 C           1.3519    0.9730   27.2015 C.ar    1  UNL1        0.0967
     20 C           0.2541    1.4718   26.3092 C.ar    1  UNL1        0.0411
     21 C          -0.9386    1.7749   27.1669 C.ar    1  UNL1        0.1217
     22 N          -0.5780    1.4635   28.5892 N.ar    1  UNL1       -0.1676
     23 C           5.2077   -2.7252   18.7457 C.3     1  UNL1        0.1952
     24 S           6.6724   -2.4065   18.7979 S.O2    1  UNL1        0.0453
     25 O           6.7063   -2.3172   17.3009 O.2     1  UNL1       -0.1572
     26 O           6.6387   -2.4957   20.2949 O.2     1  UNL1       -0.1572
     27 N           8.1373   -2.0877   18.8500 N.3     1  UNL1       -0.1769
     28 H           8.5584   -2.5013   18.0182 H       1  UNL1        0.1489
     29 C           8.5927   -0.6595   18.9014 C.3     1  UNL1        0.1365
     30 C           7.6194    0.4484   18.6266 C.ar    1  UNL1        0.0766
     31 C           6.7702    0.9931   19.7365 C.ar    1  UNL1        0.0162
     32 C           5.7969    2.1009   19.4618 C.ar    1  UNL1        0.0028
     33 C           5.6730    2.6640   18.0770 C.ar    1  UNL1        0.0207
     34 C           6.5222    2.1193   16.9670 C.ar    1  UNL1        0.0985
     35 N           7.4955    1.0115   17.2418 N.ar    1  UNL1       -0.2467
@<TRIPOS>BOND
     1    17    18    1
     2    18    19   ar
     3    19    20   ar
     4    20     1    1
     5     1     2   ar
     6     2     3   ar
     7     3     4   ar
     8     4     5   ar
     9     5     6   ar
    10     6     7   ar
    11     7     8   ar
    12     8     9   ar
    13     9    10   ar
    14    10    23    1
    15    23    24    1
    16    24    25    2
    17    24    26    2
    18    24    27    1
    19    27    29    1
    20    29    30    1
    21    30    31   ar
    22    31    32   ar
    23    32    33   ar
    24    33    34   ar
    25    34    35   ar
    26    10    11   ar
    27    11    12   ar
    28    12    13   ar
    29    13    14    2
    30    13    15   ar
    31    15    16   ar
    32    20    21   ar
    33    21    22   ar
    34    22    18   ar
    35    16     1   ar
    36    15     4   ar
    37    12     7   ar
    38    35    30   ar
    39    27    28    1
@<TRIPOS>MOLECULE
*****
 35 39 0 0 0
SMALL
GASTEIGER

@<TRIPOS>ATOM
      1 C           7.4181   -4.5260   23.0333 C.ar    1  UNL1        0.0223
      2 C           8.6452   -4.5552   22.1712 C.ar    1  UNL1        0.0989
      3 N           8.6590   -3.8249   20.8611 N.ar    1  UNL1       -0.2437
      4 C           7.4456   -3.0654   20.4130 C.ar    1  UNL1        0.0844
      5 C           7.6693   -2.4112   19.0819 C.ar    1  UNL1        0.0192
      6 C           6.7210   -1.5661   18.2840 C.ar    1  UNL1        0.0016
      7 C           5.3148   -1.1666   18.6203 C.ar    1  UNL1        0.0031
      8 C           4.7158   -0.3110   17.5435 C.ar    1  UNL1       -0.0002
      9 C           3.3118    0.1977   17.6839 C.ar    1  UNL1       -0.0025
     10 C           2.5066   -0.1492   18.9010 C.ar    1  UNL1        0.0030
     11 C           3.1055   -1.0047   19.9778 C.ar    1  UNL1        0.0007
     12 C           4.5097   -1.5134   19.8374 C.ar    1  UNL1        0.0387
     13 C           4.9118   -2.3455   21.0189 C.ar    1  UNL1        0.1970
     14 O           3.8695   -2.5084   22.0852 O.2     1  UNL1       -0.2865
     15 C           6.2184   -3.0362   21.2750 C.ar    1  UNL1        0.0566
     16 C           6.2047   -3.7665   22.5852 C.ar    1  UNL1        0.0063
     17 C           8.1150   -8.2430   26.7182 C.3     1  UNL1        0.1538
     18 N           7.7246   -6.9649   26.0372 N.ar    1  UNL1       -0.2473
     19 C           7.9489   -6.6316   24.5920 C.ar    1  UNL1        0.0967
     20 C           7.4042   -5.2563   24.3435 C.ar    1  UNL1        0.0411
     21 C           6.8434   -4.7394   25.6351 C.ar    1  UNL1        0.1217
     22 N           7.0414   -5.7953   26.6819 N.ar    1  UNL1       -0.1676
     23 C           1.1024    0.3595   19.0415 C.3     1  UNL1        0.1952
     24 S           0.7389    1.2493   20.1930 S.O2    1  UNL1        0.0453
     25 O           1.6588    2.3095   19.6641 O.2     1  UNL1       -0.1572
     26 O          -0.1811    0.1891   20.7219 O.2     1  UNL1       -0.1572
     27 N           0.3753    2.1392   21.3445 N.3     1  UNL1       -0.1769
     28 H           1.2380    2.3271   21.8553 H       1  UNL1        0.1489
     29 C          -0.2753    3.4666   21.0903 C.3     1  UNL1        0.1365
     30 C          -1.6499    3.5260   20.4928 C.ar    1  UNL1        0.0766
     31 C          -1.8340    3.9948   19.0800 C.ar    1  UNL1        0.0162
     32 C          -3.2086    4.0542   18.4825 C.ar    1  UNL1        0.0028
     33 C          -4.3991    3.6446   19.2980 C.ar    1  UNL1        0.0207
     34 C          -4.2150    3.1758   20.7109 C.ar    1  UNL1        0.0985
     35 N          -2.8404    3.1164   21.3084 N.ar    1  UNL1       -0.2467
@<TRIPOS>BOND
     1    17    18    1
     2    18    19   ar
     3    19    20   ar
     4    20     1    1
     5     1     2   ar
     6     2     3   ar
     7     3     4   ar
     8     4     5   ar
     9     5     6   ar
    10     6     7   ar
    11     7     8   ar
    12     8     9   ar
    13     9    10   ar
    14    10    23    1
    15    23    24    1
    16    24    25    2
    17    24    26    2
    18    24    27    1
    19    27    29    1
    20    29    30    1
    21    30    31   ar
    22    31    32   ar
    23    32    33   ar
    24    33    34   ar
    25    34    35   ar
    26    10    11   ar
    27    11    12   ar
    28    12    13   ar
    29    13    14    2
    30    13    15   ar
    31    15    16   ar
    32    20    21   ar
    33    21    22   ar
    34    22    18   ar
    35    16     1   ar
    36    15     4   ar
    37    12     7   ar
    38    35    30   ar
    39    27    28    1
@<TRIPOS>MOLECULE
*****
 35 39 0 0 0
SMALL
GASTEIGER

@<TRIPOS>ATOM
      1 C           1.7645    0.5954   19.6504 C.ar    1  UNL1        0.0223
      2 C           0.8779    1.5093   18.8576 C.ar    1  UNL1        0.0989
      3 N          -0.1111    2.3909   19.5610 N.ar    1  UNL1       -0.2437
      4 C          -0.2134    2.3585   21.0572 C.ar    1  UNL1        0.0844
      5 C          -1.2588    3.3117   21.5557 C.ar    1  UNL1        0.0192
      6 C          -1.6759    3.5864   22.9702 C.ar    1  UNL1        0.0016
      7 C          -1.1504    2.9757   24.2354 C.ar    1  UNL1        0.0031
      8 C          -1.8450    3.5329   25.4425 C.ar    1  UNL1       -0.0002
      9 C          -1.4673    3.0540   26.8129 C.ar    1  UNL1       -0.0025
     10 C          -0.3951    2.0178   26.9762 C.ar    1  UNL1        0.0030
     11 C           0.2994    1.4606   25.7691 C.ar    1  UNL1        0.0007
     12 C          -0.0782    1.9395   24.3987 C.ar    1  UNL1        0.0387
     13 C           0.7334    1.2581   23.3371 C.ar    1  UNL1        0.1970
     14 O           1.7380    0.2580   23.8275 O.2     1  UNL1       -0.2865
     15 C           0.6732    1.4446   21.8500 C.ar    1  UNL1        0.0566
     16 C           1.6621    0.5630   21.1466 C.ar    1  UNL1        0.0063
     17 C           5.2824   -3.2173   18.6663 C.3     1  UNL1        0.1538
     18 N           4.3705   -2.0388   18.4948 N.ar    1  UNL1       -0.2473
     19 C           3.4887   -1.4449   19.5529 C.ar    1  UNL1        0.0967
     20 C           2.7535   -0.2862   18.9471 C.ar    1  UNL1        0.0411
     21 C           3.1810   -0.1640   17.5145 C.ar    1  UNL1        0.1217
     22 N           4.1803   -1.2471   17.2349 N.ar    1  UNL1       -0.1676
     23 C          -0.0174    1.5388   28.3466 C.3     1  UNL1        0.1952
     24 S           0.8409    0.3188   28.5045 S.O2    1  UNL1        0.0453
     25 O          -0.3885   -0.5390   28.5587 O.2     1  UNL1       -0.1572
     26 O           2.0702    1.1766   28.4504 O.2     1  UNL1       -0.1572
     27 N           1.6991   -0.9012   28.6624 N.3     1  UNL1       -0.1769
     28 H           1.5028   -1.5047   27.8638 H       1  UNL1        0.1489
     29 C           3.1905   -0.7635   28.7448 C.3     1  UNL1        0.1365
     30 C           4.0557   -1.3063   27.6462 C.ar    1  UNL1        0.0766
     31 C           5.3239   -2.0342   27.9805 C.ar    1  UNL1        0.0162
     32 C           6.1891   -2.5770   26.8820 C.ar    1  UNL1        0.0028
     33 C           5.7860   -2.3918   25.4490 C.ar    1  UNL1        0.0207
     34 C           4.5177   -1.6640   25.1147 C.ar    1  UNL1        0.0985
     35 N           3.6526   -1.1212   26.2133 N.ar    1  UNL1       -0.2467
@<TRIPOS>BOND
     1    17    18    1
     2    18    19   ar
     3    19    20   ar
     4    20     1    1
     5     1     2   ar
     6     2     3   ar
     7     3     4   ar
     8     4     5   ar
     9     5     6   ar
    10     6     7   ar
    11     7     8   ar
    12     8     9   ar
    13     9    10   ar
    14    10    23    1
    15    23    24    1
    16    24    25    2
    17    24    26    2
    18    24    27    1
    19    27    29    1
    20    29    30    1
    21    30    31   ar
    22    31    32   ar
    23    32    33   ar
    24    33    34   ar
    25    34    35   ar
    26    10    11   ar
    27    11    12   ar
    28    12    13   ar
    29    13    14    2
    30    13    15   ar
    31    15    16   ar
    32    20    21   ar
    33    21    22   ar
    34    22    18   ar
    35    16     1   ar
    36    15     4   ar
    37    12     7   ar
    38    35    30   ar
    39    27    28    1
@<TRIPOS>MOLECULE
*****
 35 39 0 0 0
SMALL
GASTEIGER

@<TRIPOS>ATOM
      1 C           7.4402   -4.6188   23.0792 C.ar    1  UNL1        0.0223
      2 C           8.6661   -4.6511   22.2154 C.ar    1  UNL1        0.0989
      3 N           8.6811   -3.9179   20.9070 N.ar    1  UNL1       -0.2437
      4 C           7.4703   -3.1525   20.4622 C.ar    1  UNL1        0.0844
      5 C           7.6948   -2.4961   19.1323 C.ar    1  UNL1        0.0192
      6 C           6.7489   -1.6453   18.3375 C.ar    1  UNL1        0.0016
      7 C           5.3449   -1.2409   18.6765 C.ar    1  UNL1        0.0031
      8 C           4.7480   -0.3804   17.6025 C.ar    1  UNL1       -0.0002
      9 C           3.3462    0.1336   17.7459 C.ar    1  UNL1       -0.0025
     10 C           2.5412   -0.2127   18.9633 C.ar    1  UNL1        0.0030
     11 C           3.1381   -1.0731   20.0373 C.ar    1  UNL1        0.0007
     12 C           4.5399   -1.5872   19.8939 C.ar    1  UNL1        0.0387
     13 C           4.9402   -2.4236   21.0731 C.ar    1  UNL1        0.1970
     14 O           3.8986   -2.5846   22.1403 O.2     1  UNL1       -0.2865
     15 C           6.2443   -3.1202   21.3259 C.ar    1  UNL1        0.0566
     16 C           6.2293   -3.8533   22.6344 C.ar    1  UNL1        0.0063
     17 C           8.1390   -8.3417   26.7579 C.3     1  UNL1        0.1538
     18 N           7.7464   -7.0633   26.0786 N.ar    1  UNL1       -0.2473
     19 C           7.9735   -6.7262   24.6348 C.ar    1  UNL1        0.0967
     20 C           7.4251   -5.3520   24.3877 C.ar    1  UNL1        0.0411
     21 C           6.8590   -4.8398   25.6789 C.ar    1  UNL1        0.1217
     22 N           7.0575   -5.8974   26.7239 N.ar    1  UNL1       -0.1676
     23 C           1.1393    0.3014   19.1068 C.3     1  UNL1        0.1952
     24 S           0.7426    1.0646   20.3356 S.O2    1  UNL1        0.0453
     25 O           1.5704    2.2294   19.8794 O.2     1  UNL1       -0.1572
     26 O          -0.0853   -0.1001   20.7919 O.2     1  UNL1       -0.1572
     27 N           0.3458    1.8279   21.5645 N.3     1  UNL1       -0.1769
     28 H          -0.1836    1.1843   22.1527 H       1  UNL1        0.1489
     29 C           1.3986    2.4452   22.4365 C.3     1  UNL1        0.1365
     30 C           2.4425    1.5803   23.0786 C.ar    1  UNL1        0.0766
     31 C           3.8515    1.5982   22.5643 C.ar    1  UNL1        0.0162
     32 C           4.8953    0.7334   23.2064 C.ar    1  UNL1        0.0028
     33 C           4.5302   -0.1496   24.3628 C.ar    1  UNL1        0.0207
     34 C           3.1212   -0.1676   24.8771 C.ar    1  UNL1        0.0985
     35 N           2.0773    0.6974   24.2350 N.ar    1  UNL1       -0.2467
@<TRIPOS>BOND
     1    17    18    1
     2    18    19   ar
     3    19    20   ar
     4    20     1    1
     5     1     2   ar
     6     2     3   ar
     7     3     4   ar
     8     4     5   ar
     9     5     6   ar
    10     6     7   ar
    11     7     8   ar
    12     8     9   ar
    13     9    10   ar
    14    10    23    1
    15    23    24    1
    16    24    25    2
    17    24    26    2
    18    24    27    1
    19    27    29    1
    20    29    30    1
    21    30    31   ar
    22    31    32   ar
    23    32    33   ar
    24    33    34   ar
    25    34    35   ar
    26    10    11   ar
    27    11    12   ar
    28    12    13   ar
    29    13    14    2
    30    13    15   ar
    31    15    16   ar
    32    20    21   ar
    33    21    22   ar
    34    22    18   ar
    35    16     1   ar
    36    15     4   ar
    37    12     7   ar
    38    35    30   ar
    39    27    28    1
