@<TRIPOS>MOLECULE
*****
 30 31 0 0 0
SMALL
GASTEIGER

@<TRIPOS>ATOM
      1 N          -3.7848  -18.9899   20.4247 N.3     1  UNL1       -0.2698
      2 C          -3.6314  -20.4762   20.2921 C.3     1  UNL1        0.0723
      3 C          -4.8461  -21.3473   20.1666 C.3     1  UNL1        0.0191
      4 C          -6.2141  -20.7322   20.1735 C.3     1  UNL1        0.0224
      5 C          -6.3675  -19.2460   20.3061 C.3     1  UNL1        0.0878
      6 C          -5.1529  -18.3749   20.4316 C.3     1  UNL1        0.0919
      7 N          -7.7356  -18.6309   20.3130 N.am    1  UNL1       -0.3011
      8 C          -8.6054  -18.7501   21.5292 C.2     1  UNL1        0.2459
      9 O          -8.1071  -19.4845   22.7385 O.2     1  UNL1       -0.2701
     10 H          -8.0627  -18.1489   19.5193 H       1  UNL1        0.1497
     11 C          -9.9735  -18.1350   21.5362 C.ar    1  UNL1        0.0550
     12 C         -10.3903  -17.2204   20.4227 C.ar    1  UNL1        0.0160
     13 C         -11.7583  -16.6053   20.4297 C.ar    1  UNL1        0.0587
     14 CL        -12.1752  -15.6908   19.3162 Cl      1  UNL1       -0.0822
     15 C         -12.7096  -16.9048   21.5502 C.ar    1  UNL1        0.0228
     16 C         -12.2928  -17.8193   22.6637 C.ar    1  UNL1        0.0587
     17 CL        -13.2440  -18.1188   23.7841 Cl      1  UNL1       -0.0822
     18 C         -10.9247  -18.4344   22.6567 C.ar    1  UNL1        0.0160
     19 C          -2.5702  -18.1188   20.5503 C.3     1  UNL1        0.0937
     20 C          -2.2904  -17.4032   21.8385 C.3     1  UNL1        0.1082
     21 N          -5.1008  -15.2577   23.6409 N.am    1  UNL1       -0.2921
     22 C          -4.2530  -16.4258   23.2324 C.2     1  UNL1        0.3007
     23 O          -4.5200  -17.7844   23.8092 O.2     1  UNL1       -0.2528
     24 N          -3.1382  -16.2351   22.2470 N.am    1  UNL1       -0.2875
     25 H          -4.9256  -14.3660   23.2623 H       1  UNL1        0.1508
     26 H          -2.9630  -15.3434   21.8684 H       1  UNL1        0.1510
     27 C          -5.2580  -15.2094   25.7558 C.3     1  UNL1        0.0197
     28 C          -6.2156  -15.4483   24.6263 C.3     1  UNL1        0.0583
     29 C          -7.1732  -15.6872   23.4967 C.3     1  UNL1        0.0197
     30 C          -7.3304  -15.6389   25.6116 C.3     1  UNL1        0.0197
@<TRIPOS>BOND
     1    27    28    1
     2    28    29    1
     3    28    30    1
     4    28    21    1
     5    21    22   am
     6    22    23    2
     7    22    24   am
     8    24    20    1
     9    20    19    1
    10    19     1    1
    11     1     2    1
    12     2     3    1
    13     3     4    1
    14     4     5    1
    15     5     7    1
    16     7     8   am
    17     8     9    2
    18     8    11    1
    19    11    12   ar
    20    12    13   ar
    21    13    14    1
    22    13    15   ar
    23    15    16   ar
    24    16    17    1
    25    16    18   ar
    26     5     6    1
    27     6     1    1
    28    18    11   ar
    29    21    25    1
    30    24    26    1
    31     7    10    1
@<TRIPOS>MOLECULE
*****
 30 31 0 0 0
SMALL
GASTEIGER

@<TRIPOS>ATOM
      1 N          -3.8452  -19.0953   21.9056 N.3     1  UNL1       -0.2698
      2 C          -3.3973  -20.0316   20.8227 C.3     1  UNL1        0.0723
      3 C          -4.4128  -20.7713   20.0033 C.3     1  UNL1        0.0191
      4 C          -5.8764  -20.5748   20.2668 C.3     1  UNL1        0.0224
      5 C          -6.3243  -19.6386   21.3498 C.3     1  UNL1        0.0878
      6 C          -5.3087  -18.8988   22.1691 C.3     1  UNL1        0.0919
      7 N          -7.7879  -19.4420   21.6133 N.am    1  UNL1       -0.3011
      8 C          -8.3476  -18.0562   21.7405 C.2     1  UNL1        0.2459
      9 O          -7.4438  -16.8669   21.6040 O.2     1  UNL1       -0.2701
     10 H          -8.3811  -20.2226   21.7029 H       1  UNL1        0.1497
     11 C          -9.8111  -17.8597   22.0041 C.ar    1  UNL1        0.0550
     12 C         -10.4333  -18.4310   23.2436 C.ar    1  UNL1        0.0160
     13 C         -11.8968  -18.2345   23.5071 C.ar    1  UNL1        0.0587
     14 CL        -12.5191  -18.8058   24.7467 Cl      1  UNL1       -0.0822
     15 C         -12.7381  -17.4666   22.5311 C.ar    1  UNL1        0.0228
     16 C         -12.1160  -16.8953   21.2916 C.ar    1  UNL1        0.0587
     17 CL        -12.9573  -16.1274   20.3156 Cl      1  UNL1       -0.0822
     18 C         -10.6525  -17.0918   21.0281 C.ar    1  UNL1        0.0160
     19 C          -2.8296  -18.3556   22.7250 C.3     1  UNL1        0.0937
     20 C          -2.7543  -16.8592   22.6537 C.3     1  UNL1        0.1082
     21 N          -6.0231  -15.3487   24.3220 N.am    1  UNL1       -0.2921
     22 C          -4.7859  -16.1724   24.1204 C.2     1  UNL1        0.3007
     23 O          -4.3428  -17.1329   25.1839 O.2     1  UNL1       -0.2528
     24 N          -3.9916  -16.0355   22.8553 N.am    1  UNL1       -0.2875
     25 H          -6.3139  -14.7182   23.6240 H       1  UNL1        0.1508
     26 H          -4.2824  -15.4051   22.1573 H       1  UNL1        0.1510
     27 C          -5.6610  -14.9409   26.3720 C.3     1  UNL1        0.0197
     28 C          -6.8174  -15.4855   25.5871 C.3     1  UNL1        0.0583
     29 C          -7.9738  -16.0301   24.8021 C.3     1  UNL1        0.0197
     30 C          -7.6117  -15.6224   26.8522 C.3     1  UNL1        0.0197
@<TRIPOS>BOND
     1    27    28    1
     2    28    29    1
     3    28    30    1
     4    28    21    1
     5    21    22   am
     6    22    23    2
     7    22    24   am
     8    24    20    1
     9    20    19    1
    10    19     1    1
    11     1     2    1
    12     2     3    1
    13     3     4    1
    14     4     5    1
    15     5     7    1
    16     7     8   am
    17     8     9    2
    18     8    11    1
    19    11    12   ar
    20    12    13   ar
    21    13    14    1
    22    13    15   ar
    23    15    16   ar
    24    16    17    1
    25    16    18   ar
    26     5     6    1
    27     6     1    1
    28    18    11   ar
    29    21    25    1
    30    24    26    1
    31     7    10    1
@<TRIPOS>MOLECULE
*****
 30 31 0 0 0
SMALL
GASTEIGER

@<TRIPOS>ATOM
      1 N         -10.3091  -19.5582   22.0298 N.3     1  UNL1       -0.2698
      2 C         -11.0359  -19.8924   20.7609 C.3     1  UNL1        0.0723
      3 C         -10.3420  -19.7480   19.4389 C.3     1  UNL1        0.0191
      4 C          -8.9214  -19.2695   19.3858 C.3     1  UNL1        0.0224
      5 C          -8.1947  -18.9353   20.6546 C.3     1  UNL1        0.0878
      6 C          -8.8885  -19.0796   21.9767 C.3     1  UNL1        0.0919
      7 N          -6.7740  -18.4567   20.6016 N.am    1  UNL1       -0.3011
      8 C          -5.6534  -19.4462   20.4788 C.2     1  UNL1        0.2459
      9 O          -5.9534  -20.9142   20.4092 O.2     1  UNL1       -0.2701
     10 H          -6.5771  -17.4932   20.6473 H       1  UNL1        0.1497
     11 C          -4.2327  -18.9676   20.4257 C.ar    1  UNL1        0.0550
     12 C          -3.4397  -18.8304   21.6915 C.ar    1  UNL1        0.0160
     13 C          -2.0192  -18.3518   21.6384 C.ar    1  UNL1        0.0587
     14 CL         -1.2261  -18.2146   22.9042 Cl      1  UNL1       -0.0822
     15 C          -1.3916  -18.0105   20.3194 C.ar    1  UNL1        0.0228
     16 C          -2.1845  -18.1477   19.0536 C.ar    1  UNL1        0.0587
     17 CL         -1.5569  -17.8064   17.7347 Cl      1  UNL1       -0.0822
     18 C          -3.6051  -18.6263   19.1068 C.ar    1  UNL1        0.0160
     19 C         -11.0030  -19.7025   23.3518 C.3     1  UNL1        0.0937
     20 C         -11.4742  -18.4838   24.0886 C.3     1  UNL1        0.1082
     21 N          -8.6800  -15.7889   24.9132 N.am    1  UNL1       -0.2921
     22 C          -9.4884  -17.0516   24.9579 C.2     1  UNL1        0.3007
     23 O          -9.1196  -18.1448   25.9164 O.2     1  UNL1       -0.2528
     24 N         -10.6658  -17.2211   24.0439 N.am    1  UNL1       -0.2875
     25 H          -8.9221  -15.0714   24.2841 H       1  UNL1        0.1508
     26 H         -10.9079  -16.5036   23.4148 H       1  UNL1        0.1510
     27 C          -6.5734  -15.8591   24.6744 C.3     1  UNL1        0.0197
     28 C          -7.5027  -15.6194   25.8271 C.3     1  UNL1        0.0583
     29 C          -8.4321  -15.3797   26.9798 C.3     1  UNL1        0.0197
     30 C          -6.3254  -15.4498   26.7411 C.3     1  UNL1        0.0197
@<TRIPOS>BOND
     1    27    28    1
     2    28    29    1
     3    28    30    1
     4    28    21    1
     5    21    22   am
     6    22    23    2
     7    22    24   am
     8    24    20    1
     9    20    19    1
    10    19     1    1
    11     1     2    1
    12     2     3    1
    13     3     4    1
    14     4     5    1
    15     5     7    1
    16     7     8   am
    17     8     9    2
    18     8    11    1
    19    11    12   ar
    20    12    13   ar
    21    13    14    1
    22    13    15   ar
    23    15    16   ar
    24    16    17    1
    25    16    18   ar
    26     5     6    1
    27     6     1    1
    28    18    11   ar
    29    21    25    1
    30    24    26    1
    31     7    10    1
@<TRIPOS>MOLECULE
*****
 30 31 0 0 0
SMALL
GASTEIGER

@<TRIPOS>ATOM
      1 N         -10.5380  -18.3795   19.8174 N.3     1  UNL1       -0.2698
      2 C         -11.4913  -17.4521   19.1238 C.3     1  UNL1        0.0723
      3 C         -11.8595  -16.1434   19.7578 C.3     1  UNL1        0.0191
      4 C         -11.2745  -15.7623   21.0853 C.3     1  UNL1        0.0224
      5 C         -10.3213  -16.6898   21.7789 C.3     1  UNL1        0.0878
      6 C          -9.9531  -17.9984   21.1450 C.3     1  UNL1        0.0919
      7 N          -9.7363  -16.3086   23.1066 N.am    1  UNL1       -0.3011
      8 C          -8.2483  -16.2994   23.2956 C.2     1  UNL1        0.2459
      9 O          -7.3453  -16.6713   22.1571 O.2     1  UNL1       -0.2701
     10 H         -10.3290  -16.0646   23.8538 H       1  UNL1        0.1497
     11 C          -7.6633  -15.9183   24.6233 C.ar    1  UNL1        0.0550
     12 C          -6.1808  -15.9932   24.8389 C.ar    1  UNL1        0.0160
     13 C          -5.5958  -15.6120   26.1665 C.ar    1  UNL1        0.0587
     14 CL         -4.1132  -15.6869   26.3822 Cl      1  UNL1       -0.0822
     15 C          -6.4934  -15.1560   27.2784 C.ar    1  UNL1        0.0228
     16 C          -7.9759  -15.0811   27.0628 C.ar    1  UNL1        0.0587
     17 CL         -8.8734  -14.6251   28.1748 Cl      1  UNL1       -0.0822
     18 C          -8.5608  -15.4623   25.7352 C.ar    1  UNL1        0.0160
     19 C         -10.1698  -19.6882   19.1834 C.3     1  UNL1        0.0937
     20 C          -8.7269  -20.0409   18.9751 C.3     1  UNL1        0.1082
     21 N          -5.3145  -18.6034   20.4032 N.am    1  UNL1       -0.2921
     22 C          -6.3884  -19.5723   20.0056 C.2     1  UNL1        0.3007
     23 O          -6.1977  -21.0413   20.2410 O.2     1  UNL1       -0.2528
     24 N          -7.6530  -19.0720   19.3726 N.am    1  UNL1       -0.2875
     25 H          -5.4396  -17.6392   20.2487 H       1  UNL1        0.1508
     26 H          -7.7781  -18.1078   19.2181 H       1  UNL1        0.1510
     27 C          -3.4135  -19.2082   19.6819 C.3     1  UNL1        0.0197
     28 C          -4.0499  -19.1036   21.0361 C.3     1  UNL1        0.0583
     29 C          -4.6864  -18.9990   22.3904 C.3     1  UNL1        0.0197
     30 C          -2.7853  -19.6038   21.6692 C.3     1  UNL1        0.0197
@<TRIPOS>BOND
     1    27    28    1
     2    28    29    1
     3    28    30    1
     4    28    21    1
     5    21    22   am
     6    22    23    2
     7    22    24   am
     8    24    20    1
     9    20    19    1
    10    19     1    1
    11     1     2    1
    12     2     3    1
    13     3     4    1
    14     4     5    1
    15     5     7    1
    16     7     8   am
    17     8     9    2
    18     8    11    1
    19    11    12   ar
    20    12    13   ar
    21    13    14    1
    22    13    15   ar
    23    15    16   ar
    24    16    17    1
    25    16    18   ar
    26     5     6    1
    27     6     1    1
    28    18    11   ar
    29    21    25    1
    30    24    26    1
    31     7    10    1
@<TRIPOS>MOLECULE
*****
 30 31 0 0 0
SMALL
GASTEIGER

@<TRIPOS>ATOM
      1 N          -4.6978  -16.2362   24.1906 N.3     1  UNL1       -0.2698
      2 C          -4.5382  -15.8192   25.6226 C.3     1  UNL1        0.0723
      3 C          -5.7390  -15.4096   26.4228 C.3     1  UNL1        0.0191
      4 C          -7.0994  -15.4169   25.7910 C.3     1  UNL1        0.0224
      5 C          -7.2590  -15.8340   24.3590 C.3     1  UNL1        0.0878
      6 C          -6.0582  -16.2436   23.5588 C.3     1  UNL1        0.0919
      7 N          -8.6195  -15.8413   23.7272 N.am    1  UNL1       -0.3011
      8 C          -9.3812  -17.1274   23.6018 C.2     1  UNL1        0.2459
      9 O          -8.7825  -18.4061   24.1082 O.2     1  UNL1       -0.2701
     10 H          -9.0124  -15.0021   23.3948 H       1  UNL1        0.1497
     11 C         -10.7417  -17.1348   22.9699 C.ar    1  UNL1        0.0550
     12 C         -11.9091  -17.7175   23.7099 C.ar    1  UNL1        0.0160
     13 C         -13.2695  -17.7248   23.0780 C.ar    1  UNL1        0.0587
     14 CL        -14.4370  -18.3075   23.8179 Cl      1  UNL1       -0.0822
     15 C         -13.4624  -17.1495   21.7062 C.ar    1  UNL1        0.0228
     16 C         -12.2950  -16.5668   20.9663 C.ar    1  UNL1        0.0587
     17 CL        -12.4879  -15.9915   19.5945 Cl      1  UNL1       -0.0822
     18 C         -10.9346  -16.5594   21.5982 C.ar    1  UNL1        0.0160
     19 C          -3.4970  -16.6459   23.3904 C.3     1  UNL1        0.0937
     20 C          -3.2618  -18.0942   23.0790 C.3     1  UNL1        0.1082
     21 N          -6.3434  -20.1472   21.6511 N.am    1  UNL1       -0.2921
     22 C          -5.1844  -19.1978   21.7241 C.2     1  UNL1        0.3007
     23 O          -4.7889  -18.4027   20.5152 O.2     1  UNL1       -0.2528
     24 N          -4.4208  -19.0436   23.0060 N.am    1  UNL1       -0.2875
     25 H          -6.6030  -20.6690   22.4445 H       1  UNL1        0.1508
     26 H          -4.6804  -19.5654   23.7994 H       1  UNL1        0.1510
     27 C          -6.1794  -21.4029   19.9493 C.3     1  UNL1        0.0197
     28 C          -7.1070  -20.3014   20.3692 C.3     1  UNL1        0.0583
     29 C          -8.0345  -19.2000   20.7891 C.3     1  UNL1        0.0197
     30 C          -7.8706  -20.4557   19.0873 C.3     1  UNL1        0.0197
@<TRIPOS>BOND
     1    27    28    1
     2    28    29    1
     3    28    30    1
     4    28    21    1
     5    21    22   am
     6    22    23    2
     7    22    24   am
     8    24    20    1
     9    20    19    1
    10    19     1    1
    11     1     2    1
    12     2     3    1
    13     3     4    1
    14     4     5    1
    15     5     7    1
    16     7     8   am
    17     8     9    2
    18     8    11    1
    19    11    12   ar
    20    12    13   ar
    21    13    14    1
    22    13    15   ar
    23    15    16   ar
    24    16    17    1
    25    16    18   ar
    26     5     6    1
    27     6     1    1
    28    18    11   ar
    29    21    25    1
    30    24    26    1
    31     7    10    1
@<TRIPOS>MOLECULE
*****
 30 31 0 0 0
SMALL
GASTEIGER

@<TRIPOS>ATOM
      1 N          -8.0707  -15.5425   25.4042 N.3     1  UNL1       -0.2698
      2 C          -7.3890  -15.1637   26.6854 C.3     1  UNL1        0.0723
      3 C          -5.8911  -15.1590   26.7650 C.3     1  UNL1        0.0191
      4 C          -5.0750  -15.5330   25.5634 C.3     1  UNL1        0.0224
      5 C          -5.7567  -15.9118   24.2821 C.3     1  UNL1        0.0878
      6 C          -7.2546  -15.9165   24.2025 C.3     1  UNL1        0.0919
      7 N          -4.9406  -16.2858   23.0804 N.am    1  UNL1       -0.3011
      8 C          -3.9586  -17.4167   23.1631 C.2     1  UNL1        0.2459
      9 O          -3.7927  -18.1735   24.4475 O.2     1  UNL1       -0.2701
     10 H          -5.0495  -15.7891   22.2374 H       1  UNL1        0.1497
     11 C          -3.1425  -17.7907   21.9614 C.ar    1  UNL1        0.0550
     12 C          -3.5875  -18.9141   21.0726 C.ar    1  UNL1        0.0160
     13 C          -2.7714  -19.2881   19.8710 C.ar    1  UNL1        0.0587
     14 CL         -3.2165  -20.4115   18.9821 Cl      1  UNL1       -0.0822
     15 C          -1.5103  -18.5387   19.5580 C.ar    1  UNL1        0.0228
     16 C          -1.0652  -17.4154   20.4468 C.ar    1  UNL1        0.0587
     17 CL          0.1960  -16.6660   20.1339 Cl      1  UNL1       -0.0822
     18 C          -1.8813  -17.0413   21.6484 C.ar    1  UNL1        0.0160
     19 C          -9.5686  -15.5472   25.3245 C.3     1  UNL1        0.0937
     20 C         -10.2506  -15.9419   24.0482 C.3     1  UNL1        0.1082
     21 N          -9.5527  -19.0731   21.7119 N.am    1  UNL1       -0.2921
     22 C          -9.6305  -17.6558   22.1966 C.2     1  UNL1        0.3007
     23 O          -9.1662  -16.5349   21.3146 O.2     1  UNL1       -0.2528
     24 N         -10.1727  -17.3593   23.5634 N.am    1  UNL1       -0.2875
     25 H          -9.8574  -19.8088   22.2908 H       1  UNL1        0.1508
     26 H         -10.4775  -18.0950   24.1424 H       1  UNL1        0.1510
     27 C          -7.6249  -19.4549   20.9133 C.3     1  UNL1        0.0197
     28 C          -9.0105  -19.3697   20.3451 C.3     1  UNL1        0.0583
     29 C         -10.3961  -19.2844   19.7770 C.3     1  UNL1        0.0197
     30 C          -8.4683  -19.6662   18.9783 C.3     1  UNL1        0.0197
@<TRIPOS>BOND
     1    27    28    1
     2    28    29    1
     3    28    30    1
     4    28    21    1
     5    21    22   am
     6    22    23    2
     7    22    24   am
     8    24    20    1
     9    20    19    1
    10    19     1    1
    11     1     2    1
    12     2     3    1
    13     3     4    1
    14     4     5    1
    15     5     7    1
    16     7     8   am
    17     8     9    2
    18     8    11    1
    19    11    12   ar
    20    12    13   ar
    21    13    14    1
    22    13    15   ar
    23    15    16   ar
    24    16    17    1
    25    16    18   ar
    26     5     6    1
    27     6     1    1
    28    18    11   ar
    29    21    25    1
    30    24    26    1
    31     7    10    1
@<TRIPOS>MOLECULE
*****
 30 31 0 0 0
SMALL
GASTEIGER

@<TRIPOS>ATOM
      1 N          -8.0403  -15.5450   25.4172 N.3     1  UNL1       -0.2698
      2 C          -7.3575  -15.1571   26.6952 C.3     1  UNL1        0.0723
      3 C          -5.8596  -15.1526   26.7738 C.3     1  UNL1        0.0191
      4 C          -5.0445  -15.5360   25.5744 C.3     1  UNL1        0.0224
      5 C          -5.7273  -15.9238   24.2964 C.3     1  UNL1        0.0878
      6 C          -7.2252  -15.9284   24.2178 C.3     1  UNL1        0.0919
      7 N          -4.9121  -16.3072   23.0969 N.am    1  UNL1       -0.3011
      8 C          -3.9413  -17.4473   23.1832 C.2     1  UNL1        0.2459
      9 O          -3.7855  -18.2042   24.4688 O.2     1  UNL1       -0.2701
     10 H          -5.0144  -15.8105   22.2531 H       1  UNL1        0.1497
     11 C          -3.1262  -17.8307   21.9837 C.ar    1  UNL1        0.0550
     12 C          -1.8460  -17.1084   21.6849 C.ar    1  UNL1        0.0160
     13 C          -1.0309  -17.4917   20.4854 C.ar    1  UNL1        0.0587
     14 CL          0.2493  -16.7694   20.1865 Cl      1  UNL1       -0.0822
     15 C          -1.4961  -18.5975   19.5848 C.ar    1  UNL1        0.0228
     16 C          -2.7762  -19.3198   19.8837 C.ar    1  UNL1        0.0587
     17 CL         -3.2414  -20.4255   18.9831 Cl      1  UNL1       -0.0822
     18 C          -3.5913  -18.9364   21.0831 C.ar    1  UNL1        0.0160
     19 C          -9.5383  -15.5496   25.3386 C.3     1  UNL1        0.0937
     20 C         -10.2212  -15.9454   24.0632 C.3     1  UNL1        0.1082
     21 N          -9.5933  -19.0956   21.7326 N.am    1  UNL1       -0.2921
     22 C          -9.6572  -17.6743   22.2077 C.2     1  UNL1        0.3007
     23 O          -9.2209  -16.5606   21.3026 O.2     1  UNL1       -0.2528
     24 N         -10.1573  -17.3667   23.5880 N.am    1  UNL1       -0.2875
     25 H          -9.8797  -19.8266   22.3267 H       1  UNL1        0.1508
     26 H         -10.4437  -18.0976   24.1821 H       1  UNL1        0.1510
     27 C          -7.6886  -19.4647   20.8749 C.3     1  UNL1        0.0197
     28 C          -9.0932  -19.4033   20.3523 C.3     1  UNL1        0.0583
     29 C         -10.4978  -19.3419   19.8297 C.3     1  UNL1        0.0197
     30 C          -8.5931  -19.7110   18.9719 C.3     1  UNL1        0.0197
@<TRIPOS>BOND
     1    27    28    1
     2    28    29    1
     3    28    30    1
     4    28    21    1
     5    21    22   am
     6    22    23    2
     7    22    24   am
     8    24    20    1
     9    20    19    1
    10    19     1    1
    11     1     2    1
    12     2     3    1
    13     3     4    1
    14     4     5    1
    15     5     7    1
    16     7     8   am
    17     8     9    2
    18     8    11    1
    19    11    12   ar
    20    12    13   ar
    21    13    14    1
    22    13    15   ar
    23    15    16   ar
    24    16    17    1
    25    16    18   ar
    26     5     6    1
    27     6     1    1
    28    18    11   ar
    29    21    25    1
    30    24    26    1
    31     7    10    1
@<TRIPOS>MOLECULE
*****
 30 31 0 0 0
SMALL
GASTEIGER

@<TRIPOS>ATOM
      1 N           8.4439   -7.8852   27.8426 N.3     1  UNL1       -0.2698
      2 C           8.9745   -7.2190   29.0772 C.3     1  UNL1        0.0723
      3 C           8.5902   -5.8031   29.3896 C.3     1  UNL1        0.0191
      4 C           7.6753   -5.0534   28.4672 C.3     1  UNL1        0.0224
      5 C           7.1447   -5.7196   27.2325 C.3     1  UNL1        0.0878
      6 C           7.5289   -7.1355   26.9202 C.3     1  UNL1        0.0919
      7 N           6.2297   -4.9700   26.3100 N.am    1  UNL1       -0.3011
      8 C           6.7856   -4.2803   25.0996 C.2     1  UNL1        0.2459
      9 O           8.2564   -4.3402   24.8115 O.2     1  UNL1       -0.2701
     10 H           5.2643   -4.9306   26.4991 H       1  UNL1        0.1497
     11 C           5.8706   -3.5306   24.1771 C.ar    1  UNL1        0.0550
     12 C           5.0673   -2.3742   24.6941 C.ar    1  UNL1        0.0160
     13 C           4.1524   -1.6246   23.7716 C.ar    1  UNL1        0.0587
     14 CL          3.3490   -0.4681   24.2886 Cl      1  UNL1       -0.0822
     15 C           4.0407   -2.0314   22.3322 C.ar    1  UNL1        0.0228
     16 C           4.8441   -3.1878   21.8152 C.ar    1  UNL1        0.0587
     17 CL          4.7324   -3.5946   20.3757 Cl      1  UNL1       -0.0822
     18 C           5.7590   -3.9374   22.7376 C.ar    1  UNL1        0.0160
     19 C           8.8282   -9.3011   27.5302 C.3     1  UNL1        0.0937
     20 C           7.9867  -10.4355   28.0353 C.3     1  UNL1        0.1082
     21 N           4.2768  -11.7832   27.6216 N.am    1  UNL1       -0.2921
     22 C           5.7447  -11.7440   27.9278 C.2     1  UNL1        0.3007
     23 O           6.4386  -12.9743   28.4328 O.2     1  UNL1       -0.2528
     24 N           6.5188  -10.4746   27.7291 N.am    1  UNL1       -0.2875
     25 H           3.8214  -10.9757   27.2902 H       1  UNL1        0.1508
     26 H           6.0634   -9.6671   27.3976 H       1  UNL1        0.1510
     27 C           3.1150  -12.6005   29.1970 C.3     1  UNL1        0.0197
     28 C           3.5028  -13.0525   27.8204 C.3     1  UNL1        0.0583
     29 C           3.8907  -13.5046   26.4437 C.3     1  UNL1        0.0197
     30 C           2.7288  -14.3220   28.0191 C.3     1  UNL1        0.0197
@<TRIPOS>BOND
     1    27    28    1
     2    28    29    1
     3    28    30    1
     4    28    21    1
     5    21    22   am
     6    22    23    2
     7    22    24   am
     8    24    20    1
     9    20    19    1
    10    19     1    1
    11     1     2    1
    12     2     3    1
    13     3     4    1
    14     4     5    1
    15     5     7    1
    16     7     8   am
    17     8     9    2
    18     8    11    1
    19    11    12   ar
    20    12    13   ar
    21    13    14    1
    22    13    15   ar
    23    15    16   ar
    24    16    17    1
    25    16    18   ar
    26     5     6    1
    27     6     1    1
    28    18    11   ar
    29    21    25    1
    30    24    26    1
    31     7    10    1
@<TRIPOS>MOLECULE
*****
 30 31 0 0 0
SMALL
GASTEIGER

@<TRIPOS>ATOM
      1 N          -4.7138  -16.1874   24.3064 N.3     1  UNL1       -0.2698
      2 C          -4.4810  -15.5912   25.6630 C.3     1  UNL1        0.0723
      3 C          -5.6477  -15.2336   26.5353 C.3     1  UNL1        0.0191
      4 C          -7.0472  -15.4723   26.0511 C.3     1  UNL1        0.0224
      5 C          -7.2799  -16.0686   24.6945 C.3     1  UNL1        0.0878
      6 C          -6.1132  -16.4261   23.8222 C.3     1  UNL1        0.0919
      7 N          -8.6794  -16.3073   24.2102 N.am    1  UNL1       -0.3011
      8 C          -8.9961  -16.1976   22.7482 C.2     1  UNL1        0.2459
      9 O          -7.9133  -15.8492   21.7703 O.2     1  UNL1       -0.2701
     10 H          -9.3901  -16.5360   24.8520 H       1  UNL1        0.1497
     11 C         -10.3956  -16.4363   22.2639 C.ar    1  UNL1        0.0550
     12 C         -10.8010  -15.9875   20.8912 C.ar    1  UNL1        0.0160
     13 C         -12.2004  -16.2263   20.4070 C.ar    1  UNL1        0.0587
     14 CL        -12.6059  -15.7775   19.0343 Cl      1  UNL1       -0.0822
     15 C         -13.1945  -16.9138   21.2954 C.ar    1  UNL1        0.0228
     16 C         -12.7890  -17.3625   22.6680 C.ar    1  UNL1        0.0587
     17 CL        -13.7831  -18.0500   23.5565 Cl      1  UNL1       -0.0822
     18 C         -11.3896  -17.1238   23.1523 C.ar    1  UNL1        0.0160
     19 C          -3.5471  -16.5450   23.4341 C.3     1  UNL1        0.0937
     20 C          -3.2524  -17.9836   23.1282 C.3     1  UNL1        0.1082
     21 N          -6.2576  -20.1665   21.7305 N.am    1  UNL1       -0.2921
     22 C          -5.1394  -19.1686   21.7922 C.2     1  UNL1        0.3007
     23 O          -4.7901  -18.3578   20.5796 O.2     1  UNL1       -0.2528
     24 N          -4.3706  -18.9815   23.0665 N.am    1  UNL1       -0.2875
     25 H          -6.4869  -20.6987   22.5264 H       1  UNL1        0.1508
     26 H          -4.5999  -19.5137   23.8624 H       1  UNL1        0.1510
     27 C          -8.0189  -19.3217   20.9035 C.3     1  UNL1        0.0197
     28 C          -7.0265  -20.3537   20.4562 C.3     1  UNL1        0.0583
     29 C          -6.0341  -21.3856   20.0090 C.3     1  UNL1        0.0197
     30 C          -7.7953  -20.5408   19.1819 C.3     1  UNL1        0.0197
@<TRIPOS>BOND
     1    27    28    1
     2    28    29    1
     3    28    30    1
     4    28    21    1
     5    21    22   am
     6    22    23    2
     7    22    24   am
     8    24    20    1
     9    20    19    1
    10    19     1    1
    11     1     2    1
    12     2     3    1
    13     3     4    1
    14     4     5    1
    15     5     7    1
    16     7     8   am
    17     8     9    2
    18     8    11    1
    19    11    12   ar
    20    12    13   ar
    21    13    14    1
    22    13    15   ar
    23    15    16   ar
    24    16    17    1
    25    16    18   ar
    26     5     6    1
    27     6     1    1
    28    18    11   ar
    29    21    25    1
    30    24    26    1
    31     7    10    1
