@<TRIPOS>MOLECULE
*****
 25 27 0 0 0
SMALL
GASTEIGER

@<TRIPOS>ATOM
      1 C          -6.5458  -17.8577   21.7994 C.2     1  UNL1        0.2650
      2 O          -5.6818  -17.0867   22.7528 O.2     1  UNL1       -0.2684
      3 N          -5.9167  -18.6706   20.7069 N.am    1  UNL1       -0.3011
      4 H          -6.4837  -19.1767   20.0810 H       1  UNL1        0.1497
      5 C         -10.3582  -17.1330   21.7290 C.ar    1  UNL1        0.1239
      6 N          -8.9520  -16.7903   21.3351 N.ar    1  UNL1       -0.2260
      7 C          -8.0387  -17.8159   21.9385 C.ar    1  UNL1        0.1517
      8 C          -8.8805  -18.7924   22.7052 C.ar    1  UNL1        0.0872
      9 C          -8.5268  -20.0114   23.5046 C.ar    1  UNL1        0.0193
     10 C          -9.6066  -20.8083   24.1744 C.ar    1  UNL1        0.0031
     11 C         -11.0402  -20.3862   24.0450 C.ar    1  UNL1        0.0191
     12 C         -11.3939  -19.1672   23.2457 C.ar    1  UNL1        0.0811
     13 N         -10.3140  -18.3704   22.5758 N.ar    1  UNL1       -0.2921
     14 C         -12.5525  -15.9152   22.4018 C.3     1  UNL1        0.0079
     15 C         -11.5921  -16.3719   21.3438 C.3     1  UNL1        0.0573
     16 C         -11.8656  -16.0675   19.9008 C.3     1  UNL1        0.0079
     17 C          -4.4237  -18.7124   20.5678 C.3     1  UNL1        0.0747
     18 C          -3.5810  -19.2480   21.6872 C.3     1  UNL1        0.0369
     19 C          -2.0881  -19.2898   21.5481 C.3     1  UNL1        0.0739
     20 N          -1.4379  -18.7960   20.2898 N.3     1  UNL1       -0.2702
     21 C          -2.2806  -18.2604   19.1705 C.3     1  UNL1        0.0739
     22 C          -3.7735  -18.2186   19.3095 C.3     1  UNL1        0.0369
     23 C           0.0551  -18.8378   20.1509 C.3     1  UNL1        0.1107
     24 C           0.8406  -17.5606   20.1089 C.3     1  UNL1        0.2105
     25 F           2.1451  -17.4580   20.8422 F       1  UNL1       -0.2328
@<TRIPOS>BOND
     1    14    15    1
     2    15    16    1
     3    15     5    1
     4     5     6   ar
     5     6     7   ar
     6     7     1    1
     7     1     2    2
     8     1     3   am
     9     3    17    1
    10    17    18    1
    11    18    19    1
    12    19    20    1
    13    20    23    1
    14    23    24    1
    15    24    25    1
    16    20    21    1
    17    21    22    1
    18     7     8   ar
    19     8     9   ar
    20     9    10   ar
    21    10    11   ar
    22    11    12   ar
    23    12    13   ar
    24    13     5   ar
    25    22    17    1
    26    13     8   ar
    27     3     4    1
@<TRIPOS>MOLECULE
*****
 25 27 0 0 0
SMALL
GASTEIGER

@<TRIPOS>ATOM
      1 C          -7.6581  -17.9103   22.7665 C.2     1  UNL1        0.2650
      2 O          -8.0488  -16.5986   23.3800 O.2     1  UNL1       -0.2684
      3 N          -8.6875  -18.9843   22.5736 N.am    1  UNL1       -0.3011
      4 H          -8.4311  -19.8453   22.1709 H       1  UNL1        0.1497
      5 C          -3.8351  -17.9172   22.0961 C.ar    1  UNL1        0.1239
      6 N          -5.0509  -17.3215   22.7419 N.ar    1  UNL1       -0.2260
      7 C          -6.2381  -18.1483   22.3459 C.ar    1  UNL1        0.1517
      8 C          -5.7561  -19.2549   21.4553 C.ar    1  UNL1        0.0872
      9 C          -6.4776  -20.3742   20.7649 C.ar    1  UNL1        0.0193
     10 C          -5.7140  -21.3505   19.9203 C.ar    1  UNL1        0.0031
     11 C          -4.2288  -21.2077   19.7659 C.ar    1  UNL1        0.0191
     12 C          -3.5073  -20.0884   20.4562 C.ar    1  UNL1        0.0811
     13 N          -4.2709  -19.1120   21.3009 N.ar    1  UNL1       -0.2921
     14 C          -2.1084  -15.9924   21.8431 C.3     1  UNL1        0.0079
     15 C          -2.4301  -17.4074   22.2232 C.3     1  UNL1        0.0573
     16 C          -1.3468  -18.3125   22.7303 C.3     1  UNL1        0.0079
     17 C         -10.1075  -18.7463   22.9943 C.3     1  UNL1        0.0747
     18 C         -11.0698  -18.0904   22.0489 C.3     1  UNL1        0.0369
     19 C         -12.4898  -17.8524   22.4695 C.3     1  UNL1        0.0739
     20 N         -12.9475  -18.2703   23.8355 N.3     1  UNL1       -0.2702
     21 C         -11.9852  -18.9262   24.7809 C.3     1  UNL1        0.0739
     22 C         -10.5652  -19.1642   24.3602 C.3     1  UNL1        0.0369
     23 C         -14.3675  -18.0323   24.2561 C.3     1  UNL1        0.1107
     24 C         -14.8755  -18.6105   25.5436 C.3     1  UNL1        0.2105
     25 F         -14.3746  -18.0789   26.8537 F       1  UNL1       -0.2328
@<TRIPOS>BOND
     1    14    15    1
     2    15    16    1
     3    15     5    1
     4     5     6   ar
     5     6     7   ar
     6     7     1    1
     7     1     2    2
     8     1     3   am
     9     3    17    1
    10    17    18    1
    11    18    19    1
    12    19    20    1
    13    20    23    1
    14    23    24    1
    15    24    25    1
    16    20    21    1
    17    21    22    1
    18     7     8   ar
    19     8     9   ar
    20     9    10   ar
    21    10    11   ar
    22    11    12   ar
    23    12    13   ar
    24    13     5   ar
    25    22    17    1
    26    13     8   ar
    27     3     4    1
@<TRIPOS>MOLECULE
*****
 25 27 0 0 0
SMALL
GASTEIGER

@<TRIPOS>ATOM
      1 C          -7.8863  -17.6325   22.0099 C.2     1  UNL1        0.2650
      2 O          -7.0358  -16.4524   22.3758 O.2     1  UNL1       -0.2684
      3 N          -7.2535  -18.8605   21.4254 N.am    1  UNL1       -0.3011
      4 H          -7.8117  -19.6351   21.1852 H       1  UNL1        0.1497
      5 C         -11.5692  -17.8868   23.2084 C.ar    1  UNL1        0.1239
      6 N         -10.1075  -18.1646   23.3985 N.ar    1  UNL1       -0.2260
      7 C          -9.3695  -17.5846   22.2284 C.ar    1  UNL1        0.1517
      8 C         -10.3752  -16.9484   21.3152 C.ar    1  UNL1        0.0872
      9 C         -10.2286  -16.2232   20.0105 C.ar    1  UNL1        0.0193
     10 C         -11.4415  -15.6847   19.3114 C.ar    1  UNL1        0.0031
     11 C         -12.8010  -15.8715   19.9171 C.ar    1  UNL1        0.0191
     12 C         -12.9476  -16.5967   21.2218 C.ar    1  UNL1        0.0811
     13 N         -11.7347  -17.1352   21.9209 N.ar    1  UNL1       -0.2921
     14 C         -14.0944  -17.9413   23.8174 C.3     1  UNL1        0.0079
     15 C         -12.6719  -18.2899   24.1420 C.3     1  UNL1        0.0573
     16 C         -12.3524  -19.0416   25.4000 C.3     1  UNL1        0.0079
     17 C          -5.7703  -18.9084   21.2068 C.3     1  UNL1        0.0747
     18 C          -4.8389  -18.9147   22.3826 C.3     1  UNL1        0.0369
     19 C          -3.3556  -18.9625   22.1640 C.3     1  UNL1        0.0739
     20 N          -2.8039  -19.0040   20.7698 N.3     1  UNL1       -0.2702
     21 C          -3.7353  -18.9977   19.5941 C.3     1  UNL1        0.0739
     22 C          -5.2185  -18.9498   19.8126 C.3     1  UNL1        0.0369
     23 C          -1.3206  -19.0518   20.5514 C.3     1  UNL1        0.1107
     24 C          -0.5834  -17.8135   20.1356 C.3     1  UNL1        0.2105
     25 F          -1.0784  -16.4651   20.5680 F       1  UNL1       -0.2328
@<TRIPOS>BOND
     1    14    15    1
     2    15    16    1
     3    15     5    1
     4     5     6   ar
     5     6     7   ar
     6     7     1    1
     7     1     2    2
     8     1     3   am
     9     3    17    1
    10    17    18    1
    11    18    19    1
    12    19    20    1
    13    20    23    1
    14    23    24    1
    15    24    25    1
    16    20    21    1
    17    21    22    1
    18     7     8   ar
    19     8     9   ar
    20     9    10   ar
    21    10    11   ar
    22    11    12   ar
    23    12    13   ar
    24    13     5   ar
    25    22    17    1
    26    13     8   ar
    27     3     4    1
@<TRIPOS>MOLECULE
*****
 25 27 0 0 0
SMALL
GASTEIGER

@<TRIPOS>ATOM
      1 C          -6.0718  -18.4718   21.7763 C.2     1  UNL1        0.2650
      2 O          -5.2921  -17.6017   22.7169 O.2     1  UNL1       -0.2684
      3 N          -5.3713  -19.1796   20.6544 N.am    1  UNL1       -0.3011
      4 H          -5.8830  -19.7507   20.0370 H       1  UNL1        0.1497
      5 C          -9.7637  -18.6829   22.9555 C.ar    1  UNL1        0.1239
      6 N          -8.3152  -18.4041   23.2280 N.ar    1  UNL1       -0.2260
      7 C          -7.5519  -18.6342   21.9574 C.ar    1  UNL1        0.1517
      8 C          -8.5286  -19.0554   20.8997 C.ar    1  UNL1        0.0872
      9 C          -8.3499  -19.4153   19.4545 C.ar    1  UNL1        0.0193
     10 C          -9.5381  -19.8053   18.6263 C.ar    1  UNL1        0.0031
     11 C         -10.9050  -19.8354   19.2432 C.ar    1  UNL1        0.0191
     12 C         -11.0838  -19.4755   20.6883 C.ar    1  UNL1        0.0811
     13 N          -9.8956  -19.0855   21.5166 N.ar    1  UNL1       -0.2921
     14 C         -10.7125  -19.1275   25.3330 C.3     1  UNL1        0.0079
     15 C         -10.8836  -18.5778   23.9478 C.3     1  UNL1        0.0573
     16 C         -12.1747  -17.9229   23.5550 C.3     1  UNL1        0.0079
     17 C          -3.8912  -19.0172   20.4733 C.3     1  UNL1        0.0747
     18 C          -2.9437  -19.6124   21.4722 C.3     1  UNL1        0.0369
     19 C          -1.4635  -19.4499   21.2911 C.3     1  UNL1        0.0739
     20 N          -0.9310  -18.6923   20.1111 N.3     1  UNL1       -0.2702
     21 C          -1.8785  -18.0971   19.1122 C.3     1  UNL1        0.0739
     22 C          -3.3586  -18.2596   19.2933 C.3     1  UNL1        0.0369
     23 C           0.5492  -18.5300   19.9300 C.3     1  UNL1        0.1107
     24 C           1.2259  -17.2687   20.3786 C.3     1  UNL1        0.2105
     25 F           2.5829  -17.3310   21.0147 F       1  UNL1       -0.2328
@<TRIPOS>BOND
     1    14    15    1
     2    15    16    1
     3    15     5    1
     4     5     6   ar
     5     6     7   ar
     6     7     1    1
     7     1     2    2
     8     1     3   am
     9     3    17    1
    10    17    18    1
    11    18    19    1
    12    19    20    1
    13    20    23    1
    14    23    24    1
    15    24    25    1
    16    20    21    1
    17    21    22    1
    18     7     8   ar
    19     8     9   ar
    20     9    10   ar
    21    10    11   ar
    22    11    12   ar
    23    12    13   ar
    24    13     5   ar
    25    22    17    1
    26    13     8   ar
    27     3     4    1
@<TRIPOS>MOLECULE
*****
 25 27 0 0 0
SMALL
GASTEIGER

@<TRIPOS>ATOM
      1 C         -14.4636   -3.4527   19.9651 C.2     1  UNL1        0.2650
      2 O         -14.2269   -2.9221   21.3479 O.2     1  UNL1       -0.2684
      3 N         -15.5902   -2.9102   19.1363 N.am    1  UNL1       -0.3011
      4 H         -15.7456   -3.2584   18.2287 H       1  UNL1        0.1497
      5 C         -11.6085   -5.7330   18.6560 C.ar    1  UNL1        0.1239
      6 N         -12.0859   -4.4381   19.2436 N.ar    1  UNL1       -0.2260
      7 C         -13.5740   -4.5257   19.4109 C.ar    1  UNL1        0.1517
      8 C         -14.0163   -5.8748   18.9268 C.ar    1  UNL1        0.0872
      9 C         -15.3681   -6.5202   18.8505 C.ar    1  UNL1        0.0193
     10 C         -15.5053   -7.9117   18.3076 C.ar    1  UNL1        0.0031
     11 C         -14.2905   -8.6579   17.8410 C.ar    1  UNL1        0.0191
     12 C         -12.9387   -8.0125   17.9173 C.ar    1  UNL1        0.0811
     13 N         -12.8015   -6.6209   18.4602 N.ar    1  UNL1       -0.2921
     14 C          -9.5540   -7.3016   18.9182 C.3     1  UNL1        0.0079
     15 C         -10.1876   -6.0792   18.3228 C.3     1  UNL1        0.0573
     16 C          -9.4002   -5.2032   17.3941 C.3     1  UNL1        0.0079
     17 C         -16.4798   -1.8371   19.6905 C.3     1  UNL1        0.0747
     18 C         -15.9158   -0.4830   20.0039 C.3     1  UNL1        0.0369
     19 C         -16.8054    0.5900   20.5581 C.3     1  UNL1        0.0739
     20 N         -18.2590    0.3089   20.7989 N.3     1  UNL1       -0.2702
     21 C         -18.8231   -1.0452   20.4855 C.3     1  UNL1        0.0739
     22 C         -17.9334   -2.1182   19.9313 C.3     1  UNL1        0.0369
     23 C         -19.1486    1.3820   21.3531 C.3     1  UNL1        0.1107
     24 C         -18.5992    2.3843   22.3244 C.3     1  UNL1        0.2105
     25 F         -17.6952    1.9357   23.4342 F       1  UNL1       -0.2328
@<TRIPOS>BOND
     1    14    15    1
     2    15    16    1
     3    15     5    1
     4     5     6   ar
     5     6     7   ar
     6     7     1    1
     7     1     2    2
     8     1     3   am
     9     3    17    1
    10    17    18    1
    11    18    19    1
    12    19    20    1
    13    20    23    1
    14    23    24    1
    15    24    25    1
    16    20    21    1
    17    21    22    1
    18     7     8   ar
    19     8     9   ar
    20     9    10   ar
    21    10    11   ar
    22    11    12   ar
    23    12    13   ar
    24    13     5   ar
    25    22    17    1
    26    13     8   ar
    27     3     4    1
@<TRIPOS>MOLECULE
*****
 25 27 0 0 0
SMALL
GASTEIGER

@<TRIPOS>ATOM
      1 C           6.4131   -3.6467   24.5411 C.2     1  UNL1        0.2650
      2 O           7.1258   -2.5510   25.2768 O.2     1  UNL1       -0.2684
      3 N           6.4490   -5.0507   25.0683 N.am    1  UNL1       -0.3011
      4 H           5.9813   -5.7699   24.5855 H       1  UNL1        0.1497
      5 C           4.8906   -3.4058   20.9790 C.ar    1  UNL1        0.1239
      6 N           5.8363   -4.0331   21.9598 N.ar    1  UNL1       -0.2260
      7 C           5.6645   -3.3388   23.2783 C.ar    1  UNL1        0.1517
      8 C           4.6126   -2.2824   23.1123 C.ar    1  UNL1        0.0872
      9 C           4.0284   -1.2881   24.0715 C.ar    1  UNL1        0.0193
     10 C           2.9661   -0.3353   23.6096 C.ar    1  UNL1        0.0031
     11 C           2.4878   -0.3767   22.1885 C.ar    1  UNL1        0.0191
     12 C           3.0719   -1.3710   21.2293 C.ar    1  UNL1        0.0811
     13 N           4.1343   -2.3239   21.6912 N.ar    1  UNL1       -0.2921
     14 C           4.0198   -5.0642   19.1784 C.3     1  UNL1        0.0079
     15 C           4.7295   -3.7926   19.5387 C.3     1  UNL1        0.0573
     16 C           5.2779   -2.9081   18.4586 C.3     1  UNL1        0.0079
     17 C           7.1977   -5.3586   26.3312 C.3     1  UNL1        0.0747
     18 C           6.4745   -5.3814   27.6451 C.3     1  UNL1        0.0369
     19 C           7.2231   -5.6893   28.9079 C.3     1  UNL1        0.0739
     20 N           8.6948   -5.9745   28.8568 N.3     1  UNL1       -0.2702
     21 C           9.4180   -5.9518   27.5428 C.3     1  UNL1        0.0739
     22 C           8.6694   -5.6438   26.2800 C.3     1  UNL1        0.0369
     23 C           9.4434   -6.2825   30.1197 C.3     1  UNL1        0.1107
     24 C           8.6934   -6.5293   31.3950 C.3     1  UNL1        0.2105
     25 F           9.1217   -7.6336   32.3153 F       1  UNL1       -0.2328
@<TRIPOS>BOND
     1    14    15    1
     2    15    16    1
     3    15     5    1
     4     5     6   ar
     5     6     7   ar
     6     7     1    1
     7     1     2    2
     8     1     3   am
     9     3    17    1
    10    17    18    1
    11    18    19    1
    12    19    20    1
    13    20    23    1
    14    23    24    1
    15    24    25    1
    16    20    21    1
    17    21    22    1
    18     7     8   ar
    19     8     9   ar
    20     9    10   ar
    21    10    11   ar
    22    11    12   ar
    23    12    13   ar
    24    13     5   ar
    25    22    17    1
    26    13     8   ar
    27     3     4    1
@<TRIPOS>MOLECULE
*****
 25 27 0 0 0
SMALL
GASTEIGER

@<TRIPOS>ATOM
      1 C           6.3578   -3.3649   24.1035 C.2     1  UNL1        0.2650
      2 O           7.2704   -2.4663   23.3228 O.2     1  UNL1       -0.2684
      3 N           4.9296   -3.5362   23.6777 N.am    1  UNL1       -0.3011
      4 H           4.3306   -4.1260   24.1901 H       1  UNL1        0.1497
      5 C           7.4168   -4.6576   27.6067 C.ar    1  UNL1        0.1239
      6 N           6.7726   -3.6237   26.7314 N.ar    1  UNL1       -0.2260
      7 C           6.8731   -4.0921   25.3100 C.ar    1  UNL1        0.1517
      8 C           7.5794   -5.4154   25.3067 C.ar    1  UNL1        0.0872
      9 C           7.9600   -6.3473   24.1947 C.ar    1  UNL1        0.0193
     10 C           8.6766   -7.6286   24.5021 C.ar    1  UNL1        0.0031
     11 C           9.0127   -7.9781   25.9215 C.ar    1  UNL1        0.0191
     12 C           8.6321   -7.0463   27.0336 C.ar    1  UNL1        0.0811
     13 N           7.9155   -5.7649   26.7262 N.ar    1  UNL1       -0.2921
     14 C           6.8518   -5.6187   29.9534 C.3     1  UNL1        0.0079
     15 C           7.5407   -4.5951   29.1003 C.3     1  UNL1        0.0573
     16 C           8.3533   -3.5092   29.7407 C.3     1  UNL1        0.0079
     17 C           4.4143   -2.8090   22.4713 C.3     1  UNL1        0.0747
     18 C           3.7700   -1.4632   22.6253 C.3     1  UNL1        0.0369
     19 C           3.2546   -0.7360   21.4189 C.3     1  UNL1        0.0739
     20 N           3.3836   -1.3545   20.0584 N.3     1  UNL1       -0.2702
     21 C           4.0279   -2.7003   19.9044 C.3     1  UNL1        0.0739
     22 C           4.5433   -3.4275   21.1108 C.3     1  UNL1        0.0369
     23 C           2.8682   -0.6272   18.8520 C.3     1  UNL1        0.1107
     24 C           3.7671   -0.3986   17.6731 C.3     1  UNL1        0.2105
     25 F           3.3904   -0.9412   16.3264 F       1  UNL1       -0.2328
@<TRIPOS>BOND
     1    14    15    1
     2    15    16    1
     3    15     5    1
     4     5     6   ar
     5     6     7   ar
     6     7     1    1
     7     1     2    2
     8     1     3   am
     9     3    17    1
    10    17    18    1
    11    18    19    1
    12    19    20    1
    13    20    23    1
    14    23    24    1
    15    24    25    1
    16    20    21    1
    17    21    22    1
    18     7     8   ar
    19     8     9   ar
    20     9    10   ar
    21    10    11   ar
    22    11    12   ar
    23    12    13   ar
    24    13     5   ar
    25    22    17    1
    26    13     8   ar
    27     3     4    1
@<TRIPOS>MOLECULE
*****
 25 27 0 0 0
SMALL
GASTEIGER

@<TRIPOS>ATOM
      1 C           4.7113   -1.4356   33.1429 C.2     1  UNL1        0.2650
      2 O           3.5981   -2.2800   32.5975 O.2     1  UNL1       -0.2684
      3 N           6.1178   -1.6507   32.6679 N.am    1  UNL1       -0.3011
      4 H           6.8485   -1.0965   33.0258 H       1  UNL1        0.1497
      5 C           4.4107    0.9032   36.2259 C.ar    1  UNL1        0.1239
      6 N           4.9636   -0.3217   35.5597 N.ar    1  UNL1       -0.2260
      7 C           4.4182   -0.3760   34.1634 C.ar    1  UNL1        0.1517
      8 C           3.5282    0.8153   33.9667 C.ar    1  UNL1        0.0872
      9 C           2.7214    1.2824   32.7916 C.ar    1  UNL1        0.0193
     10 C           1.9100    2.5400   32.8912 C.ar    1  UNL1        0.0031
     11 C           1.9054    3.3306   34.1659 C.ar    1  UNL1        0.0191
     12 C           2.7121    2.8636   35.3411 C.ar    1  UNL1        0.0811
     13 N           3.5235    1.6059   35.2415 N.ar    1  UNL1       -0.2921
     14 C           6.0364    1.9218   37.9781 C.3     1  UNL1        0.0079
     15 C           4.6950    1.3474   37.6302 C.3     1  UNL1        0.0573
     16 C           3.6380    1.2174   38.6865 C.3     1  UNL1        0.0079
     17 C           6.4109   -2.7103   31.6474 C.3     1  UNL1        0.0747
     18 C           6.3901   -2.3707   30.1865 C.3     1  UNL1        0.0369
     19 C           6.6832   -3.4303   29.1660 C.3     1  UNL1        0.0739
     20 N           6.9971   -4.8294   29.6065 N.3     1  UNL1       -0.2702
     21 C           7.0178   -5.1690   31.0673 C.3     1  UNL1        0.0739
     22 C           6.7247   -4.1094   32.0878 C.3     1  UNL1        0.0369
     23 C           7.2901   -5.8890   28.5859 C.3     1  UNL1        0.1107
     24 C           6.6171   -5.8466   27.2461 C.3     1  UNL1        0.2105
     25 F           6.5138   -7.0936   26.4188 F       1  UNL1       -0.2328
@<TRIPOS>BOND
     1    14    15    1
     2    15    16    1
     3    15     5    1
     4     5     6   ar
     5     6     7   ar
     6     7     1    1
     7     1     2    2
     8     1     3   am
     9     3    17    1
    10    17    18    1
    11    18    19    1
    12    19    20    1
    13    20    23    1
    14    23    24    1
    15    24    25    1
    16    20    21    1
    17    21    22    1
    18     7     8   ar
    19     8     9   ar
    20     9    10   ar
    21    10    11   ar
    22    11    12   ar
    23    12    13   ar
    24    13     5   ar
    25    22    17    1
    26    13     8   ar
    27     3     4    1
@<TRIPOS>MOLECULE
*****
 25 27 0 0 0
SMALL
GASTEIGER

@<TRIPOS>ATOM
      1 C           3.6544   -0.3785   25.2158 C.2     1  UNL1        0.2650
      2 O           4.1323    0.9565   25.7049 O.2     1  UNL1       -0.2684
      3 N           3.4363   -1.4994   26.1884 N.am    1  UNL1       -0.3011
      4 H           3.1226   -2.3757   25.8674 H       1  UNL1        0.1497
      5 C           2.5444   -0.3225   21.4969 C.ar    1  UNL1        0.1239
      6 N           2.5131    0.2518   22.8823 N.ar    1  UNL1       -0.2260
      7 C           3.3946   -0.5926   23.7540 C.ar    1  UNL1        0.1517
      8 C           3.9707   -1.6887   22.9075 C.ar    1  UNL1        0.0872
      9 C           4.9058   -2.8173   23.2267 C.ar    1  UNL1        0.0193
     10 C           5.3155   -3.7789   22.1509 C.ar    1  UNL1        0.0031
     11 C           4.7900   -3.6120   20.7559 C.ar    1  UNL1        0.0191
     12 C           3.8549   -2.4834   20.4367 C.ar    1  UNL1        0.0811
     13 N           3.4452   -1.5218   21.5125 N.ar    1  UNL1       -0.2921
     14 C           2.5648    0.7126   19.1140 C.3     1  UNL1        0.0079
     15 C           1.8047    0.2091   20.3052 C.3     1  UNL1        0.0573
     16 C           0.3050    0.2373   20.3045 C.3     1  UNL1        0.0079
     17 C           3.6961   -1.2853   27.6502 C.3     1  UNL1        0.0747
     18 C           5.0528   -1.5743   28.2209 C.3     1  UNL1        0.0369
     19 C           5.3126   -1.3602   29.6826 C.3     1  UNL1        0.0739
     20 N           4.2158   -0.8570   30.5735 N.3     1  UNL1       -0.2702
     21 C           2.8591   -0.5680   30.0028 C.3     1  UNL1        0.0739
     22 C           2.5992   -0.7821   28.5411 C.3     1  UNL1        0.0369
     23 C           4.4757   -0.6429   32.0353 C.3     1  UNL1        0.1107
     24 C           4.4249   -1.8036   32.9841 C.3     1  UNL1        0.2105
     25 F           4.1801   -1.5679   34.4451 F       1  UNL1       -0.2328
@<TRIPOS>BOND
     1    14    15    1
     2    15    16    1
     3    15     5    1
     4     5     6   ar
     5     6     7   ar
     6     7     1    1
     7     1     2    2
     8     1     3   am
     9     3    17    1
    10    17    18    1
    11    18    19    1
    12    19    20    1
    13    20    23    1
    14    23    24    1
    15    24    25    1
    16    20    21    1
    17    21    22    1
    18     7     8   ar
    19     8     9   ar
    20     9    10   ar
    21    10    11   ar
    22    11    12   ar
    23    12    13   ar
    24    13     5   ar
    25    22    17    1
    26    13     8   ar
    27     3     4    1
