@<TRIPOS>MOLECULE
*****
 23 24 0 0 0
SMALL
GASTEIGER

@<TRIPOS>ATOM
      1 O          -7.8906  -17.0975   21.3555 O.3     1  UNL1       -0.4553
      2 C          -7.7556  -16.4634   22.7082 C.ar    1  UNL1        0.2661
      3 N          -6.5304  -15.7851   23.2455 N.ar    1  UNL1       -0.1530
      4 S          -6.8396  -15.2987   24.6305 S.2     1  UNL1        0.1206
      5 N          -8.2558  -15.6766   24.9490 N.ar    1  UNL1       -0.1716
      6 C          -8.8220  -16.3964   23.7609 C.ar    1  UNL1        0.1954
      7 N         -10.2107  -16.9517   23.6459 N.pl3   1  UNL1       -0.2838
      8 C         -11.1944  -16.3224   22.7045 C.3     1  UNL1        0.1244
      9 C         -12.5831  -16.8776   22.5895 C.3     1  UNL1        0.1636
     10 O         -12.9880  -18.0622   23.4159 O.3     1  UNL1       -0.3501
     11 C         -12.0043  -18.6915   24.3572 C.3     1  UNL1        0.1636
     12 C         -10.6156  -18.1362   24.4722 C.3     1  UNL1        0.1244
     13 C          -8.2264  -18.5548   21.2404 C.3     1  UNL1        0.2376
     14 C          -7.5442  -19.5541   22.1270 C.3     1  UNL1        0.1698
     15 O          -8.3446  -20.3496   23.1151 O.3     1  UNL1       -0.3793
     16 H          -9.2792  -20.0977   23.0517 H       1  UNL1        0.2106
     17 C          -6.0615  -19.7578   22.0255 C.3     1  UNL1        0.1020
     18 N          -5.1412  -18.5734   22.0081 N.3     1  UNL1       -0.2975
     19 H          -5.4069  -18.0059   21.2033 H       1  UNL1        0.1232
     20 C          -3.8520  -19.7052   20.7604 C.3     1  UNL1        0.0158
     21 C          -3.6576  -18.7776   21.9231 C.3     1  UNL1        0.0421
     22 C          -3.4633  -17.8501   23.0858 C.3     1  UNL1        0.0158
     23 C          -2.1741  -18.9819   21.8380 C.3     1  UNL1        0.0158
@<TRIPOS>BOND
     1    20    21    1
     2    21    22    1
     3    21    23    1
     4    21    18    1
     5    18    17    1
     6    17    14    1
     7    14    15    1
     8    14    13    1
     9    13     1    1
    10     1     2    1
    11     2     3   ar
    12     3     4   ar
    13     4     5   ar
    14     5     6   ar
    15     6     7    1
    16     7     8    1
    17     8     9    1
    18     9    10    1
    19    10    11    1
    20    11    12    1
    21     6     2   ar
    22    12     7    1
    23    18    19    1
    24    15    16    1
@<TRIPOS>MOLECULE
*****
 23 24 0 0 0
SMALL
GASTEIGER

@<TRIPOS>ATOM
      1 O          -7.2136  -18.5611   21.9429 O.3     1  UNL1       -0.4553
      2 C          -7.2402  -17.3068   22.7652 C.ar    1  UNL1        0.2661
      3 N          -6.0446  -16.5911   23.3203 N.ar    1  UNL1       -0.1530
      4 S          -6.5324  -15.3900   24.0749 S.2     1  UNL1        0.1206
      5 N          -8.0295  -15.3634   23.9861 N.ar    1  UNL1       -0.1716
      6 C          -8.4670  -16.5481   23.1766 C.ar    1  UNL1        0.1954
      7 N          -9.8827  -16.9104   22.8381 N.pl3   1  UNL1       -0.2838
      8 C         -10.6766  -17.7809   23.7664 C.3     1  UNL1        0.1244
      9 C         -12.0922  -18.1431   23.4278 C.3     1  UNL1        0.1636
     10 O         -12.7140  -17.6349   22.1609 O.3     1  UNL1       -0.3501
     11 C         -11.9201  -16.7644   21.2325 C.3     1  UNL1        0.1636
     12 C         -10.5044  -16.4021   21.5711 C.3     1  UNL1        0.1244
     13 C          -5.9667  -19.3926   21.8832 C.3     1  UNL1        0.2376
     14 C          -5.0446  -19.2783   20.7057 C.3     1  UNL1        0.1698
     15 O          -5.4468  -18.4598   19.5148 O.3     1  UNL1       -0.3793
     16 H          -6.3243  -18.0757   19.6679 H       1  UNL1        0.2106
     17 C          -3.7202  -19.9825   20.7190 C.3     1  UNL1        0.1020
     18 N          -2.5881  -19.4355   21.5370 N.3     1  UNL1       -0.2975
     19 H          -2.8477  -19.5550   22.5161 H       1  UNL1        0.1232
     20 C          -2.6047  -17.7145   22.7771 C.3     1  UNL1        0.0158
     21 C          -2.1664  -18.0054   21.3723 C.3     1  UNL1        0.0421
     22 C          -1.7282  -18.2964   19.9676 C.3     1  UNL1        0.0158
     23 C          -1.7447  -16.5754   21.2077 C.3     1  UNL1        0.0158
@<TRIPOS>BOND
     1    20    21    1
     2    21    22    1
     3    21    23    1
     4    21    18    1
     5    18    17    1
     6    17    14    1
     7    14    15    1
     8    14    13    1
     9    13     1    1
    10     1     2    1
    11     2     3   ar
    12     3     4   ar
    13     4     5   ar
    14     5     6   ar
    15     6     7    1
    16     7     8    1
    17     8     9    1
    18     9    10    1
    19    10    11    1
    20    11    12    1
    21     6     2   ar
    22    12     7    1
    23    18    19    1
    24    15    16    1
@<TRIPOS>MOLECULE
*****
 23 24 0 0 0
SMALL
GASTEIGER

@<TRIPOS>ATOM
      1 O          -7.7728  -18.5472   22.6028 O.3     1  UNL1       -0.4553
      2 C          -8.3563  -18.9455   21.2797 C.ar    1  UNL1        0.2661
      3 N          -7.6168  -19.6018   20.1517 N.ar    1  UNL1       -0.1530
      4 S          -8.5852  -19.8195   19.0270 S.2     1  UNL1        0.1206
      5 N          -9.9232  -19.2977   19.4599 N.ar    1  UNL1       -0.1716
      6 C          -9.7817  -18.7575   20.8521 C.ar    1  UNL1        0.1954
      7 N         -10.8740  -18.1382   21.6728 N.pl3   1  UNL1       -0.2838
      8 C         -11.4866  -18.9050   22.8070 C.3     1  UNL1        0.1244
      9 C         -12.5789  -18.2856   23.6276 C.3     1  UNL1        0.1636
     10 O         -13.0585  -16.8994   23.3138 O.3     1  UNL1       -0.3501
     11 C         -12.4459  -16.1326   22.1795 C.3     1  UNL1        0.1636
     12 C         -11.3536  -16.7520   21.3590 C.3     1  UNL1        0.1244
     13 C          -8.1962  -17.2637   23.2534 C.3     1  UNL1        0.2376
     14 C          -7.6428  -15.9575   22.7660 C.3     1  UNL1        0.1698
     15 O          -8.1005  -15.3918   21.4543 O.3     1  UNL1       -0.3793
     16 H          -8.7498  -15.9904   21.0530 H       1  UNL1        0.2106
     17 C          -6.6318  -15.2169   23.5903 C.3     1  UNL1        0.1020
     18 N          -7.0458  -14.5625   24.8750 N.3     1  UNL1       -0.2975
     19 H          -6.4888  -13.7128   24.9655 H       1  UNL1        0.1232
     20 C          -8.4091  -15.3276   26.3088 C.3     1  UNL1        0.0158
     21 C          -6.9156  -15.3058   26.1713 C.3     1  UNL1        0.0421
     22 C          -5.4221  -15.2839   26.0338 C.3     1  UNL1        0.0158
     23 C          -6.7854  -16.0491   27.4677 C.3     1  UNL1        0.0158
@<TRIPOS>BOND
     1    20    21    1
     2    21    22    1
     3    21    23    1
     4    21    18    1
     5    18    17    1
     6    17    14    1
     7    14    15    1
     8    14    13    1
     9    13     1    1
    10     1     2    1
    11     2     3   ar
    12     3     4   ar
    13     4     5   ar
    14     5     6   ar
    15     6     7    1
    16     7     8    1
    17     8     9    1
    18     9    10    1
    19    10    11    1
    20    11    12    1
    21     6     2   ar
    22    12     7    1
    23    18    19    1
    24    15    16    1
@<TRIPOS>MOLECULE
*****
 23 24 0 0 0
SMALL
GASTEIGER

@<TRIPOS>ATOM
      1 O          -6.5478  -17.8274   22.0066 O.3     1  UNL1       -0.4553
      2 C          -7.9657  -17.3606   22.1533 C.ar    1  UNL1        0.2661
      3 N          -9.0753  -17.5891   21.1702 N.ar    1  UNL1       -0.1530
      4 S         -10.3184  -16.9531   21.7181 S.2     1  UNL1        0.1206
      5 N          -9.9771  -16.3316   23.0399 N.ar    1  UNL1       -0.1716
      6 C          -8.5230  -16.5834   23.3089 C.ar    1  UNL1        0.1954
      7 N          -7.7602  -16.1365   24.5207 N.pl3   1  UNL1       -0.2838
      8 C          -6.3450  -15.6591   24.3822 C.3     1  UNL1        0.1244
      9 C          -5.5822  -15.2123   25.5940 C.3     1  UNL1        0.1636
     10 O          -6.2347  -15.2428   26.9443 O.3     1  UNL1       -0.3501
     11 C          -7.6499  -15.7202   27.0828 C.3     1  UNL1        0.1636
     12 C          -8.4126  -16.1671   25.8710 C.3     1  UNL1        0.1244
     13 C          -6.2407  -19.2953   21.9761 C.3     1  UNL1        0.2376
     14 C          -5.4512  -19.8730   20.8390 C.3     1  UNL1        0.1698
     15 O          -5.8126  -21.2181   20.2821 O.3     1  UNL1       -0.3793
     16 H          -6.5735  -21.5748   20.7666 H       1  UNL1        0.2106
     17 C          -4.3004  -19.1055   20.2587 C.3     1  UNL1        0.1020
     18 N          -3.5826  -18.0858   21.0922 N.3     1  UNL1       -0.2975
     19 H          -4.1966  -17.2740   21.1577 H       1  UNL1        0.1232
     20 C          -2.2631  -18.5076   19.4857 C.3     1  UNL1        0.0158
     21 C          -2.2380  -17.5782   20.6628 C.3     1  UNL1        0.0421
     22 C          -2.2129  -16.6488   21.8399 C.3     1  UNL1        0.0158
     23 C          -0.8934  -17.0706   20.2334 C.3     1  UNL1        0.0158
@<TRIPOS>BOND
     1    20    21    1
     2    21    22    1
     3    21    23    1
     4    21    18    1
     5    18    17    1
     6    17    14    1
     7    14    15    1
     8    14    13    1
     9    13     1    1
    10     1     2    1
    11     2     3   ar
    12     3     4   ar
    13     4     5   ar
    14     5     6   ar
    15     6     7    1
    16     7     8    1
    17     8     9    1
    18     9    10    1
    19    10    11    1
    20    11    12    1
    21     6     2   ar
    22    12     7    1
    23    18    19    1
    24    15    16    1
@<TRIPOS>MOLECULE
*****
 23 24 0 0 0
SMALL
GASTEIGER

@<TRIPOS>ATOM
      1 O          -5.3276  -15.9379   23.4084 O.3     1  UNL1       -0.4553
      2 C          -6.4152  -15.8967   24.4406 C.ar    1  UNL1        0.2661
      3 N          -6.2863  -15.3624   25.8363 N.ar    1  UNL1       -0.1530
      4 S          -7.6141  -15.5181   26.5167 S.2     1  UNL1        0.1206
      5 N          -8.5635  -16.1486   25.5415 N.ar    1  UNL1       -0.1716
      6 C          -7.8225  -16.3826   24.2584 C.ar    1  UNL1        0.1954
      7 N          -8.3894  -16.9950   23.0119 N.pl3   1  UNL1       -0.2838
      8 C          -9.6360  -16.4296   22.3985 C.3     1  UNL1        0.1244
      9 C         -10.2029  -17.0420   21.1521 C.3     1  UNL1        0.1636
     10 O          -9.5232  -18.2198   20.5191 O.3     1  UNL1       -0.3501
     11 C          -8.2766  -18.7852   21.1325 C.3     1  UNL1        0.1636
     12 C          -7.7097  -18.1728   22.3789 C.3     1  UNL1        0.1244
     13 C          -4.3311  -17.0590   23.4131 C.3     1  UNL1        0.2376
     14 C          -3.0918  -16.9645   22.5733 C.3     1  UNL1        0.1698
     15 O          -2.7483  -15.6765   21.8855 O.3     1  UNL1       -0.3793
     16 H          -3.4258  -15.0120   22.0864 H       1  UNL1        0.2106
     17 C          -2.1961  -18.1580   22.4213 C.3     1  UNL1        0.1020
     18 N          -2.3047  -19.0270   21.2035 N.3     1  UNL1       -0.2975
     19 H          -1.6063  -19.7636   21.3041 H       1  UNL1        0.1232
     20 C          -3.5296  -18.7862   19.4884 C.3     1  UNL1        0.0158
     21 C          -2.1144  -18.4334   19.8391 C.3     1  UNL1        0.0421
     22 C          -0.6994  -18.0807   20.1899 C.3     1  UNL1        0.0158
     23 C          -1.9243  -17.8399   18.4748 C.3     1  UNL1        0.0158
@<TRIPOS>BOND
     1    20    21    1
     2    21    22    1
     3    21    23    1
     4    21    18    1
     5    18    17    1
     6    17    14    1
     7    14    15    1
     8    14    13    1
     9    13     1    1
    10     1     2    1
    11     2     3   ar
    12     3     4   ar
    13     4     5   ar
    14     5     6   ar
    15     6     7    1
    16     7     8    1
    17     8     9    1
    18     9    10    1
    19    10    11    1
    20    11    12    1
    21     6     2   ar
    22    12     7    1
    23    18    19    1
    24    15    16    1
@<TRIPOS>MOLECULE
*****
 23 24 0 0 0
SMALL
GASTEIGER

@<TRIPOS>ATOM
      1 O          -5.9482  -17.7079   22.2044 O.3     1  UNL1       -0.4553
      2 C          -5.6972  -18.9798   21.4499 C.ar    1  UNL1        0.2661
      3 N          -6.6523  -20.1286   21.3160 N.ar    1  UNL1       -0.1530
      4 S          -5.9924  -21.1850   20.4801 S.2     1  UNL1        0.1206
      5 N          -4.6295  -20.6891   20.0974 N.ar    1  UNL1       -0.1716
      6 C          -4.4470  -19.3262   20.6968 C.ar    1  UNL1        0.1954
      7 N          -3.2283  -18.4614   20.5660 N.pl3   1  UNL1       -0.2838
      8 C          -2.8403  -17.5384   21.6828 C.3     1  UNL1        0.1244
      9 C          -1.6216  -16.6737   21.5520 C.3     1  UNL1        0.1636
     10 O          -0.7909  -16.7322   20.3043 O.3     1  UNL1       -0.3501
     11 C          -1.1790  -17.6552   19.1875 C.3     1  UNL1        0.1636
     12 C          -2.3976  -18.5199   19.3184 C.3     1  UNL1        0.1244
     13 C          -7.2772  -17.4741   22.8592 C.3     1  UNL1        0.2376
     14 C          -8.3299  -16.6712   22.1541 C.3     1  UNL1        0.1698
     15 O          -7.9577  -15.3995   21.4510 O.3     1  UNL1       -0.3793
     16 H          -7.0053  -15.2431   21.5483 H       1  UNL1        0.2106
     17 C          -9.7548  -17.1399   22.1522 C.3     1  UNL1        0.1020
     18 N         -10.5448  -17.1438   23.4273 N.3     1  UNL1       -0.2975
     19 H         -10.0823  -17.7984   24.0582 H       1  UNL1        0.1232
     20 C         -11.7117  -18.6836   24.3030 C.3     1  UNL1        0.0158
     21 C         -11.9981  -17.5145   23.4080 C.3     1  UNL1        0.0421
     22 C         -12.2844  -16.3454   22.5130 C.3     1  UNL1        0.0158
     23 C         -13.4514  -17.8852   23.3888 C.3     1  UNL1        0.0158
@<TRIPOS>BOND
     1    20    21    1
     2    21    22    1
     3    21    23    1
     4    21    18    1
     5    18    17    1
     6    17    14    1
     7    14    15    1
     8    14    13    1
     9    13     1    1
    10     1     2    1
    11     2     3   ar
    12     3     4   ar
    13     4     5   ar
    14     5     6   ar
    15     6     7    1
    16     7     8    1
    17     8     9    1
    18     9    10    1
    19    10    11    1
    20    11    12    1
    21     6     2   ar
    22    12     7    1
    23    18    19    1
    24    15    16    1
@<TRIPOS>MOLECULE
*****
 23 24 0 0 0
SMALL
GASTEIGER

@<TRIPOS>ATOM
      1 O          -4.3510  -19.2623   22.9193 O.3     1  UNL1       -0.4553
      2 C          -3.6786  -17.9707   22.5596 C.ar    1  UNL1        0.2661
      3 N          -2.4541  -17.8221   21.7060 N.ar    1  UNL1       -0.1530
      4 S          -2.1312  -16.3604   21.6090 S.2     1  UNL1        0.1206
      5 N          -3.1561  -15.6057   22.4027 N.ar    1  UNL1       -0.1716
      6 C          -4.1124  -16.6009   22.9902 C.ar    1  UNL1        0.1954
      7 N          -5.2950  -16.2822   23.8562 N.pl3   1  UNL1       -0.2838
      8 C          -5.0892  -15.8568   25.2798 C.3     1  UNL1        0.1244
      9 C          -6.2717  -15.5381   26.1458 C.3     1  UNL1        0.1636
     10 O          -7.6601  -15.6448   25.5881 O.3     1  UNL1       -0.3501
     11 C          -7.8660  -16.0702   24.1646 C.3     1  UNL1        0.1636
     12 C          -6.6834  -16.3889   23.2986 C.3     1  UNL1        0.1244
     13 C          -5.6209  -19.6643   22.2297 C.3     1  UNL1        0.2376
     14 C          -5.8571  -19.2684   20.8023 C.3     1  UNL1        0.1698
     15 O          -4.7089  -18.8154   19.9499 O.3     1  UNL1       -0.3793
     16 H          -3.8911  -18.8371   20.4709 H       1  UNL1        0.2106
     17 C          -7.2413  -19.3254   20.2273 C.3     1  UNL1        0.1020
     18 N          -8.3480  -18.5319   20.8564 N.3     1  UNL1       -0.2975
     19 H          -7.9780  -18.1490   21.7264 H       1  UNL1        0.1232
     20 C          -9.2815  -19.1762   22.6489 C.3     1  UNL1        0.0158
     21 C          -9.6491  -19.1971   21.1948 C.3     1  UNL1        0.0421
     22 C         -10.0167  -19.2179   19.7408 C.3     1  UNL1        0.0158
     23 C         -10.9502  -19.8622   21.5334 C.3     1  UNL1        0.0158
@<TRIPOS>BOND
     1    20    21    1
     2    21    22    1
     3    21    23    1
     4    21    18    1
     5    18    17    1
     6    17    14    1
     7    14    15    1
     8    14    13    1
     9    13     1    1
    10     1     2    1
    11     2     3   ar
    12     3     4   ar
    13     4     5   ar
    14     5     6   ar
    15     6     7    1
    16     7     8    1
    17     8     9    1
    18     9    10    1
    19    10    11    1
    20    11    12    1
    21     6     2   ar
    22    12     7    1
    23    18    19    1
    24    15    16    1
@<TRIPOS>MOLECULE
*****
 23 24 0 0 0
SMALL
GASTEIGER

@<TRIPOS>ATOM
      1 O          -6.8787  -17.8261   21.1661 O.3     1  UNL1       -0.4553
      2 C          -6.2924  -19.1445   20.7563 C.ar    1  UNL1        0.2661
      3 N          -7.0623  -20.3952   20.4514 N.ar    1  UNL1       -0.1530
      4 S          -6.0790  -21.4674   20.0861 S.2     1  UNL1        0.1206
      5 N          -4.7013  -20.8794   20.1654 N.ar    1  UNL1       -0.1716
      6 C          -4.8332  -19.4437   20.5796 C.ar    1  UNL1        0.1954
      7 N          -3.7041  -18.4771   20.7816 N.pl3   1  UNL1       -0.2838
      8 C          -3.4699  -17.8692   22.1327 C.3     1  UNL1        0.1244
      9 C          -2.3408  -16.9025   22.3346 C.3     1  UNL1        0.1636
     10 O          -1.4460  -16.5438   21.1854 O.3     1  UNL1       -0.3501
     11 C          -1.6802  -17.1517   19.8343 C.3     1  UNL1        0.1636
     12 C          -2.8093  -18.1184   19.6324 C.3     1  UNL1        0.1244
     13 C          -8.3098  -17.7466   21.6083 C.3     1  UNL1        0.2376
     14 C          -8.8427  -16.4752   22.1996 C.3     1  UNL1        0.1698
     15 O          -9.3339  -15.3786   21.3017 O.3     1  UNL1       -0.3793
     16 H          -9.2375  -15.6513   20.3758 H       1  UNL1        0.2106
     17 C          -8.8843  -16.3004   23.6888 C.3     1  UNL1        0.1020
     18 N          -8.1882  -15.1350   24.3269 N.3     1  UNL1       -0.2975
     19 H          -7.7057  -14.6353   23.5800 H       1  UNL1        0.1232
     20 C          -6.0718  -15.2539   24.4102 C.3     1  UNL1        0.0158
     21 C          -7.1808  -15.3667   25.4140 C.3     1  UNL1        0.0421
     22 C          -8.2898  -15.4794   26.4176 C.3     1  UNL1        0.0158
     23 C          -6.1735  -15.5983   26.5009 C.3     1  UNL1        0.0158
@<TRIPOS>BOND
     1    20    21    1
     2    21    22    1
     3    21    23    1
     4    21    18    1
     5    18    17    1
     6    17    14    1
     7    14    15    1
     8    14    13    1
     9    13     1    1
    10     1     2    1
    11     2     3   ar
    12     3     4   ar
    13     4     5   ar
    14     5     6   ar
    15     6     7    1
    16     7     8    1
    17     8     9    1
    18     9    10    1
    19    10    11    1
    20    11    12    1
    21     6     2   ar
    22    12     7    1
    23    18    19    1
    24    15    16    1
@<TRIPOS>MOLECULE
*****
 23 24 0 0 0
SMALL
GASTEIGER

@<TRIPOS>ATOM
      1 O          -6.8790  -18.4527   20.4925 O.3     1  UNL1       -0.4553
      2 C          -5.5945  -18.7319   21.2150 C.ar    1  UNL1        0.2661
      3 N          -4.5302  -19.6957   20.7810 N.ar    1  UNL1       -0.1530
      4 S          -3.4266  -19.6557   21.7961 S.2     1  UNL1        0.1206
      5 N          -3.8088  -18.6671   22.8575 N.ar    1  UNL1       -0.1716
      6 C          -5.1486  -18.0962   22.4984 C.ar    1  UNL1        0.1954
      7 N          -5.9090  -17.0696   23.2846 N.pl3   1  UNL1       -0.2838
      8 C          -7.3989  -16.9688   23.1429 C.3     1  UNL1        0.1244
      9 C          -8.1592  -15.9423   23.9291 C.3     1  UNL1        0.1636
     10 O          -7.4297  -15.0167   24.8571 O.3     1  UNL1       -0.3501
     11 C          -5.9399  -15.1176   24.9989 C.3     1  UNL1        0.1636
     12 C          -5.1795  -16.1441   24.2126 C.3     1  UNL1        0.1244
     13 C          -7.8387  -19.5703   20.2098 C.3     1  UNL1        0.2376
     14 C          -9.3142  -19.3490   20.3642 C.3     1  UNL1        0.1698
     15 O         -10.2044  -19.3589   19.1570 O.3     1  UNL1       -0.3793
     16 H          -9.6709  -19.5203   18.3631 H       1  UNL1        0.2106
     17 C          -9.8995  -19.1178   21.7258 C.3     1  UNL1        0.1020
     18 N         -10.6786  -17.8667   22.0047 N.3     1  UNL1       -0.2975
     19 H         -10.0543  -17.2374   22.5094 H       1  UNL1        0.1232
     20 C         -12.7378  -17.6358   21.5507 C.3     1  UNL1        0.0158
     21 C         -11.9528  -17.9367   22.7930 C.3     1  UNL1        0.0421
     22 C         -11.1678  -18.2375   24.0352 C.3     1  UNL1        0.0158
     23 C         -13.2270  -18.0066   23.5812 C.3     1  UNL1        0.0158
@<TRIPOS>BOND
     1    20    21    1
     2    21    22    1
     3    21    23    1
     4    21    18    1
     5    18    17    1
     6    17    14    1
     7    14    15    1
     8    14    13    1
     9    13     1    1
    10     1     2    1
    11     2     3   ar
    12     3     4   ar
    13     4     5   ar
    14     5     6   ar
    15     6     7    1
    16     7     8    1
    17     8     9    1
    18     9    10    1
    19    10    11    1
    20    11    12    1
    21     6     2   ar
    22    12     7    1
    23    18    19    1
    24    15    16    1
