@<TRIPOS>MOLECULE
*****
 38 41 0 0 0
SMALL
GASTEIGER

@<TRIPOS>ATOM
      1 C          -8.7245  -19.6333   19.3935 C.ar    1  UNL1        0.1860
      2 N          -8.6708  -20.9609   18.6974 N.ar    1  UNL1       -0.2232
      3 C          -7.4293  -21.7991   18.7758 C.ar    1  UNL1        0.1195
      4 C          -6.2416  -21.3097   19.5503 C.ar    1  UNL1        0.1037
      5 N          -6.2953  -19.9822   20.2464 N.ar    1  UNL1       -0.2696
      6 C          -7.5367  -19.1440   20.1680 C.ar    1  UNL1        0.2963
      7 O          -7.5905  -17.8163   20.8642 O.2     1  UNL1       -0.2636
      8 C          -5.1076  -19.4928   21.0209 C.ar    1  UNL1        0.0632
      9 C          -5.3070  -18.7148   22.2877 C.ar    1  UNL1        0.0218
     10 C          -4.1193  -18.2254   23.0622 C.ar    1  UNL1        0.0548
     11 C          -2.7321  -18.5141   22.5699 C.ar    1  UNL1        0.0043
     12 C          -2.5327  -19.2922   21.3031 C.ar    1  UNL1       -0.0027
     13 C          -3.7204  -19.7815   20.5286 C.ar    1  UNL1       -0.0056
     14 C          -3.5209  -20.5596   19.2617 C.3     1  UNL1        0.0326
     15 C          -4.3187  -17.4473   24.3290 C.2     1  UNL1        0.2458
     16 O          -3.5386  -17.8047   25.5594 O.2     1  UNL1       -0.2701
     17 N          -5.2983  -16.3120   24.3655 N.am    1  UNL1       -0.3025
     18 H          -5.8103  -16.0774   23.5580 H       1  UNL1        0.1497
     19 C          -5.4977  -15.5339   25.6323 C.3     1  UNL1        0.0720
     20 C          -5.1170  -14.3946   26.5306 C.3     1  UNL1        0.0213
     21 C          -6.2239  -15.3257   26.9282 C.3     1  UNL1        0.0213
     22 N          -9.9660  -18.7950   19.3152 N.pl3   1  UNL1       -0.3139
     23 H         -10.2206  -18.3708   18.4641 H       1  UNL1        0.1485
     24 C         -10.8194  -18.6031   20.5337 C.3     1  UNL1        0.0776
     25 C         -10.8244  -17.1219   20.2969 C.3     1  UNL1        0.0243
     26 C         -10.8145  -20.0842   20.7705 C.3     1  UNL1        0.0243
     27 C         -11.0530  -18.4588   23.1172 C.ar    1  UNL1        0.1361
     28 C         -11.9065  -18.2669   24.3357 C.ar    1  UNL1        0.0366
     29 C         -13.3800  -18.0274   24.1891 C.ar    1  UNL1        0.0031
     30 C         -14.0000  -17.9798   22.8241 C.ar    1  UNL1       -0.0001
     31 C         -13.1464  -18.1717   21.6056 C.ar    1  UNL1        0.0003
     32 C         -11.6730  -18.4112   21.7522 C.ar    1  UNL1        0.0276
     33 O          -9.5795  -18.6983   23.2638 O.3     1  UNL1       -0.4742
     34 C          -8.7263  -17.7014   23.9905 C.3     1  UNL1        0.2224
     35 C          -8.9270  -16.2329   23.7598 C.3     1  UNL1        0.1166
     36 C          -8.3487  -14.8043   21.6682 C.3     1  UNL1        0.0860
     37 N          -7.9292  -15.4573   22.9518 N.3     1  UNL1       -0.2932
     38 H          -7.5727  -14.7169   23.5560 H       1  UNL1        0.1234
@<TRIPOS>BOND
     1    36    37    1
     2    37    35    1
     3    35    34    1
     4    34    33    1
     5    33    27    1
     6    27    28   ar
     7    28    29   ar
     8    29    30   ar
     9    30    31   ar
    10    31    32   ar
    11    32    24    1
    12    24    25    1
    13    24    26    1
    14    24    22    1
    15    22     1    1
    16     1     2   ar
    17     2     3   ar
    18     3     4   ar
    19     4     5   ar
    20     5     8    1
    21     8     9   ar
    22     9    10   ar
    23    10    15    1
    24    15    16    2
    25    15    17   am
    26    17    19    1
    27    19    20    1
    28    20    21    1
    29    10    11   ar
    30    11    12   ar
    31    12    13   ar
    32    13    14    1
    33     5     6   ar
    34     6     7    2
    35    32    27   ar
    36     6     1   ar
    37    13     8   ar
    38    21    19    1
    39    37    38    1
    40    22    23    1
    41    17    18    1
@<TRIPOS>MOLECULE
*****
 38 41 0 0 0
SMALL
GASTEIGER

@<TRIPOS>ATOM
      1 C           6.6643   -3.2260   24.6172 C.ar    1  UNL1        0.1860
      2 N           7.0213   -4.6292   25.0092 N.ar    1  UNL1       -0.2232
      3 C           6.9173   -5.0568   26.4432 C.ar    1  UNL1        0.1195
      4 C           6.4562   -4.0812   27.4851 C.ar    1  UNL1        0.1037
      5 N           6.0992   -2.6781   27.0932 N.ar    1  UNL1       -0.2696
      6 C           6.2033   -2.2505   25.6592 C.ar    1  UNL1        0.2963
      7 O           5.8463   -0.8473   25.2672 O.2     1  UNL1       -0.2636
      8 C           5.6381   -1.7025   28.1351 C.ar    1  UNL1        0.0632
      9 C           4.1748   -1.4174   28.3004 C.ar    1  UNL1        0.0218
     10 C           3.7138   -0.4419   29.3424 C.ar    1  UNL1        0.0548
     11 C           4.7160    0.2486   30.2191 C.ar    1  UNL1        0.0043
     12 C           6.1793   -0.0365   30.0538 C.ar    1  UNL1       -0.0027
     13 C           6.6404   -1.0121   29.0119 C.ar    1  UNL1       -0.0056
     14 C           8.1038   -1.2971   28.8466 C.3     1  UNL1        0.0326
     15 C           2.2503   -0.1568   29.5076 C.2     1  UNL1        0.2458
     16 O           1.7317    0.3710   30.8124 O.2     1  UNL1       -0.2701
     17 N           1.3056   -0.3996   28.3681 N.am    1  UNL1       -0.3025
     18 H           1.6460   -0.7460   27.5117 H       1  UNL1        0.1497
     19 C          -0.1577   -0.1145   28.5334 C.3     1  UNL1        0.0720
     20 C          -1.3208    0.8240   28.4060 C.3     1  UNL1        0.0213
     21 C          -1.5292   -0.5593   28.9471 C.3     1  UNL1        0.0213
     22 N           6.7684   -2.7984   23.1832 N.pl3   1  UNL1       -0.3139
     23 H           7.6353   -2.8406   22.7186 H       1  UNL1        0.1485
     24 C           5.5516   -2.3064   22.4571 C.3     1  UNL1        0.0776
     25 C           6.3327   -1.1338   21.9425 C.3     1  UNL1        0.0243
     26 C           4.7704   -3.4789   22.9717 C.3     1  UNL1        0.0243
     27 C           4.0338   -2.3124   20.3485 C.ar    1  UNL1        0.1361
     28 C           2.8169   -1.8204   19.6224 C.ar    1  UNL1        0.0366
     29 C           1.9009   -0.8305   20.2789 C.ar    1  UNL1        0.0031
     30 C           2.2018   -0.3325   21.6614 C.ar    1  UNL1       -0.0001
     31 C           3.4187   -0.8244   22.3875 C.ar    1  UNL1        0.0003
     32 C           4.3346   -1.8144   21.7310 C.ar    1  UNL1        0.0276
     33 O           4.9497   -3.3024   19.6920 O.3     1  UNL1       -0.4742
     34 C           5.4551   -3.0497   18.3025 C.3     1  UNL1        0.2224
     35 C           6.6666   -2.1912   18.0896 C.3     1  UNL1        0.1166
     36 C           5.2872   -0.1690   17.2190 C.3     1  UNL1        0.0860
     37 N           6.5681   -0.9487   17.2550 N.3     1  UNL1       -0.2932
     38 H           7.2913   -0.3116   17.5889 H       1  UNL1        0.1234
@<TRIPOS>BOND
     1    36    37    1
     2    37    35    1
     3    35    34    1
     4    34    33    1
     5    33    27    1
     6    27    28   ar
     7    28    29   ar
     8    29    30   ar
     9    30    31   ar
    10    31    32   ar
    11    32    24    1
    12    24    25    1
    13    24    26    1
    14    24    22    1
    15    22     1    1
    16     1     2   ar
    17     2     3   ar
    18     3     4   ar
    19     4     5   ar
    20     5     8    1
    21     8     9   ar
    22     9    10   ar
    23    10    15    1
    24    15    16    2
    25    15    17   am
    26    17    19    1
    27    19    20    1
    28    20    21    1
    29    10    11   ar
    30    11    12   ar
    31    12    13   ar
    32    13    14    1
    33     5     6   ar
    34     6     7    2
    35    32    27   ar
    36     6     1   ar
    37    13     8   ar
    38    21    19    1
    39    37    38    1
    40    22    23    1
    41    17    18    1
@<TRIPOS>MOLECULE
*****
 38 41 0 0 0
SMALL
GASTEIGER

@<TRIPOS>ATOM
      1 C           7.2154   -2.7362   20.1481 C.ar    1  UNL1        0.1860
      2 N           8.4186   -1.8537   19.9951 N.ar    1  UNL1       -0.2232
      3 C           9.4642   -1.8183   21.0699 C.ar    1  UNL1        0.1195
      4 C           9.3067   -2.6653   22.2978 C.ar    1  UNL1        0.1037
      5 N           8.1035   -3.5479   22.4508 N.ar    1  UNL1       -0.2696
      6 C           7.0578   -3.5833   21.3760 C.ar    1  UNL1        0.2963
      7 O           5.8546   -4.4658   21.5290 O.2     1  UNL1       -0.2636
      8 C           7.9459   -4.3949   23.6787 C.ar    1  UNL1        0.0632
      9 C           7.4953   -3.7722   24.9667 C.ar    1  UNL1        0.0218
     10 C           7.3378   -4.6192   26.1946 C.ar    1  UNL1        0.0548
     11 C           7.6309   -6.0891   26.1344 C.ar    1  UNL1        0.0043
     12 C           8.0815   -6.7118   24.8464 C.ar    1  UNL1       -0.0027
     13 C           8.2390   -5.8647   23.6186 C.ar    1  UNL1       -0.0056
     14 C           8.6896   -6.4876   22.3305 C.3     1  UNL1        0.0326
     15 C           6.8872   -3.9964   27.4827 C.2     1  UNL1        0.2458
     16 O           6.0224   -2.7709   27.4610 O.2     1  UNL1       -0.2701
     17 N           7.3012   -4.5990   28.7924 N.am    1  UNL1       -0.3025
     18 H           7.8688   -5.4033   28.8066 H       1  UNL1        0.1497
     19 C           6.8506   -3.9762   30.0804 C.3     1  UNL1        0.0720
     20 C           6.2749   -2.8101   30.8279 C.3     1  UNL1        0.0213
     21 C           6.6458   -4.0635   31.5637 C.3     1  UNL1        0.0213
     22 N           6.1697   -2.7717   19.0733 N.pl3   1  UNL1       -0.3139
     23 H           6.3087   -3.3226   18.2693 H       1  UNL1        0.1485
     24 C           4.9122   -1.9679   19.2234 C.3     1  UNL1        0.0776
     25 C           4.0958   -3.1864   18.9095 C.3     1  UNL1        0.0243
     26 C           5.7286   -0.7494   19.5374 C.3     1  UNL1        0.0243
     27 C           2.9204   -1.1575   20.6815 C.ar    1  UNL1        0.1361
     28 C           1.6630   -0.3536   20.8317 C.ar    1  UNL1        0.0366
     29 C           1.1399    0.4439   19.6739 C.ar    1  UNL1        0.0031
     30 C           1.8742    0.4374   18.3660 C.ar    1  UNL1       -0.0001
     31 C           3.1316   -0.3665   18.2158 C.ar    1  UNL1        0.0003
     32 C           3.6547   -1.1639   19.3736 C.ar    1  UNL1        0.0276
     33 O           3.4435   -1.9549   21.8393 O.3     1  UNL1       -0.4742
     34 C           3.6949   -1.2860   23.1581 C.3     1  UNL1        0.2224
     35 C           4.4525   -2.0079   24.2328 C.3     1  UNL1        0.1166
     36 C           3.5648   -0.4748   26.1333 C.3     1  UNL1        0.0860
     37 N           4.0887   -1.8030   25.6736 N.3     1  UNL1       -0.2932
     38 H           3.3740   -2.4952   25.8981 H       1  UNL1        0.1234
@<TRIPOS>BOND
     1    36    37    1
     2    37    35    1
     3    35    34    1
     4    34    33    1
     5    33    27    1
     6    27    28   ar
     7    28    29   ar
     8    29    30   ar
     9    30    31   ar
    10    31    32   ar
    11    32    24    1
    12    24    25    1
    13    24    26    1
    14    24    22    1
    15    22     1    1
    16     1     2   ar
    17     2     3   ar
    18     3     4   ar
    19     4     5   ar
    20     5     8    1
    21     8     9   ar
    22     9    10   ar
    23    10    15    1
    24    15    16    2
    25    15    17   am
    26    17    19    1
    27    19    20    1
    28    20    21    1
    29    10    11   ar
    30    11    12   ar
    31    12    13   ar
    32    13    14    1
    33     5     6   ar
    34     6     7    2
    35    32    27   ar
    36     6     1   ar
    37    13     8   ar
    38    21    19    1
    39    37    38    1
    40    22    23    1
    41    17    18    1
@<TRIPOS>MOLECULE
*****
 38 41 0 0 0
SMALL
GASTEIGER

@<TRIPOS>ATOM
      1 C           6.9538   -3.3492   20.2096 C.ar    1  UNL1        0.1860
      2 N           8.2953   -2.7745   19.8632 N.ar    1  UNL1       -0.2232
      3 C           9.4051   -2.7998   20.8719 C.ar    1  UNL1        0.1195
      4 C           9.1735   -3.3998   22.2270 C.ar    1  UNL1        0.1037
      5 N           7.8320   -3.9746   22.5734 N.ar    1  UNL1       -0.2696
      6 C           6.7222   -3.9493   21.5646 C.ar    1  UNL1        0.2963
      7 O           5.3806   -4.5241   21.9110 O.2     1  UNL1       -0.2636
      8 C           7.6003   -4.5746   23.9285 C.ar    1  UNL1        0.0632
      9 C           6.9906   -3.7471   25.0209 C.ar    1  UNL1        0.0218
     10 C           6.7589   -4.3472   26.3760 C.ar    1  UNL1        0.0548
     11 C           7.1370   -5.7748   26.6386 C.ar    1  UNL1        0.0043
     12 C           7.7467   -6.6023   25.5462 C.ar    1  UNL1       -0.0027
     13 C           7.9784   -6.0022   24.1911 C.ar    1  UNL1       -0.0056
     14 C           8.5882   -6.8298   23.0987 C.3     1  UNL1        0.0326
     15 C           6.1491   -3.5196   27.4684 C.2     1  UNL1        0.2458
     16 O           6.3519   -3.9054   28.9037 O.2     1  UNL1       -0.2701
     17 N           5.3367   -2.3063   27.1255 N.am    1  UNL1       -0.3025
     18 H           5.2036   -2.0530   26.1835 H       1  UNL1        0.1497
     19 C           4.7269   -1.4787   28.2179 C.3     1  UNL1        0.0720
     20 C           4.8544   -0.7602   29.5284 C.3     1  UNL1        0.0213
     21 C           3.5434   -0.7640   28.7996 C.3     1  UNL1        0.0213
     22 N           5.8439   -3.3240   19.2008 N.pl3   1  UNL1       -0.3139
     23 H           5.8468   -3.9604   18.4497 H       1  UNL1        0.1485
     24 C           4.7297   -2.3290   19.3364 C.3     1  UNL1        0.0776
     25 C           5.7334   -1.2198   19.4458 C.3     1  UNL1        0.0243
     26 C           3.7259   -3.4382   19.2271 C.3     1  UNL1        0.0243
     27 C           2.9987   -1.0770   20.8151 C.ar    1  UNL1        0.1361
     28 C           1.8844   -0.0820   20.9507 C.ar    1  UNL1        0.0366
     29 C           1.3867    0.6559   19.7433 C.ar    1  UNL1        0.0031
     30 C           2.0033    0.3988   18.4003 C.ar    1  UNL1       -0.0001
     31 C           3.1176   -0.5961   18.2647 C.ar    1  UNL1        0.0003
     32 C           3.6153   -1.3340   19.4721 C.ar    1  UNL1        0.0276
     33 O           3.4964   -1.8149   22.0225 O.3     1  UNL1       -0.4742
     34 C           4.5078   -1.1763   22.9276 C.3     1  UNL1        0.2224
     35 C           4.0947   -0.6787   24.2811 C.3     1  UNL1        0.1166
     36 C           2.0103    0.8482   24.5527 C.3     1  UNL1        0.0860
     37 N           2.6400   -0.5121   24.6071 N.3     1  UNL1       -0.2932
     38 H           2.1228   -1.1023   23.9555 H       1  UNL1        0.1234
@<TRIPOS>BOND
     1    36    37    1
     2    37    35    1
     3    35    34    1
     4    34    33    1
     5    33    27    1
     6    27    28   ar
     7    28    29   ar
     8    29    30   ar
     9    30    31   ar
    10    31    32   ar
    11    32    24    1
    12    24    25    1
    13    24    26    1
    14    24    22    1
    15    22     1    1
    16     1     2   ar
    17     2     3   ar
    18     3     4   ar
    19     4     5   ar
    20     5     8    1
    21     8     9   ar
    22     9    10   ar
    23    10    15    1
    24    15    16    2
    25    15    17   am
    26    17    19    1
    27    19    20    1
    28    20    21    1
    29    10    11   ar
    30    11    12   ar
    31    12    13   ar
    32    13    14    1
    33     5     6   ar
    34     6     7    2
    35    32    27   ar
    36     6     1   ar
    37    13     8   ar
    38    21    19    1
    39    37    38    1
    40    22    23    1
    41    17    18    1
@<TRIPOS>MOLECULE
*****
 38 41 0 0 0
SMALL
GASTEIGER

@<TRIPOS>ATOM
      1 C           6.2031   -3.3451   20.5421 C.ar    1  UNL1        0.1860
      2 N           5.6935   -4.6635   20.0401 N.ar    1  UNL1       -0.2232
      3 C           4.3271   -4.7556   19.4284 C.ar    1  UNL1        0.1195
      4 C           3.4702   -3.5293   19.3188 C.ar    1  UNL1        0.1037
      5 N           3.9798   -2.2109   19.8208 N.ar    1  UNL1       -0.2696
      6 C           5.3463   -2.1188   20.4325 C.ar    1  UNL1        0.2963
      7 O           5.8559   -0.8004   20.9346 O.2     1  UNL1       -0.2636
      8 C           3.1229   -0.9847   19.7111 C.ar    1  UNL1        0.0632
      9 C           2.3363   -0.5108   20.8972 C.ar    1  UNL1        0.0218
     10 C           1.4795    0.7154   20.7875 C.ar    1  UNL1        0.0548
     11 C           1.4092    1.4679   19.4918 C.ar    1  UNL1        0.0043
     12 C           2.1957    0.9940   18.3058 C.ar    1  UNL1       -0.0027
     13 C           3.0526   -0.2322   18.4155 C.ar    1  UNL1       -0.0056
     14 C           3.8392   -0.7061   17.2293 C.3     1  UNL1        0.0326
     15 C           0.6929    1.1893   21.9737 C.2     1  UNL1        0.2458
     16 O          -0.5805    1.9558   21.7714 O.2     1  UNL1       -0.2701
     17 N           1.1797    0.8966   23.3619 N.am    1  UNL1       -0.3025
     18 H           2.0154    0.3934   23.4946 H       1  UNL1        0.1497
     19 C           0.3931    1.3704   24.5479 C.3     1  UNL1        0.0720
     20 C          -0.6321    2.2889   25.1440 C.3     1  UNL1        0.0213
     21 C           0.0558    1.2725   26.0063 C.3     1  UNL1        0.0213
     22 N           7.5697   -3.2529   21.1539 N.pl3   1  UNL1       -0.3139
     23 H           8.3681   -3.2554   20.5778 H       1  UNL1        0.1485
     24 C           7.7198   -3.1569   22.6432 C.3     1  UNL1        0.0776
     25 C           6.7660   -4.3020   22.8132 C.3     1  UNL1        0.0243
     26 C           8.6736   -2.0118   22.4733 C.3     1  UNL1        0.0243
     27 C           6.9273   -2.2070   24.9279 C.ar    1  UNL1        0.1361
     28 C           7.0775   -2.1110   26.4173 C.ar    1  UNL1        0.0366
     29 C           8.1702   -2.8687   27.1113 C.ar    1  UNL1        0.0031
     30 C           9.1128   -3.7225   26.3160 C.ar    1  UNL1       -0.0001
     31 C           8.9626   -3.8186   24.8267 C.ar    1  UNL1        0.0003
     32 C           7.8699   -3.0608   24.1326 C.ar    1  UNL1        0.0276
     33 O           5.8346   -1.4493   24.2339 O.3     1  UNL1       -0.4742
     34 C           4.3984   -1.7766   24.5168 C.3     1  UNL1        0.2224
     35 C           3.6672   -1.0588   25.6122 C.3     1  UNL1        0.1166
     36 C           2.9254   -0.9250   28.0986 C.3     1  UNL1        0.0860
     37 N           3.5141   -1.7021   26.9586 N.3     1  UNL1       -0.2932
     38 H           2.9245   -2.5240   26.8269 H       1  UNL1        0.1234
@<TRIPOS>BOND
     1    36    37    1
     2    37    35    1
     3    35    34    1
     4    34    33    1
     5    33    27    1
     6    27    28   ar
     7    28    29   ar
     8    29    30   ar
     9    30    31   ar
    10    31    32   ar
    11    32    24    1
    12    24    25    1
    13    24    26    1
    14    24    22    1
    15    22     1    1
    16     1     2   ar
    17     2     3   ar
    18     3     4   ar
    19     4     5   ar
    20     5     8    1
    21     8     9   ar
    22     9    10   ar
    23    10    15    1
    24    15    16    2
    25    15    17   am
    26    17    19    1
    27    19    20    1
    28    20    21    1
    29    10    11   ar
    30    11    12   ar
    31    12    13   ar
    32    13    14    1
    33     5     6   ar
    34     6     7    2
    35    32    27   ar
    36     6     1   ar
    37    13     8   ar
    38    21    19    1
    39    37    38    1
    40    22    23    1
    41    17    18    1
@<TRIPOS>MOLECULE
*****
 38 41 0 0 0
SMALL
GASTEIGER

@<TRIPOS>ATOM
      1 C           6.2680   -3.2896   20.6071 C.ar    1  UNL1        0.1860
      2 N           5.8081   -4.6213   20.0922 N.ar    1  UNL1       -0.2232
      3 C           4.4729   -4.7450   19.4202 C.ar    1  UNL1        0.1195
      4 C           3.5975   -3.5371   19.2630 C.ar    1  UNL1        0.1037
      5 N           4.0574   -2.2055   19.7779 N.ar    1  UNL1       -0.2696
      6 C           5.3926   -2.0817   20.4500 C.ar    1  UNL1        0.2963
      7 O           5.8526   -0.7500   20.9649 O.2     1  UNL1       -0.2636
      8 C           3.1820   -0.9976   19.6208 C.ar    1  UNL1        0.0632
      9 C           2.3724   -0.5019   20.7821 C.ar    1  UNL1        0.0218
     10 C           1.4970    0.7060   20.6250 C.ar    1  UNL1        0.0548
     11 C           1.4312    1.4182   19.3065 C.ar    1  UNL1        0.0043
     12 C           2.2408    0.9225   18.1452 C.ar    1  UNL1       -0.0027
     13 C           3.1162   -0.2854   18.3023 C.ar    1  UNL1       -0.0056
     14 C           3.9258   -0.7812   17.1409 C.3     1  UNL1        0.0326
     15 C           0.6874    1.2018   21.7865 C.2     1  UNL1        0.2458
     16 O          -0.5980    1.9363   21.5455 O.2     1  UNL1       -0.2701
     17 N           1.1633    0.9629   23.1888 N.am    1  UNL1       -0.3025
     18 H           2.0069    0.4808   23.3469 H       1  UNL1        0.1497
     19 C           0.3537    1.4586   24.3501 C.3     1  UNL1        0.0720
     20 C          -0.1474    1.2841   25.7531 C.3     1  UNL1        0.0213
     21 C          -0.5475    2.4918   24.9586 C.3     1  UNL1        0.0213
     22 N           7.6034   -3.1658   21.2792 N.pl3   1  UNL1       -0.3139
     23 H           8.2032   -2.4200   21.0487 H       1  UNL1        0.1485
     24 C           8.0247   -4.1784   22.3025 C.3     1  UNL1        0.0776
     25 C           6.6939   -4.0458   22.9817 C.3     1  UNL1        0.0243
     26 C           9.3555   -4.3110   21.6232 C.3     1  UNL1        0.0243
     27 C           8.7902   -4.7518   24.7181 C.ar    1  UNL1        0.1361
     28 C           9.2116   -5.7645   25.7413 C.ar    1  UNL1        0.0366
     29 C           9.2890   -7.2163   25.3721 C.ar    1  UNL1        0.0031
     30 C           8.9450   -7.6555   23.9798 C.ar    1  UNL1       -0.0001
     31 C           8.5236   -6.6428   22.9566 C.ar    1  UNL1        0.0003
     32 C           8.4462   -5.1910   23.3257 C.ar    1  UNL1        0.0276
     33 O           8.7128   -3.3000   25.0873 O.3     1  UNL1       -0.4742
     34 C           8.0825   -2.8887   26.3847 C.3     1  UNL1        0.2224
     35 C           6.5887   -2.8313   26.5079 C.3     1  UNL1        0.1166
     36 C           6.6349   -4.7395   28.2705 C.3     1  UNL1        0.0860
     37 N           5.8656   -3.8454   27.3437 N.3     1  UNL1       -0.2932
     38 H           5.1973   -3.3314   27.9178 H       1  UNL1        0.1234
@<TRIPOS>BOND
     1    36    37    1
     2    37    35    1
     3    35    34    1
     4    34    33    1
     5    33    27    1
     6    27    28   ar
     7    28    29   ar
     8    29    30   ar
     9    30    31   ar
    10    31    32   ar
    11    32    24    1
    12    24    25    1
    13    24    26    1
    14    24    22    1
    15    22     1    1
    16     1     2   ar
    17     2     3   ar
    18     3     4   ar
    19     4     5   ar
    20     5     8    1
    21     8     9   ar
    22     9    10   ar
    23    10    15    1
    24    15    16    2
    25    15    17   am
    26    17    19    1
    27    19    20    1
    28    20    21    1
    29    10    11   ar
    30    11    12   ar
    31    12    13   ar
    32    13    14    1
    33     5     6   ar
    34     6     7    2
    35    32    27   ar
    36     6     1   ar
    37    13     8   ar
    38    21    19    1
    39    37    38    1
    40    22    23    1
    41    17    18    1
@<TRIPOS>MOLECULE
*****
 38 41 0 0 0
SMALL
GASTEIGER

@<TRIPOS>ATOM
      1 C          -6.3329  -20.5323   20.1028 C.ar    1  UNL1        0.1860
      2 N          -6.9274  -21.1176   18.8563 N.ar    1  UNL1       -0.2232
      3 C          -8.3528  -20.8220   18.4948 C.ar    1  UNL1        0.1195
      4 C          -9.1838  -19.9411   19.3800 C.ar    1  UNL1        0.1037
      5 N          -8.5893  -19.3558   20.6266 N.ar    1  UNL1       -0.2696
      6 C          -7.1639  -19.6514   20.9880 C.ar    1  UNL1        0.2963
      7 O          -6.5693  -19.0661   22.2346 O.2     1  UNL1       -0.2636
      8 C          -9.4203  -18.4749   21.5117 C.ar    1  UNL1        0.0632
      9 C          -8.9446  -18.1378   22.8937 C.ar    1  UNL1        0.0218
     10 C          -9.7756  -17.2569   23.7789 C.ar    1  UNL1        0.0548
     11 C         -11.0823  -16.7131   23.2820 C.ar    1  UNL1        0.0043
     12 C         -11.5579  -17.0502   21.9000 C.ar    1  UNL1       -0.0027
     13 C         -10.7269  -17.9311   21.0148 C.ar    1  UNL1       -0.0056
     14 C         -11.2027  -18.2682   19.6327 C.3     1  UNL1        0.0326
     15 C          -9.2999  -16.9198   25.1610 C.2     1  UNL1        0.2458
     16 O          -9.3703  -17.9487   26.2502 O.2     1  UNL1       -0.2701
     17 N          -8.7538  -15.5538   25.4538 N.am    1  UNL1       -0.3025
     18 H          -8.7076  -14.8785   24.7390 H       1  UNL1        0.1497
     19 C          -8.2781  -15.2168   26.8359 C.3     1  UNL1        0.0720
     20 C          -7.2098  -15.2575   27.8880 C.3     1  UNL1        0.0213
     21 C          -8.5226  -14.5922   28.1776 C.3     1  UNL1        0.0213
     22 N          -4.9074  -20.8279   20.4643 N.pl3   1  UNL1       -0.3139
     23 H          -4.6310  -21.7521   20.6613 H       1  UNL1        0.1485
     24 C          -3.9031  -19.7155   20.5257 C.3     1  UNL1        0.0776
     25 C          -4.5010  -19.1075   19.2917 C.3     1  UNL1        0.0243
     26 C          -3.3051  -20.3235   21.7597 C.3     1  UNL1        0.0243
     27 C          -3.0895  -17.4729   21.5548 C.ar    1  UNL1        0.1361
     28 C          -2.0851  -16.3605   21.6162 C.ar    1  UNL1        0.0366
     29 C          -0.8900  -16.3783   20.7100 C.ar    1  UNL1        0.0031
     30 C          -0.6992  -17.5084   19.7424 C.ar    1  UNL1       -0.0001
     31 C          -1.7035  -18.6208   19.6810 C.ar    1  UNL1        0.0003
     32 C          -2.8987  -18.6030   20.5872 C.ar    1  UNL1        0.0276
     33 O          -4.2847  -17.4552   22.4610 O.3     1  UNL1       -0.4742
     34 C          -4.3383  -16.4959   23.6129 C.3     1  UNL1        0.2224
     35 C          -5.6593  -15.9671   24.0877 C.3     1  UNL1        0.1166
     36 C          -7.3971  -15.0948   22.3645 C.3     1  UNL1        0.0860
     37 N          -6.3134  -14.8261   23.3663 N.3     1  UNL1       -0.2932
     38 H          -6.7161  -14.2186   24.0799 H       1  UNL1        0.1234
@<TRIPOS>BOND
     1    36    37    1
     2    37    35    1
     3    35    34    1
     4    34    33    1
     5    33    27    1
     6    27    28   ar
     7    28    29   ar
     8    29    30   ar
     9    30    31   ar
    10    31    32   ar
    11    32    24    1
    12    24    25    1
    13    24    26    1
    14    24    22    1
    15    22     1    1
    16     1     2   ar
    17     2     3   ar
    18     3     4   ar
    19     4     5   ar
    20     5     8    1
    21     8     9   ar
    22     9    10   ar
    23    10    15    1
    24    15    16    2
    25    15    17   am
    26    17    19    1
    27    19    20    1
    28    20    21    1
    29    10    11   ar
    30    11    12   ar
    31    12    13   ar
    32    13    14    1
    33     5     6   ar
    34     6     7    2
    35    32    27   ar
    36     6     1   ar
    37    13     8   ar
    38    21    19    1
    39    37    38    1
    40    22    23    1
    41    17    18    1
@<TRIPOS>MOLECULE
*****
 38 41 0 0 0
SMALL
GASTEIGER

@<TRIPOS>ATOM
      1 C          -0.0378    4.2459   21.0015 C.ar    1  UNL1        0.1860
      2 N          -1.2180    4.3061   20.0777 N.ar    1  UNL1       -0.2232
      3 C          -1.1060    3.7685   18.6819 C.ar    1  UNL1        0.1195
      4 C           0.1862    3.1707   18.2098 C.ar    1  UNL1        0.1037
      5 N           1.3664    3.1105   19.1336 N.ar    1  UNL1       -0.2696
      6 C           1.2544    3.6481   20.5294 C.ar    1  UNL1        0.2963
      7 O           2.4347    3.5879   21.4533 O.2     1  UNL1       -0.2636
      8 C           2.6586    2.5127   18.6615 C.ar    1  UNL1        0.0632
      9 C           2.8321    1.0229   18.6400 C.ar    1  UNL1        0.0218
     10 C           4.1243    0.4251   18.1679 C.ar    1  UNL1        0.0548
     11 C           5.2430    1.3171   17.7174 C.ar    1  UNL1        0.0043
     12 C           5.0694    2.8068   17.7390 C.ar    1  UNL1       -0.0027
     13 C           3.7772    3.4046   18.2110 C.ar    1  UNL1       -0.0056
     14 C           3.6037    4.8944   18.2325 C.3     1  UNL1        0.0326
     15 C           4.2979   -1.0647   18.1464 C.2     1  UNL1        0.2458
     16 O           5.1674   -1.7035   17.1043 O.2     1  UNL1       -0.2701
     17 N           3.6019   -1.9156   19.1669 N.am    1  UNL1       -0.3025
     18 H           3.0312   -1.4964   19.8508 H       1  UNL1        0.1497
     19 C           3.7754   -3.4054   19.1453 C.3     1  UNL1        0.0720
     20 C           4.6386   -4.6094   18.9104 C.3     1  UNL1        0.0213
     21 C           3.2127   -4.7817   19.3428 C.3     1  UNL1        0.0213
     22 N          -0.1497    4.7835   22.3974 N.pl3   1  UNL1       -0.3139
     23 H           0.6023    5.2781   22.7962 H       1  UNL1        0.1485
     24 C          -1.4075    4.5676   23.1856 C.3     1  UNL1        0.0776
     25 C          -1.1106    3.0991   23.2572 C.3     1  UNL1        0.0243
     26 C          -1.7044    6.0361   23.1141 C.3     1  UNL1        0.0243
     27 C          -3.9822    4.2295   23.2663 C.ar    1  UNL1        0.1361
     28 C          -5.2400    4.0136   24.0546 C.ar    1  UNL1        0.0366
     29 C          -5.1808    3.9200   25.5505 C.ar    1  UNL1        0.0031
     30 C          -3.8639    4.0422   26.2581 C.ar    1  UNL1       -0.0001
     31 C          -2.6062    4.2580   25.4698 C.ar    1  UNL1        0.0003
     32 C          -2.6653    4.3517   23.9739 C.ar    1  UNL1        0.0276
     33 O          -4.0414    4.3232   21.7704 O.3     1  UNL1       -0.4742
     34 C          -4.6382    3.2025   20.9718 C.3     1  UNL1        0.2224
     35 C          -5.6452    3.4986   19.9002 C.3     1  UNL1        0.1166
     36 C          -4.6290    3.9187   17.5463 C.3     1  UNL1        0.0860
     37 N          -5.3976    3.0443   18.4922 N.3     1  UNL1       -0.2932
     38 H          -4.8923    2.1603   18.5525 H       1  UNL1        0.1234
@<TRIPOS>BOND
     1    36    37    1
     2    37    35    1
     3    35    34    1
     4    34    33    1
     5    33    27    1
     6    27    28   ar
     7    28    29   ar
     8    29    30   ar
     9    30    31   ar
    10    31    32   ar
    11    32    24    1
    12    24    25    1
    13    24    26    1
    14    24    22    1
    15    22     1    1
    16     1     2   ar
    17     2     3   ar
    18     3     4   ar
    19     4     5   ar
    20     5     8    1
    21     8     9   ar
    22     9    10   ar
    23    10    15    1
    24    15    16    2
    25    15    17   am
    26    17    19    1
    27    19    20    1
    28    20    21    1
    29    10    11   ar
    30    11    12   ar
    31    12    13   ar
    32    13    14    1
    33     5     6   ar
    34     6     7    2
    35    32    27   ar
    36     6     1   ar
    37    13     8   ar
    38    21    19    1
    39    37    38    1
    40    22    23    1
    41    17    18    1
@<TRIPOS>MOLECULE
*****
 38 41 0 0 0
SMALL
GASTEIGER

@<TRIPOS>ATOM
      1 C           1.6427    1.4210   19.1643 C.ar    1  UNL1        0.1860
      2 N           2.3662    2.6075   18.5998 N.ar    1  UNL1       -0.2232
      3 C           1.9760    3.9935   19.0201 C.ar    1  UNL1        0.1195
      4 C           0.8621    4.1929   20.0048 C.ar    1  UNL1        0.1037
      5 N           0.1386    3.0064   20.5692 N.ar    1  UNL1       -0.2696
      6 C           0.5289    1.6204   20.1490 C.ar    1  UNL1        0.2963
      7 O          -0.1947    0.4338   20.7134 O.2     1  UNL1       -0.2636
      8 C          -0.9752    3.2059   21.5539 C.ar    1  UNL1        0.0632
      9 C          -0.7263    3.0029   23.0191 C.ar    1  UNL1        0.0218
     10 C          -1.8401    3.2024   24.0038 C.ar    1  UNL1        0.0548
     11 C          -3.2028    3.6049   23.5233 C.ar    1  UNL1        0.0043
     12 C          -3.4518    3.8079   22.0581 C.ar    1  UNL1       -0.0027
     13 C          -2.3379    3.6084   21.0735 C.ar    1  UNL1       -0.0056
     14 C          -2.5869    3.8114   19.6082 C.3     1  UNL1        0.0326
     15 C          -1.5911    2.9994   25.4690 C.2     1  UNL1        0.2458
     16 O          -2.1584    3.9649   26.4670 O.2     1  UNL1       -0.2701
     17 N          -0.7749    1.8309   25.9363 N.am    1  UNL1       -0.3025
     18 H          -0.4025    1.1972   25.2813 H       1  UNL1        0.1497
     19 C          -0.5259    1.6280   27.4014 C.3     1  UNL1        0.0720
     20 C           0.1584    2.0377   28.6718 C.3     1  UNL1        0.0213
     21 C          -0.7790    0.8667   28.6689 C.3     1  UNL1        0.0213
     22 N           2.0329    0.0349   18.7441 N.pl3   1  UNL1       -0.3139
     23 H           1.3407   -0.6105   18.4727 H       1  UNL1        0.1485
     24 C           3.4778   -0.3679   18.7373 C.3     1  UNL1        0.0776
     25 C           3.4984   -0.3192   20.2363 C.3     1  UNL1        0.0243
     26 C           3.4572   -0.4167   17.2382 C.3     1  UNL1        0.0243
     27 C           5.2963   -2.2231   18.7006 C.ar    1  UNL1        0.1361
     28 C           6.7412   -2.6259   18.6938 C.ar    1  UNL1        0.0366
     29 C           7.8125   -1.5762   18.7168 C.ar    1  UNL1        0.0031
     30 C           7.4389   -0.1238   18.7466 C.ar    1  UNL1       -0.0001
     31 C           5.9941    0.2789   18.7534 C.ar    1  UNL1        0.0003
     32 C           4.9227   -0.7707   18.7304 C.ar    1  UNL1        0.0276
     33 O           4.2250   -3.2728   18.6776 O.3     1  UNL1       -0.4742
     34 C           4.0019   -4.1432   19.8787 C.3     1  UNL1        0.2224
     35 C           4.4793   -3.6956   21.2284 C.3     1  UNL1        0.1166
     36 C           6.7949   -3.3693   22.3605 C.3     1  UNL1        0.0860
     37 N           5.7340   -4.2760   21.8107 N.3     1  UNL1       -0.2932
     38 H           5.4480   -4.8907   22.5728 H       1  UNL1        0.1234
@<TRIPOS>BOND
     1    36    37    1
     2    37    35    1
     3    35    34    1
     4    34    33    1
     5    33    27    1
     6    27    28   ar
     7    28    29   ar
     8    29    30   ar
     9    30    31   ar
    10    31    32   ar
    11    32    24    1
    12    24    25    1
    13    24    26    1
    14    24    22    1
    15    22     1    1
    16     1     2   ar
    17     2     3   ar
    18     3     4   ar
    19     4     5   ar
    20     5     8    1
    21     8     9   ar
    22     9    10   ar
    23    10    15    1
    24    15    16    2
    25    15    17   am
    26    17    19    1
    27    19    20    1
    28    20    21    1
    29    10    11   ar
    30    11    12   ar
    31    12    13   ar
    32    13    14    1
    33     5     6   ar
    34     6     7    2
    35    32    27   ar
    36     6     1   ar
    37    13     8   ar
    38    21    19    1
    39    37    38    1
    40    22    23    1
    41    17    18    1
