@<TRIPOS>MOLECULE
*****
 36 41 0 0 0
SMALL
GASTEIGER

@<TRIPOS>ATOM
      1 C           4.4505   -1.6469   19.0311 C.ar    1  UNL1       -0.0065
      2 C           5.7604   -1.6413   18.3002 C.ar    1  UNL1       -0.0032
      3 C           6.9480   -2.3473   18.8841 C.ar    1  UNL1       -0.0026
      4 C           6.8258   -3.0589   20.1989 C.ar    1  UNL1        0.0019
      5 C           5.5160   -3.0645   20.9298 C.ar    1  UNL1       -0.0200
      6 C           4.3284   -2.3585   20.3459 C.ar    1  UNL1       -0.0071
      7 C           5.6963   -3.8447   22.1982 C.3     1  UNL1        0.0519
      8 C           7.1176   -4.3212   22.2512 C.2     1  UNL1        0.0074
      9 C           8.1074   -5.0979   23.0680 C.2     1  UNL1        0.0976
     10 N           9.4173   -5.0923   22.3371 N.2     1  UNL1       -0.1526
     11 N           9.2370   -4.3122   21.0687 N.2     1  UNL1       -0.1678
     12 C           7.8157   -3.8356   21.0156 C.3     1  UNL1        0.1672
     13 C           7.8352   -5.7633   24.3844 C.ar    1  UNL1        0.0265
     14 C           7.2765   -5.1004   25.6086 C.ar    1  UNL1        0.0376
     15 S           7.1698   -6.1359   26.6886 S.2     1  UNL1       -0.0780
     16 C           7.6626   -7.4387   26.1319 C.ar    1  UNL1        0.0709
     17 C           8.0739   -7.2085   24.7079 C.ar    1  UNL1        0.0168
     18 C           7.7321   -8.7428   26.8698 C.1     1  UNL1       -0.0577
     19 C           7.8015  -10.0470   27.6077 C.1     1  UNL1       -0.0820
     20 C           7.8709  -11.3511   28.3455 C.3     1  UNL1        0.1236
     21 C           6.6760  -12.2571   28.3813 C.3     1  UNL1        0.2193
     22 O           5.2954  -11.6750   28.4543 O.3     1  UNL1       -0.4744
     23 C           4.1025  -12.5812   28.5307 C.ar    1  UNL1        0.1386
     24 C           3.9718  -13.7311   27.5763 C.ar    1  UNL1        0.0369
     25 C           2.7789  -14.6373   27.6528 C.ar    1  UNL1        0.0031
     26 C           1.7167  -14.3936   28.6835 C.ar    1  UNL1        0.0002
     27 C           1.8475  -13.2437   29.6378 C.ar    1  UNL1        0.0031
     28 C           3.0404  -12.3376   29.5614 C.ar    1  UNL1        0.0369
     29 C           3.2628   -0.9409   18.4472 C.3     1  UNL1        0.0992
     30 C          -0.0475    2.7018   21.8783 C.3     1  UNL1        0.0897
     31 N           0.7801    1.7912   21.0205 N.3     1  UNL1       -0.2691
     32 C           2.0159    2.3119   20.3485 C.3     1  UNL1        0.0897
     33 C           2.8435    1.4012   19.4907 C.3     1  UNL1        0.0899
     34 N           2.4352   -0.0302   19.3050 N.3     1  UNL1       -0.2665
     35 C           1.1994   -0.5509   19.9770 C.3     1  UNL1        0.0899
     36 C           0.3718    0.3598   20.8348 C.3     1  UNL1        0.0897
@<TRIPOS>BOND
     1    30    31    1
     2    31    32    1
     3    32    33    1
     4    33    34    1
     5    34    29    1
     6    29     1    1
     7     1     2   ar
     8     2     3   ar
     9     3     4   ar
    10     4     5   ar
    11     5     6   ar
    12     5     7    1
    13     7     8    1
    14     8     9    2
    15     9    13    1
    16    13    14   ar
    17    14    15   ar
    18    15    16   ar
    19    16    18    1
    20    18    19    3
    21    19    20    1
    22    20    21    1
    23    21    22    1
    24    22    23    1
    25    23    24   ar
    26    24    25   ar
    27    25    26   ar
    28    26    27   ar
    29    27    28   ar
    30    16    17   ar
    31     9    10    1
    32    10    11    2
    33    11    12    1
    34    34    35    1
    35    35    36    1
    36    36    31    1
    37     6     1   ar
    38    12     8    1
    39    12     4    1
    40    17    13   ar
    41    28    23   ar
@<TRIPOS>MOLECULE
*****
 36 41 0 0 0
SMALL
GASTEIGER

@<TRIPOS>ATOM
      1 C           7.6692   -5.0659   23.4290 C.ar    1  UNL1       -0.0065
      2 C           8.5178   -5.2050   22.2000 C.ar    1  UNL1       -0.0032
      3 C           8.1091   -4.5271   20.9259 C.ar    1  UNL1       -0.0026
      4 C           6.8519   -3.7102   20.8808 C.ar    1  UNL1        0.0019
      5 C           6.0033   -3.5712   22.1098 C.ar    1  UNL1       -0.0200
      6 C           6.4120   -4.2490   23.3839 C.ar    1  UNL1       -0.0071
      7 C           4.8264   -2.7074   21.7652 C.3     1  UNL1        0.0519
      8 C           4.9476   -2.3126   20.3231 C.2     1  UNL1        0.0074
      9 C           4.2951   -1.5348   19.2190 C.2     1  UNL1        0.0976
     10 N           5.1436   -1.6739   17.9899 N.2     1  UNL1       -0.1526
     11 N           6.3205   -2.5376   18.3345 N.2     1  UNL1       -0.1678
     12 C           6.1994   -2.9324   19.7765 C.3     1  UNL1        0.1672
     13 C           3.0181   -0.7549   19.3252 C.ar    1  UNL1        0.0265
     14 C           1.8902   -1.0350   20.2736 C.ar    1  UNL1        0.0376
     15 S           0.8200   -0.0112   20.0362 S.2     1  UNL1       -0.0780
     16 C           1.2864    0.9017   18.9411 C.ar    1  UNL1        0.0709
     17 C           2.6450    0.4420   18.5017 C.ar    1  UNL1        0.0168
     18 C           0.5276    2.0692   18.3834 C.1     1  UNL1       -0.0577
     19 C          -0.2313    3.2367   17.8256 C.1     1  UNL1       -0.0820
     20 C          -0.9901    4.4042   17.2679 C.3     1  UNL1        0.1236
     21 C          -2.3315    4.7660   17.8333 C.3     1  UNL1        0.2193
     22 O          -3.1997    3.7050   18.4422 O.3     1  UNL1       -0.4744
     23 C          -3.3830    3.6485   19.9298 C.ar    1  UNL1        0.1386
     24 C          -2.2251    3.9344   20.8396 C.ar    1  UNL1        0.0369
     25 C          -2.4084    3.8778   22.3273 C.ar    1  UNL1        0.0031
     26 C          -3.7497    3.5353   22.9052 C.ar    1  UNL1        0.0002
     27 C          -4.9075    3.2494   21.9955 C.ar    1  UNL1        0.0031
     28 C          -4.7242    3.3060   20.5078 C.ar    1  UNL1        0.0369
     29 C           8.0779   -5.7438   24.7032 C.3     1  UNL1        0.0992
     30 C           6.5891   -3.3360   29.9934 C.3     1  UNL1        0.0897
     31 N           6.9613   -3.9380   28.6709 N.3     1  UNL1       -0.2691
     32 C           6.2747   -5.1833   28.1939 C.3     1  UNL1        0.0897
     33 C           6.6469   -5.7853   26.8713 C.3     1  UNL1        0.0899
     34 N           7.7057   -5.1419   26.0258 N.3     1  UNL1       -0.2665
     35 C           8.3923   -3.8964   26.5028 C.3     1  UNL1        0.0899
     36 C           8.0201   -3.2945   27.8253 C.3     1  UNL1        0.0897
@<TRIPOS>BOND
     1    30    31    1
     2    31    32    1
     3    32    33    1
     4    33    34    1
     5    34    29    1
     6    29     1    1
     7     1     2   ar
     8     2     3   ar
     9     3     4   ar
    10     4     5   ar
    11     5     6   ar
    12     5     7    1
    13     7     8    1
    14     8     9    2
    15     9    13    1
    16    13    14   ar
    17    14    15   ar
    18    15    16   ar
    19    16    18    1
    20    18    19    3
    21    19    20    1
    22    20    21    1
    23    21    22    1
    24    22    23    1
    25    23    24   ar
    26    24    25   ar
    27    25    26   ar
    28    26    27   ar
    29    27    28   ar
    30    16    17   ar
    31     9    10    1
    32    10    11    2
    33    11    12    1
    34    34    35    1
    35    35    36    1
    36    36    31    1
    37     6     1   ar
    38    12     8    1
    39    12     4    1
    40    17    13   ar
    41    28    23   ar
@<TRIPOS>MOLECULE
*****
 36 41 0 0 0
SMALL
GASTEIGER

@<TRIPOS>ATOM
      1 C           0.5699    2.5236   19.5270 C.ar    1  UNL1       -0.0065
      2 C           0.7247    1.5380   18.4070 C.ar    1  UNL1       -0.0032
      3 C           1.5136    0.2799   18.6187 C.ar    1  UNL1       -0.0026
      4 C           2.1477    0.0075   19.9504 C.ar    1  UNL1        0.0019
      5 C           1.9930    0.9931   21.0705 C.ar    1  UNL1       -0.0200
      6 C           1.2040    2.2511   20.8588 C.ar    1  UNL1       -0.0071
      7 C           2.7265    0.4572   22.2641 C.3     1  UNL1        0.0519
      8 C           3.3347   -0.8596   21.8817 C.2     1  UNL1        0.0074
      9 C           4.1640   -2.0046   22.3831 C.2     1  UNL1        0.0976
     10 N           4.3187   -2.9901   21.2630 N.2     1  UNL1       -0.1526
     11 N           3.5851   -2.4543   20.0694 N.2     1  UNL1       -0.1678
     12 C           2.9770   -1.1376   20.4518 C.3     1  UNL1        0.1672
     13 C           4.7377   -2.1401   23.7624 C.ar    1  UNL1        0.0265
     14 C           5.9713   -2.9091   24.1326 C.ar    1  UNL1        0.0376
     15 S           6.1745   -2.7747   25.6126 S.2     1  UNL1       -0.0780
     16 C           5.0666   -1.9227   26.1572 C.ar    1  UNL1        0.0709
     17 C           4.1786   -1.5305   25.0137 C.ar    1  UNL1        0.0168
     18 C           4.8795   -1.5316   27.5931 C.1     1  UNL1       -0.0577
     19 C           4.6924   -1.1405   29.0292 C.1     1  UNL1       -0.0820
     20 C           4.5053   -0.7493   30.4651 C.3     1  UNL1        0.1236
     21 C           3.2033   -0.1578   30.9178 C.3     1  UNL1        0.2193
     22 O           1.9080   -0.7180   30.4094 O.3     1  UNL1       -0.4744
     23 C           1.1583   -0.0063   29.3225 C.ar    1  UNL1        0.1386
     24 C          -0.3326   -0.1419   29.2270 C.ar    1  UNL1        0.0369
     25 C          -1.0823    0.5698   28.1400 C.ar    1  UNL1        0.0031
     26 C          -0.3411    1.4172   27.1486 C.ar    1  UNL1        0.0002
     27 C           1.1496    1.5527   27.2442 C.ar    1  UNL1        0.0031
     28 C           1.8993    0.8410   28.3311 C.ar    1  UNL1        0.0369
     29 C          -0.2191    3.7817   19.3154 C.3     1  UNL1        0.0992
     30 C          -6.2080    3.5551   19.0305 C.3     1  UNL1        0.0897
     31 N          -4.7108    3.6118   19.1017 N.3     1  UNL1       -0.2691
     32 C          -4.0084    3.2905   20.3876 C.3     1  UNL1        0.0897
     33 C          -2.5111    3.3472   20.4588 C.3     1  UNL1        0.0899
     34 N          -1.7163    3.7250   19.2442 N.3     1  UNL1       -0.2665
     35 C          -2.4187    4.0463   17.9583 C.3     1  UNL1        0.0899
     36 C          -3.9159    3.9896   17.8871 C.3     1  UNL1        0.0897
@<TRIPOS>BOND
     1    30    31    1
     2    31    32    1
     3    32    33    1
     4    33    34    1
     5    34    29    1
     6    29     1    1
     7     1     2   ar
     8     2     3   ar
     9     3     4   ar
    10     4     5   ar
    11     5     6   ar
    12     5     7    1
    13     7     8    1
    14     8     9    2
    15     9    13    1
    16    13    14   ar
    17    14    15   ar
    18    15    16   ar
    19    16    18    1
    20    18    19    3
    21    19    20    1
    22    20    21    1
    23    21    22    1
    24    22    23    1
    25    23    24   ar
    26    24    25   ar
    27    25    26   ar
    28    26    27   ar
    29    27    28   ar
    30    16    17   ar
    31     9    10    1
    32    10    11    2
    33    11    12    1
    34    34    35    1
    35    35    36    1
    36    36    31    1
    37     6     1   ar
    38    12     8    1
    39    12     4    1
    40    17    13   ar
    41    28    23   ar
@<TRIPOS>MOLECULE
*****
 36 41 0 0 0
SMALL
GASTEIGER

@<TRIPOS>ATOM
      1 C           0.9318    0.3203   19.9394 C.ar    1  UNL1       -0.0065
      2 C           1.2259    0.6822   18.5137 C.ar    1  UNL1       -0.0032
      3 C           2.5044    0.2291   17.8733 C.ar    1  UNL1       -0.0026
      4 C           3.4888   -0.5859   18.6586 C.ar    1  UNL1        0.0019
      5 C           3.1947   -0.9479   20.0842 C.ar    1  UNL1       -0.0200
      6 C           1.9162   -0.4948   20.7246 C.ar    1  UNL1       -0.0071
      7 C           4.3464   -1.7561   20.6042 C.3     1  UNL1        0.0519
      8 C           5.3523   -1.8936   19.5000 C.2     1  UNL1        0.0074
      9 C           6.6857   -2.4781   19.1390 C.2     1  UNL1        0.0976
     10 N           6.9797   -2.1161   17.7134 N.2     1  UNL1       -0.1526
     11 N           5.8281   -1.3079   17.1933 N.2     1  UNL1       -0.1678
     12 C           4.8223   -1.1704   18.2975 C.3     1  UNL1        0.1672
     13 C           7.5698   -3.2832   20.0446 C.ar    1  UNL1        0.0265
     14 C           9.0692   -3.3157   20.0124 C.ar    1  UNL1        0.0376
     15 S           9.5358   -4.2497   21.0893 S.2     1  UNL1       -0.0780
     16 C           8.3249   -4.7945   21.7871 C.ar    1  UNL1        0.0709
     17 C           7.1098   -4.1972   21.1415 C.ar    1  UNL1        0.0168
     18 C           8.3283   -5.7660   22.9299 C.1     1  UNL1       -0.0577
     19 C           8.3319   -6.7377   24.0728 C.1     1  UNL1       -0.0820
     20 C           8.3354   -7.7092   25.2156 C.3     1  UNL1        0.1236
     21 C           7.3211   -7.5799   26.3130 C.3     1  UNL1        0.2193
     22 O           7.7638   -7.2558   27.7091 O.3     1  UNL1       -0.4744
     23 C           7.5076   -5.8924   28.2797 C.ar    1  UNL1        0.1386
     24 C           7.0641   -5.7471   29.7053 C.ar    1  UNL1        0.0369
     25 C           6.8080   -4.3837   30.2758 C.ar    1  UNL1        0.0031
     26 C           6.9953   -3.1656   29.4207 C.ar    1  UNL1        0.0002
     27 C           7.4387   -3.3108   27.9952 C.ar    1  UNL1        0.0031
     28 C           7.6949   -4.6742   27.4247 C.ar    1  UNL1        0.0369
     29 C          -0.3467    0.7734   20.5798 C.3     1  UNL1        0.0992
     30 C          -1.0846    6.5430   22.0517 C.3     1  UNL1        0.0897
     31 N          -0.9001    5.1006   21.6837 N.3     1  UNL1       -0.2691
     32 C          -1.1851    4.6412   20.2846 C.3     1  UNL1        0.0897
     33 C          -1.0007    3.1987   19.9166 C.3     1  UNL1        0.0899
     34 N          -0.5312    2.2157   20.9478 N.3     1  UNL1       -0.2665
     35 C          -0.2462    2.6752   22.3470 C.3     1  UNL1        0.0899
     36 C          -0.4306    4.1176   22.7149 C.3     1  UNL1        0.0897
@<TRIPOS>BOND
     1    30    31    1
     2    31    32    1
     3    32    33    1
     4    33    34    1
     5    34    29    1
     6    29     1    1
     7     1     2   ar
     8     2     3   ar
     9     3     4   ar
    10     4     5   ar
    11     5     6   ar
    12     5     7    1
    13     7     8    1
    14     8     9    2
    15     9    13    1
    16    13    14   ar
    17    14    15   ar
    18    15    16   ar
    19    16    18    1
    20    18    19    3
    21    19    20    1
    22    20    21    1
    23    21    22    1
    24    22    23    1
    25    23    24   ar
    26    24    25   ar
    27    25    26   ar
    28    26    27   ar
    29    27    28   ar
    30    16    17   ar
    31     9    10    1
    32    10    11    2
    33    11    12    1
    34    34    35    1
    35    35    36    1
    36    36    31    1
    37     6     1   ar
    38    12     8    1
    39    12     4    1
    40    17    13   ar
    41    28    23   ar
@<TRIPOS>MOLECULE
*****
 36 41 0 0 0
SMALL
GASTEIGER

@<TRIPOS>ATOM
      1 C           5.5480   -1.3577   30.4760 C.ar    1  UNL1       -0.0065
      2 C           4.5474   -1.3535   31.5934 C.ar    1  UNL1       -0.0032
      3 C           3.1580   -0.8414   31.3540 C.ar    1  UNL1       -0.0026
      4 C           2.7693   -0.3335   29.9972 C.ar    1  UNL1        0.0019
      5 C           3.7700   -0.3378   28.8798 C.ar    1  UNL1       -0.0200
      6 C           5.1593   -0.8499   29.1192 C.ar    1  UNL1       -0.0071
      7 C           3.1028    0.2210   27.6580 C.3     1  UNL1        0.0519
      8 C           1.6898    0.5706   28.0203 C.2     1  UNL1        0.0074
      9 C           0.4042    1.1319   27.4891 C.2     1  UNL1        0.0976
     10 N          -0.5964    1.1362   28.6066 N.2     1  UNL1       -0.1526
     11 N           0.0708    0.5774   29.8283 N.2     1  UNL1       -0.1678
     12 C           1.4837    0.2279   29.4660 C.3     1  UNL1        0.1672
     13 C           0.1619    1.6058   26.0867 C.ar    1  UNL1        0.0265
     14 C          -0.6986    2.7669   25.6847 C.ar    1  UNL1        0.0376
     15 S          -0.6548    2.8805   24.1897 S.2     1  UNL1       -0.0780
     16 C           0.2327    1.7897   23.6677 C.ar    1  UNL1        0.0709
     17 C           0.7374    1.0019   24.8401 C.ar    1  UNL1        0.0168
     18 C           0.5582    1.5319   22.2264 C.1     1  UNL1       -0.0577
     19 C           0.8838    1.2741   20.7850 C.1     1  UNL1       -0.0820
     20 C           1.2094    1.0163   19.3436 C.3     1  UNL1        0.1236
     21 C           2.5538    0.4697   18.9645 C.3     1  UNL1        0.2193
     22 O           2.7528   -1.0118   18.8387 O.3     1  UNL1       -0.4744
     23 C           3.3274   -1.7914   19.9841 C.ar    1  UNL1        0.1386
     24 C           3.3512   -1.1948   21.3603 C.ar    1  UNL1        0.0369
     25 C           3.9259   -1.9744   22.5058 C.ar    1  UNL1        0.0031
     26 C           4.4767   -3.3504   22.2751 C.ar    1  UNL1        0.0002
     27 C           4.4529   -3.9469   20.8990 C.ar    1  UNL1        0.0031
     28 C           3.8782   -3.1673   19.7535 C.ar    1  UNL1        0.0369
     29 C           6.9375   -1.8699   30.7154 C.3     1  UNL1        0.0992
     30 C           8.5657   -7.2365   28.5830 C.3     1  UNL1        0.0897
     31 N           8.1586   -5.8949   29.1160 N.3     1  UNL1       -0.2691
     32 C           7.1673   -5.8030   30.2380 C.3     1  UNL1        0.0897
     33 C           6.7603   -4.4613   30.7712 C.3     1  UNL1        0.0899
     34 N           7.3445   -3.2115   30.1823 N.3     1  UNL1       -0.2665
     35 C           8.3359   -3.3035   29.0603 C.3     1  UNL1        0.0899
     36 C           8.7429   -4.6451   28.5272 C.3     1  UNL1        0.0897
@<TRIPOS>BOND
     1    30    31    1
     2    31    32    1
     3    32    33    1
     4    33    34    1
     5    34    29    1
     6    29     1    1
     7     1     2   ar
     8     2     3   ar
     9     3     4   ar
    10     4     5   ar
    11     5     6   ar
    12     5     7    1
    13     7     8    1
    14     8     9    2
    15     9    13    1
    16    13    14   ar
    17    14    15   ar
    18    15    16   ar
    19    16    18    1
    20    18    19    3
    21    19    20    1
    22    20    21    1
    23    21    22    1
    24    22    23    1
    25    23    24   ar
    26    24    25   ar
    27    25    26   ar
    28    26    27   ar
    29    27    28   ar
    30    16    17   ar
    31     9    10    1
    32    10    11    2
    33    11    12    1
    34    34    35    1
    35    35    36    1
    36    36    31    1
    37     6     1   ar
    38    12     8    1
    39    12     4    1
    40    17    13   ar
    41    28    23   ar
@<TRIPOS>MOLECULE
*****
 36 41 0 0 0
SMALL
GASTEIGER

@<TRIPOS>ATOM
      1 C          -2.7769    3.8786   25.1129 C.ar    1  UNL1       -0.0065
      2 C          -2.4849    4.4503   26.4685 C.ar    1  UNL1       -0.0032
      3 C          -1.2736    3.9973   27.2285 C.ar    1  UNL1       -0.0026
      4 C          -0.3543    2.9726   26.6327 C.ar    1  UNL1        0.0019
      5 C          -0.6463    2.4010   25.2770 C.ar    1  UNL1       -0.0200
      6 C          -1.8575    2.8540   24.5171 C.ar    1  UNL1       -0.0071
      7 C           0.4334    1.4130   24.9483 C.3     1  UNL1        0.0519
      8 C           1.3927    1.3740   26.1008 C.2     1  UNL1        0.0074
      9 C           2.6528    0.7393   26.6099 C.2     1  UNL1        0.0976
     10 N           2.9448    1.3109   27.9656 N.2     1  UNL1       -0.1526
     11 N           1.8651    2.2989   28.2943 N.2     1  UNL1       -0.1678
     12 C           0.9059    2.3379   27.1419 C.3     1  UNL1        0.1672
     13 C           3.4764   -0.2870   25.8897 C.ar    1  UNL1        0.0265
     14 C           4.6361   -1.0468   26.4623 C.ar    1  UNL1        0.0376
     15 S           5.1613   -1.9629   25.3970 S.2     1  UNL1       -0.0780
     16 C           4.3261   -1.7693   24.1661 C.ar    1  UNL1        0.0709
     17 C           3.2848   -0.7335   24.4706 C.ar    1  UNL1        0.0168
     18 C           4.5015   -2.4857   22.8600 C.1     1  UNL1       -0.0577
     19 C           4.6769   -3.2022   21.5538 C.1     1  UNL1       -0.0820
     20 C           4.8523   -3.9186   20.2477 C.3     1  UNL1        0.1236
     21 C           4.1617   -3.4125   19.0160 C.3     1  UNL1        0.2193
     22 O           4.2444   -1.9593   18.6534 O.3     1  UNL1       -0.4744
     23 C           3.0884   -1.0477   18.9410 C.ar    1  UNL1        0.1386
     24 C           2.8269    0.1342   18.0550 C.ar    1  UNL1        0.0369
     25 C           1.6709    1.0458   18.3425 C.ar    1  UNL1        0.0031
     26 C           0.7765    0.7756   19.5161 C.ar    1  UNL1        0.0002
     27 C           1.0381   -0.4062   20.4020 C.ar    1  UNL1        0.0031
     28 C           2.1940   -1.3178   20.1144 C.ar    1  UNL1        0.0369
     29 C          -3.9882    4.3317   24.3528 C.3     1  UNL1        0.0992
     30 C          -4.0898    3.9497   18.3659 C.3     1  UNL1        0.0897
     31 N          -4.0644    4.0452   19.8626 N.3     1  UNL1       -0.2691
     32 C          -4.8823    3.0972   20.6886 C.3     1  UNL1        0.0897
     33 C          -4.8569    3.1927   22.1854 C.3     1  UNL1        0.0899
     34 N          -4.0136    4.2362   22.8561 N.3     1  UNL1       -0.2665
     35 C          -3.1956    5.1842   22.0301 C.3     1  UNL1        0.0899
     36 C          -3.2210    5.0887   20.5334 C.3     1  UNL1        0.0897
@<TRIPOS>BOND
     1    30    31    1
     2    31    32    1
     3    32    33    1
     4    33    34    1
     5    34    29    1
     6    29     1    1
     7     1     2   ar
     8     2     3   ar
     9     3     4   ar
    10     4     5   ar
    11     5     6   ar
    12     5     7    1
    13     7     8    1
    14     8     9    2
    15     9    13    1
    16    13    14   ar
    17    14    15   ar
    18    15    16   ar
    19    16    18    1
    20    18    19    3
    21    19    20    1
    22    20    21    1
    23    21    22    1
    24    22    23    1
    25    23    24   ar
    26    24    25   ar
    27    25    26   ar
    28    26    27   ar
    29    27    28   ar
    30    16    17   ar
    31     9    10    1
    32    10    11    2
    33    11    12    1
    34    34    35    1
    35    35    36    1
    36    36    31    1
    37     6     1   ar
    38    12     8    1
    39    12     4    1
    40    17    13   ar
    41    28    23   ar
@<TRIPOS>MOLECULE
*****
 36 41 0 0 0
SMALL
GASTEIGER

@<TRIPOS>ATOM
      1 C           2.3262   -0.7728   21.1487 C.ar    1  UNL1       -0.0065
      2 C           2.8931   -1.5447   19.9942 C.ar    1  UNL1       -0.0032
      3 C           4.0229   -2.5058   20.2172 C.ar    1  UNL1       -0.0026
      4 C           4.5858   -2.6950   21.5946 C.ar    1  UNL1        0.0019
      5 C           4.0190   -1.9232   22.7491 C.ar    1  UNL1       -0.0200
      6 C           2.8892   -0.9620   22.5261 C.ar    1  UNL1       -0.0071
      7 C           4.7733   -2.3163   23.9845 C.3     1  UNL1        0.0519
      8 C           5.8064   -3.3312   23.5936 C.2     1  UNL1        0.0074
      9 C           6.9111   -4.2014   24.1156 C.2     1  UNL1        0.0976
     10 N           7.4779   -4.9732   22.9612 N.2     1  UNL1       -0.1526
     11 N           6.7236   -4.5801   21.7257 N.2     1  UNL1       -0.1678
     12 C           5.6906   -3.5653   22.1166 C.3     1  UNL1        0.1672
     13 C           7.3685   -4.2850   25.5417 C.ar    1  UNL1        0.0265
     14 C           8.7061   -4.7756   26.0113 C.ar    1  UNL1        0.0376
     15 S           8.7329   -4.6865   27.5084 S.2     1  UNL1       -0.0780
     16 C           7.4121   -4.1409   27.9641 C.ar    1  UNL1        0.0709
     17 C           6.5688   -3.8928   26.7486 C.ar    1  UNL1        0.0168
     18 C           7.0058   -3.8879   29.3856 C.1     1  UNL1       -0.0577
     19 C           6.5994   -3.6348   30.8073 C.1     1  UNL1       -0.0820
     20 C           6.1931   -3.3817   32.2288 C.3     1  UNL1        0.1236
     21 C           5.4063   -2.1529   32.5766 C.3     1  UNL1        0.2193
     22 O           5.4361   -0.9608   31.6666 O.3     1  UNL1       -0.4744
     23 C           4.4293   -0.8353   30.5618 C.ar    1  UNL1        0.1386
     24 C           2.9871   -0.5808   30.8866 C.ar    1  UNL1        0.0369
     25 C           1.9804   -0.4553   29.7818 C.ar    1  UNL1        0.0031
     26 C           2.4158   -0.5843   28.3521 C.ar    1  UNL1        0.0002
     27 C           3.8579   -0.8388   28.0274 C.ar    1  UNL1        0.0031
     28 C           4.8646   -0.9643   29.1322 C.ar    1  UNL1        0.0369
     29 C           1.1964    0.1884   20.9258 C.3     1  UNL1        0.0992
     30 C           2.0129    5.0306   17.4782 C.3     1  UNL1        0.0897
     31 N           1.8088    3.8201   18.3401 N.3     1  UNL1       -0.2691
     32 C           0.4381    3.2301   18.4920 C.3     1  UNL1        0.0897
     33 C           0.2339    2.0195   19.3539 C.3     1  UNL1        0.0899
     34 N           1.4005    1.3989   20.0639 N.3     1  UNL1       -0.2665
     35 C           2.7712    1.9890   19.9120 C.3     1  UNL1        0.0899
     36 C           2.9753    3.1995   19.0501 C.3     1  UNL1        0.0897
@<TRIPOS>BOND
     1    30    31    1
     2    31    32    1
     3    32    33    1
     4    33    34    1
     5    34    29    1
     6    29     1    1
     7     1     2   ar
     8     2     3   ar
     9     3     4   ar
    10     4     5   ar
    11     5     6   ar
    12     5     7    1
    13     7     8    1
    14     8     9    2
    15     9    13    1
    16    13    14   ar
    17    14    15   ar
    18    15    16   ar
    19    16    18    1
    20    18    19    3
    21    19    20    1
    22    20    21    1
    23    21    22    1
    24    22    23    1
    25    23    24   ar
    26    24    25   ar
    27    25    26   ar
    28    26    27   ar
    29    27    28   ar
    30    16    17   ar
    31     9    10    1
    32    10    11    2
    33    11    12    1
    34    34    35    1
    35    35    36    1
    36    36    31    1
    37     6     1   ar
    38    12     8    1
    39    12     4    1
    40    17    13   ar
    41    28    23   ar
@<TRIPOS>MOLECULE
*****
 36 41 0 0 0
SMALL
GASTEIGER

@<TRIPOS>ATOM
      1 C           3.9375   -1.0783   18.5383 C.ar    1  UNL1       -0.0065
      2 C           4.8172   -2.0547   17.8154 C.ar    1  UNL1       -0.0032
      3 C           5.6860   -2.9990   18.5922 C.ar    1  UNL1       -0.0026
      4 C           5.6750   -2.9669   20.0918 C.ar    1  UNL1        0.0019
      5 C           4.7952   -1.9905   20.8147 C.ar    1  UNL1       -0.0200
      6 C           3.9265   -1.0462   20.0379 C.ar    1  UNL1       -0.0071
      7 C           4.9944   -2.1897   22.2880 C.3     1  UNL1        0.0519
      8 C           5.9973   -3.2893   22.4757 C.2     1  UNL1        0.0074
      9 C           6.7402   -4.0919   23.5023 C.2     1  UNL1        0.0976
     10 N           7.6199   -5.0684   22.7794 N.2     1  UNL1       -0.1526
     11 N           7.4208   -4.8692   21.3061 N.2     1  UNL1       -0.1678
     12 C           6.4179   -3.7697   21.1184 C.3     1  UNL1        0.1672
     13 C           6.6237   -3.9441   24.9904 C.ar    1  UNL1        0.0265
     14 C           7.0452   -4.9576   26.0128 C.ar    1  UNL1        0.0376
     15 S           6.7473   -4.3967   27.3717 S.2     1  UNL1       -0.0780
     16 C           6.1417   -3.0365   27.1892 C.ar    1  UNL1        0.0709
     17 C           6.0653   -2.7568   25.7175 C.ar    1  UNL1        0.0168
     18 C           5.6915   -2.1175   28.2858 C.1     1  UNL1       -0.0577
     19 C           5.2413   -1.1984   29.3825 C.1     1  UNL1       -0.0820
     20 C           4.7911   -0.2793   30.4791 C.3     1  UNL1        0.1236
     21 C           3.3273   -0.0456   30.7082 C.3     1  UNL1        0.2193
     22 O           2.3119   -0.8281   29.9292 O.3     1  UNL1       -0.4744
     23 C           1.4300   -0.1320   28.9353 C.ar    1  UNL1        0.1386
     24 C          -0.0578   -0.1273   29.1269 C.ar    1  UNL1        0.0369
     25 C          -0.9397    0.5688   28.1330 C.ar    1  UNL1        0.0031
     26 C          -0.3338    1.2601   26.9476 C.ar    1  UNL1        0.0002
     27 C           1.1539    1.2553   26.7561 C.ar    1  UNL1        0.0031
     28 C           2.0358    0.5593   27.7500 C.ar    1  UNL1        0.0369
     29 C           3.0686   -0.1339   17.7615 C.3     1  UNL1        0.0992
     30 C           0.0576    4.2042   20.6102 C.3     1  UNL1        0.0897
     31 N           0.8104    3.1197   19.8980 N.3     1  UNL1       -0.2691
     32 C           0.2463    1.7312   19.8367 C.3     1  UNL1        0.0897
     33 C           0.9991    0.6466   19.1246 C.3     1  UNL1        0.0899
     34 N           2.3159    0.9506   18.4737 N.3     1  UNL1       -0.2665
     35 C           2.8799    2.3392   18.5350 C.3     1  UNL1        0.0899
     36 C           2.1272    3.4237   19.2471 C.3     1  UNL1        0.0897
@<TRIPOS>BOND
     1    30    31    1
     2    31    32    1
     3    32    33    1
     4    33    34    1
     5    34    29    1
     6    29     1    1
     7     1     2   ar
     8     2     3   ar
     9     3     4   ar
    10     4     5   ar
    11     5     6   ar
    12     5     7    1
    13     7     8    1
    14     8     9    2
    15     9    13    1
    16    13    14   ar
    17    14    15   ar
    18    15    16   ar
    19    16    18    1
    20    18    19    3
    21    19    20    1
    22    20    21    1
    23    21    22    1
    24    22    23    1
    25    23    24   ar
    26    24    25   ar
    27    25    26   ar
    28    26    27   ar
    29    27    28   ar
    30    16    17   ar
    31     9    10    1
    32    10    11    2
    33    11    12    1
    34    34    35    1
    35    35    36    1
    36    36    31    1
    37     6     1   ar
    38    12     8    1
    39    12     4    1
    40    17    13   ar
    41    28    23   ar
@<TRIPOS>MOLECULE
*****
 36 41 0 0 0
SMALL
GASTEIGER

@<TRIPOS>ATOM
      1 C           3.3390   -1.8602   19.3971 C.ar    1  UNL1       -0.0065
      2 C           4.0924   -0.8988   18.5266 C.ar    1  UNL1       -0.0032
      3 C           3.5388    0.4711   18.2680 C.ar    1  UNL1       -0.0026
      4 C           2.2316    0.8795   18.8801 C.ar    1  UNL1        0.0019
      5 C           1.4782   -0.0819   19.7506 C.ar    1  UNL1       -0.0200
      6 C           2.0319   -1.4518   20.0092 C.ar    1  UNL1       -0.0071
      7 C           0.2236    0.5975   20.2137 C.3     1  UNL1        0.0519
      8 C           0.2017    1.9788   19.6294 C.2     1  UNL1        0.0074
      9 C          -0.5872    3.2524   19.5545 C.2     1  UNL1        0.0976
     10 N           0.1662    4.2138   18.6839 N.2     1  UNL1       -0.1526
     11 N           1.4208    3.5344   18.2208 N.2     1  UNL1       -0.1678
     12 C           1.4427    2.1532   18.8051 C.3     1  UNL1        0.1672
     13 C          -1.8993    3.5179   20.2313 C.ar    1  UNL1        0.0265
     14 C          -3.2324    3.6379   19.5541 C.ar    1  UNL1        0.0376
     15 S          -4.2655    3.9042   20.6084 S.2     1  UNL1       -0.0780
     16 C          -3.5710    3.9487   21.9372 C.ar    1  UNL1        0.0709
     17 C          -2.1086    3.7100   21.7041 C.ar    1  UNL1        0.0168
     18 C          -4.2242    4.1897   23.2658 C.1     1  UNL1       -0.0577
     19 C          -4.8775    4.4307   24.5945 C.1     1  UNL1       -0.0820
     20 C          -5.5307    4.6717   25.9231 C.3     1  UNL1        0.1236
     21 C          -4.8892    5.5929   26.9181 C.3     1  UNL1        0.2193
     22 O          -3.5749    5.2261   27.5410 O.3     1  UNL1       -0.4744
     23 C          -2.4766    4.6554   26.6936 C.ar    1  UNL1        0.1386
     24 C          -1.6593    5.5578   25.8174 C.ar    1  UNL1        0.0369
     25 C          -0.5611    4.9871   24.9699 C.ar    1  UNL1        0.0031
     26 C          -0.2801    3.5138   24.9987 C.ar    1  UNL1        0.0002
     27 C          -1.0974    2.6115   25.8749 C.ar    1  UNL1        0.0031
     28 C          -2.1956    3.1822   26.7223 C.ar    1  UNL1        0.0369
     29 C           3.8927   -3.2301   19.6557 C.3     1  UNL1        0.0992
     30 C           8.0887   -4.0237   23.8703 C.3     1  UNL1        0.0897
     31 N           7.0397   -3.8253   22.8166 N.3     1  UNL1       -0.2691
     32 C           5.5995   -3.6813   23.2100 C.3     1  UNL1        0.0897
     33 C           4.5504   -3.4829   22.1564 C.3     1  UNL1        0.0899
     34 N           4.9417   -3.4285   20.7093 N.3     1  UNL1       -0.2665
     35 C           6.3820   -3.5726   20.3160 C.3     1  UNL1        0.0899
     36 C           7.4310   -3.7709   21.3696 C.3     1  UNL1        0.0897
@<TRIPOS>BOND
     1    30    31    1
     2    31    32    1
     3    32    33    1
     4    33    34    1
     5    34    29    1
     6    29     1    1
     7     1     2   ar
     8     2     3   ar
     9     3     4   ar
    10     4     5   ar
    11     5     6   ar
    12     5     7    1
    13     7     8    1
    14     8     9    2
    15     9    13    1
    16    13    14   ar
    17    14    15   ar
    18    15    16   ar
    19    16    18    1
    20    18    19    3
    21    19    20    1
    22    20    21    1
    23    21    22    1
    24    22    23    1
    25    23    24   ar
    26    24    25   ar
    27    25    26   ar
    28    26    27   ar
    29    27    28   ar
    30    16    17   ar
    31     9    10    1
    32    10    11    2
    33    11    12    1
    34    34    35    1
    35    35    36    1
    36    36    31    1
    37     6     1   ar
    38    12     8    1
    39    12     4    1
    40    17    13   ar
    41    28    23   ar
