@<TRIPOS>MOLECULE
*****
 36 39 0 0 0
SMALL
GASTEIGER

@<TRIPOS>ATOM
      1 C          -3.9681    3.7113   23.2279 C.ar    1  UNL1        0.0012
      2 C          -4.5101    3.6406   24.6247 C.ar    1  UNL1        0.0000
      3 C          -3.5774    3.4365   25.7817 C.ar    1  UNL1       -0.0002
      4 C          -2.1028    3.3032   25.5418 C.ar    1  UNL1        0.0005
      5 C          -1.5608    3.3740   24.1450 C.ar    1  UNL1       -0.0022
      6 C          -2.4934    3.5780   22.9880 C.ar    1  UNL1       -0.0026
      7 C          -6.7660    4.3236   19.7571 C.ar    1  UNL1        0.2249
      8 C          -5.5209    3.5057   19.5815 C.ar    1  UNL1        0.0577
      9 C          -4.5883    3.3016   20.7385 C.ar    1  UNL1        0.0063
     10 C          -4.9007    3.9154   22.0710 C.ar    1  UNL1        0.0194
     11 C          -6.1458    4.7332   22.2465 C.ar    1  UNL1        0.1020
     12 N          -7.0784    4.9373   21.0896 N.ar    1  UNL1       -0.2101
     13 O          -7.6987    4.5276   18.6001 O.3     1  UNL1       -0.4602
     14 C          -7.6669    6.6122   17.0499 C.3     1  UNL1        0.0512
     15 C          -8.1885    5.9053   18.2657 C.3     1  UNL1        0.2072
     16 C          -1.1701    3.0991   26.6987 C.ar    1  UNL1        0.0334
     17 C          -0.9900    1.7300   27.2844 C.ar    1  UNL1       -0.0009
     18 C          -0.0573    1.5259   28.4414 C.ar    1  UNL1       -0.0164
     19 C           0.6952    2.6910   29.0126 C.ar    1  UNL1       -0.0008
     20 C           0.5150    4.0601   28.4270 C.ar    1  UNL1        0.0366
     21 C          -0.4176    4.2641   27.2700 C.ar    1  UNL1        0.1386
     22 O          -0.5978    5.6333   26.6844 O.3     1  UNL1       -0.4714
     23 C          -1.5992    6.5780   27.2799 C.3     1  UNL1        0.2525
     24 C           0.1228    0.1567   29.0270 C.3     1  UNL1        0.0679
     25 C           1.4986   -0.3455   29.3508 C.2     1  UNL1        0.0547
     26 O           2.3426   -0.9656   28.2769 O.co2   1  UNL1       -0.5488
     27 O           2.0305   -0.2275   30.7484 O.co2   1  UNL1       -0.5488
     28 C          -0.0860    3.2406   23.9050 C.3     1  UNL1        0.1201
     29 N           0.4675    1.9744   23.3219 N.am    1  UNL1       -0.2754
     30 C           0.5692    1.8157   21.8338 C.2     1  UNL1        0.2254
     31 O           0.1174    2.9233   20.9288 O.2     1  UNL1       -0.2749
     32 C           1.1228    0.5493   21.2506 C.3     1  UNL1        0.0767
     33 C           2.2060   -0.4862   21.1862 C.3     1  UNL1        0.0096
     34 C           0.9983   -0.6084   20.3051 C.3     1  UNL1        0.0096
     35 C           0.9193    0.8667   24.2269 C.3     1  UNL1        0.0938
     36 C           1.9692    1.1281   25.2658 C.3     1  UNL1        0.0233
@<TRIPOS>UNITY_ATOM_ATTR
27 1
charge -1
@<TRIPOS>BOND
     1    14    15    1
     2    15    13    1
     3    13     7    1
     4     7     8   ar
     5     8     9   ar
     6     9    10   ar
     7    10     1    1
     8     1     2   ar
     9     2     3   ar
    10     3     4   ar
    11     4    16    1
    12    16    17   ar
    13    17    18   ar
    14    18    24    1
    15    24    25    1
    16    25    26   ar
    17    25    27   ar
    18    18    19   ar
    19    19    20   ar
    20    20    21   ar
    21    21    22    1
    22    22    23    1
    23     4     5   ar
    24     5    28    1
    25    28    29    1
    26    29    35    1
    27    35    36    1
    28    29    30   am
    29    30    31    2
    30    30    32    1
    31    32    33    1
    32    33    34    1
    33     5     6   ar
    34    10    11   ar
    35    11    12   ar
    36    12     7   ar
    37     6     1   ar
    38    21    16   ar
    39    34    32    1
@<TRIPOS>MOLECULE
*****
 36 39 0 0 0
SMALL
GASTEIGER

@<TRIPOS>ATOM
      1 C           0.4959    1.4304   23.3339 C.ar    1  UNL1        0.0012
      2 C          -0.1597    2.6003   22.6621 C.ar    1  UNL1        0.0000
      3 C          -1.0759    3.4962   23.4418 C.ar    1  UNL1       -0.0002
      4 C          -1.3366    3.2221   24.8933 C.ar    1  UNL1        0.0005
      5 C          -0.6811    2.0522   25.5651 C.ar    1  UNL1       -0.0022
      6 C           0.2352    1.1563   24.7854 C.ar    1  UNL1       -0.0026
      7 C           3.2447   -1.2572   20.9949 C.ar    1  UNL1        0.2249
      8 C           2.0818   -0.5983   20.3141 C.ar    1  UNL1        0.0577
      9 C           1.1656    0.2976   21.0938 C.ar    1  UNL1        0.0063
     10 C           1.4121    0.5345   22.5543 C.ar    1  UNL1        0.0194
     11 C           2.5750   -0.1244   23.2351 C.ar    1  UNL1        0.1020
     12 N           3.4912   -1.0203   22.4554 N.ar    1  UNL1       -0.2101
     13 O           4.1609   -2.1531   20.2153 O.3     1  UNL1       -0.4602
     14 C           3.5943   -4.5431   19.3688 C.3     1  UNL1        0.0512
     15 C           3.6033   -3.0582   19.1571 C.3     1  UNL1        0.2072
     16 C          -2.2529    4.1180   25.6730 C.ar    1  UNL1        0.0334
     17 C          -1.6827    5.1797   26.5660 C.ar    1  UNL1       -0.0009
     18 C          -2.5990    6.0756   27.3456 C.ar    1  UNL1       -0.0164
     19 C          -4.0854    5.9097   27.2323 C.ar    1  UNL1       -0.0008
     20 C          -4.6556    4.8480   26.3393 C.ar    1  UNL1        0.0366
     21 C          -3.7393    3.9521   25.5596 C.ar    1  UNL1        0.1386
     22 O          -4.3096    2.8903   24.6665 O.3     1  UNL1       -0.4714
     23 C          -4.8387    3.2549   23.3112 C.3     1  UNL1        0.2525
     24 C          -2.0287    7.1374   28.2387 C.3     1  UNL1        0.0679
     25 C          -2.2718    7.0835   29.7179 C.2     1  UNL1        0.0547
     26 O          -1.1749    6.6462   30.6428 O.co2   1  UNL1       -0.5488
     27 O          -3.6120    7.4667   30.2721 O.co2   1  UNL1       -0.5488
     28 C          -0.9418    1.7780   27.0167 C.3     1  UNL1        0.1201
     29 N           0.2070    1.6209   27.9683 N.am    1  UNL1       -0.2754
     30 C           0.2996    0.4018   28.8374 C.2     1  UNL1        0.2254
     31 O          -0.7565   -0.6602   28.7547 O.2     1  UNL1       -0.2749
     32 C           1.4484    0.2446   29.7891 C.3     1  UNL1        0.0767
     33 C           2.2327    0.7335   30.9705 C.3     1  UNL1        0.0096
     34 C           2.6537   -0.5163   30.2559 C.3     1  UNL1        0.0096
     35 C           1.2631    2.6828   28.0510 C.3     1  UNL1        0.0938
     36 C           1.0119    3.9303   28.8452 C.3     1  UNL1        0.0233
@<TRIPOS>UNITY_ATOM_ATTR
27 1
charge -1
@<TRIPOS>BOND
     1    14    15    1
     2    15    13    1
     3    13     7    1
     4     7     8   ar
     5     8     9   ar
     6     9    10   ar
     7    10     1    1
     8     1     2   ar
     9     2     3   ar
    10     3     4   ar
    11     4    16    1
    12    16    17   ar
    13    17    18   ar
    14    18    24    1
    15    24    25    1
    16    25    26   ar
    17    25    27   ar
    18    18    19   ar
    19    19    20   ar
    20    20    21   ar
    21    21    22    1
    22    22    23    1
    23     4     5   ar
    24     5    28    1
    25    28    29    1
    26    29    35    1
    27    35    36    1
    28    29    30   am
    29    30    31    2
    30    30    32    1
    31    32    33    1
    32    33    34    1
    33     5     6   ar
    34    10    11   ar
    35    11    12   ar
    36    12     7   ar
    37     6     1   ar
    38    21    16   ar
    39    34    32    1
@<TRIPOS>MOLECULE
*****
 36 39 0 0 0
SMALL
GASTEIGER

@<TRIPOS>ATOM
      1 C           2.0158    1.0462   24.8771 C.ar    1  UNL1        0.0012
      2 C           3.4216    0.5640   24.6747 C.ar    1  UNL1        0.0000
      3 C           3.8649    0.0910   23.3220 C.ar    1  UNL1       -0.0002
      4 C           2.9023    0.1002   22.1717 C.ar    1  UNL1        0.0005
      5 C           1.4965    0.5825   22.3741 C.ar    1  UNL1       -0.0022
      6 C           1.0532    1.0555   23.7268 C.ar    1  UNL1       -0.0026
      7 C           0.6861    2.4653   28.9352 C.ar    1  UNL1        0.2249
      8 C          -0.3012    1.8286   28.0026 C.ar    1  UNL1        0.0577
      9 C           0.1420    1.3556   26.6499 C.ar    1  UNL1        0.0063
     10 C           1.5726    1.5193   26.2298 C.ar    1  UNL1        0.0194
     11 C           2.5600    2.1559   27.1624 C.ar    1  UNL1        0.1020
     12 N           2.1167    2.6289   28.5151 N.ar    1  UNL1       -0.2101
     13 O           0.2429    2.9383   30.2879 O.3     1  UNL1       -0.4602
     14 C           1.6890    1.7897   32.1153 C.3     1  UNL1        0.0512
     15 C           1.2328    3.0329   31.4108 C.3     1  UNL1        0.2072
     16 C           3.3455   -0.3728   20.8190 C.ar    1  UNL1        0.0334
     17 C           3.2410   -1.8257   20.4611 C.ar    1  UNL1       -0.0009
     18 C           3.6842   -2.2987   19.1084 C.ar    1  UNL1       -0.0164
     19 C           4.2320   -1.3188   18.1136 C.ar    1  UNL1       -0.0008
     20 C           4.3365    0.1341   18.4714 C.ar    1  UNL1        0.0366
     21 C           3.8932    0.6071   19.8241 C.ar    1  UNL1        0.1386
     22 O           3.9978    2.0601   20.1820 O.3     1  UNL1       -0.4714
     23 C           3.8991    3.1053   19.1107 C.3     1  UNL1        0.2525
     24 C           3.5797   -3.7517   18.7506 C.3     1  UNL1        0.0679
     25 C           4.2356   -4.7863   19.6161 C.2     1  UNL1        0.0547
     26 O           5.6744   -4.6312   20.0109 O.co2   1  UNL1       -0.5488
     27 O           3.4528   -5.9761   20.0869 O.co2   1  UNL1       -0.5488
     28 C           0.5338    0.5918   21.2237 C.3     1  UNL1        0.1201
     29 N           0.3097    1.8531   20.4434 N.am    1  UNL1       -0.2754
     30 C           0.4517    1.8464   18.9501 C.2     1  UNL1        0.2254
     31 O           0.8176    0.5785   18.2372 O.2     1  UNL1       -0.2749
     32 C           0.2276    3.1078   18.1698 C.3     1  UNL1        0.0767
     33 C          -0.6055    3.9179   17.2214 C.3     1  UNL1        0.0096
     34 C           0.6727    4.4824   17.7667 C.3     1  UNL1        0.0096
     35 C          -0.0562    3.1211   21.1563 C.3     1  UNL1        0.0938
     36 C          -1.4961    3.4367   21.4340 C.3     1  UNL1        0.0233
@<TRIPOS>UNITY_ATOM_ATTR
27 1
charge -1
@<TRIPOS>BOND
     1    14    15    1
     2    15    13    1
     3    13     7    1
     4     7     8   ar
     5     8     9   ar
     6     9    10   ar
     7    10     1    1
     8     1     2   ar
     9     2     3   ar
    10     3     4   ar
    11     4    16    1
    12    16    17   ar
    13    17    18   ar
    14    18    24    1
    15    24    25    1
    16    25    26   ar
    17    25    27   ar
    18    18    19   ar
    19    19    20   ar
    20    20    21   ar
    21    21    22    1
    22    22    23    1
    23     4     5   ar
    24     5    28    1
    25    28    29    1
    26    29    35    1
    27    35    36    1
    28    29    30   am
    29    30    31    2
    30    30    32    1
    31    32    33    1
    32    33    34    1
    33     5     6   ar
    34    10    11   ar
    35    11    12   ar
    36    12     7   ar
    37     6     1   ar
    38    21    16   ar
    39    34    32    1
@<TRIPOS>MOLECULE
*****
 36 39 0 0 0
SMALL
GASTEIGER

@<TRIPOS>ATOM
      1 C           1.0795    0.9853   21.7466 C.ar    1  UNL1        0.0012
      2 C           0.0469    1.3795   20.7326 C.ar    1  UNL1        0.0000
      3 C          -0.9830    2.4150   21.0745 C.ar    1  UNL1       -0.0002
      4 C          -0.9804    3.0563   22.4304 C.ar    1  UNL1        0.0005
      5 C           0.0522    2.6621   23.4445 C.ar    1  UNL1       -0.0022
      6 C           1.0821    1.6266   23.1025 C.ar    1  UNL1       -0.0026
      7 C           4.1693   -2.1213   20.7208 C.ar    1  UNL1        0.2249
      8 C           3.9598   -1.7150   22.1495 C.ar    1  UNL1        0.0577
      9 C           2.9298   -0.6795   22.4914 C.ar    1  UNL1        0.0063
     10 C           2.1094   -0.0503   21.4047 C.ar    1  UNL1        0.0194
     11 C           2.3190   -0.4566   19.9761 C.ar    1  UNL1        0.1020
     12 N           3.3489   -1.4921   19.6342 N.ar    1  UNL1       -0.2101
     13 O           5.1992   -3.1568   20.3789 O.3     1  UNL1       -0.4602
     14 C           4.0279   -5.0642   19.0599 C.3     1  UNL1        0.0512
     15 C           5.0554   -3.9736   19.1291 C.3     1  UNL1        0.2072
     16 C          -2.0103    4.0919   22.7723 C.ar    1  UNL1        0.0334
     17 C          -3.3945    3.6708   23.1682 C.ar    1  UNL1       -0.0009
     18 C          -4.4244    4.7064   23.5102 C.ar    1  UNL1       -0.0164
     19 C          -4.0702    6.1629   23.4562 C.ar    1  UNL1       -0.0008
     20 C          -2.6861    6.5839   23.0603 C.ar    1  UNL1        0.0366
     21 C          -1.6561    5.5484   22.7183 C.ar    1  UNL1        0.1386
     22 O          -0.2719    5.9695   22.3224 O.3     1  UNL1       -0.4714
     23 C           0.0488    6.2315   20.8807 C.3     1  UNL1        0.2525
     24 C          -5.8087    4.2853   23.9061 C.3     1  UNL1        0.0679
     25 C          -6.9394    4.4116   22.9286 C.2     1  UNL1        0.0547
     26 O          -6.6736    4.3038   21.4563 O.co2   1  UNL1       -0.5488
     27 O          -8.3360    4.6456   23.4235 O.co2   1  UNL1       -0.5488
     28 C           0.0549    3.3035   24.8005 C.3     1  UNL1        0.1201
     29 N          -0.5511    2.5865   25.9704 N.am    1  UNL1       -0.2754
     30 C           0.2658    1.5994   26.7503 C.2     1  UNL1        0.2254
     31 O           1.6888    1.3293   26.3603 O.2     1  UNL1       -0.2749
     32 C          -0.3403    0.8825   27.9203 C.3     1  UNL1        0.0767
     33 C          -1.1614   -0.2468   28.4684 C.3     1  UNL1        0.0096
     34 C          -0.5690    0.7701   29.3985 C.3     1  UNL1        0.0096
     35 C          -1.9742    2.8567   26.3605 C.3     1  UNL1        0.0938
     36 C          -2.4171    4.2585   26.6581 C.3     1  UNL1        0.0233
@<TRIPOS>UNITY_ATOM_ATTR
27 1
charge -1
@<TRIPOS>BOND
     1    14    15    1
     2    15    13    1
     3    13     7    1
     4     7     8   ar
     5     8     9   ar
     6     9    10   ar
     7    10     1    1
     8     1     2   ar
     9     2     3   ar
    10     3     4   ar
    11     4    16    1
    12    16    17   ar
    13    17    18   ar
    14    18    24    1
    15    24    25    1
    16    25    26   ar
    17    25    27   ar
    18    18    19   ar
    19    19    20   ar
    20    20    21   ar
    21    21    22    1
    22    22    23    1
    23     4     5   ar
    24     5    28    1
    25    28    29    1
    26    29    35    1
    27    35    36    1
    28    29    30   am
    29    30    31    2
    30    30    32    1
    31    32    33    1
    32    33    34    1
    33     5     6   ar
    34    10    11   ar
    35    11    12   ar
    36    12     7   ar
    37     6     1   ar
    38    21    16   ar
    39    34    32    1
@<TRIPOS>MOLECULE
*****
 36 39 0 0 0
SMALL
GASTEIGER

@<TRIPOS>ATOM
      1 C           7.2952   -3.1806   31.8970 C.ar    1  UNL1        0.0012
      2 C           8.3015   -2.4108   32.7000 C.ar    1  UNL1        0.0000
      3 C           7.8555   -1.2717   33.5680 C.ar    1  UNL1       -0.0002
      4 C           6.4031   -0.9023   33.6331 C.ar    1  UNL1        0.0005
      5 C           5.3968   -1.6721   32.8301 C.ar    1  UNL1       -0.0022
      6 C           5.8429   -2.8112   31.9621 C.ar    1  UNL1       -0.0026
      7 C           8.6333   -6.5980   29.2930 C.ar    1  UNL1        0.2249
      8 C           9.5052   -6.1269   30.4189 C.ar    1  UNL1        0.0577
      9 C           9.0592   -4.9878   31.2870 C.ar    1  UNL1        0.0063
     10 C           7.7412   -4.3197   31.0290 C.ar    1  UNL1        0.0194
     11 C           6.8693   -4.7908   29.9031 C.ar    1  UNL1        0.1020
     12 N           7.3153   -5.9299   29.0351 N.ar    1  UNL1       -0.2101
     13 O           9.0793   -7.7371   28.4250 O.3     1  UNL1       -0.4602
     14 C           8.0366   -7.9245   26.0527 C.3     1  UNL1        0.0512
     15 C           8.1109   -8.3830   27.4790 C.3     1  UNL1        0.2072
     16 C           5.9571    0.2368   34.5011 C.ar    1  UNL1        0.0334
     17 C           5.2641   -0.0387   35.8026 C.ar    1  UNL1       -0.0009
     18 C           4.8181    1.1005   36.6706 C.ar    1  UNL1       -0.0164
     19 C           5.0651    2.5150   36.2371 C.ar    1  UNL1       -0.0008
     20 C           5.7580    2.7905   34.9357 C.ar    1  UNL1        0.0366
     21 C           6.2041    1.6514   34.0676 C.ar    1  UNL1        0.1386
     22 O           6.8971    1.9269   32.7661 O.3     1  UNL1       -0.4714
     23 C           6.1004    2.3457   31.5662 C.3     1  UNL1        0.2525
     24 C           4.1251    0.8249   37.9721 C.3     1  UNL1        0.0679
     25 C           3.9906    1.9135   38.9953 C.2     1  UNL1        0.0547
     26 O           5.1705    2.3028   39.8356 O.co2   1  UNL1       -0.5488
     27 O           2.6761    2.6127   39.1782 O.co2   1  UNL1       -0.5488
     28 C           3.9444   -1.3027   32.8951 C.3     1  UNL1        0.1201
     29 N           3.3588   -0.3790   31.8686 N.am    1  UNL1       -0.2754
     30 C           2.7654    0.9322   32.2911 C.2     1  UNL1        0.2254
     31 O           2.7577    1.3198   33.7401 O.2     1  UNL1       -0.2749
     32 C           2.1798    1.8560   31.2645 C.3     1  UNL1        0.0767
     33 C           0.9943    2.3593   30.4956 C.3     1  UNL1        0.0096
     34 C           2.3509    2.9525   30.2554 C.3     1  UNL1        0.0096
     35 C           3.3665   -0.7666   30.4195 C.3     1  UNL1        0.0938
     36 C           4.4964   -0.3332   29.5332 C.3     1  UNL1        0.0233
@<TRIPOS>UNITY_ATOM_ATTR
27 1
charge -1
@<TRIPOS>BOND
     1    14    15    1
     2    15    13    1
     3    13     7    1
     4     7     8   ar
     5     8     9   ar
     6     9    10   ar
     7    10     1    1
     8     1     2   ar
     9     2     3   ar
    10     3     4   ar
    11     4    16    1
    12    16    17   ar
    13    17    18   ar
    14    18    24    1
    15    24    25    1
    16    25    26   ar
    17    25    27   ar
    18    18    19   ar
    19    19    20   ar
    20    20    21   ar
    21    21    22    1
    22    22    23    1
    23     4     5   ar
    24     5    28    1
    25    28    29    1
    26    29    35    1
    27    35    36    1
    28    29    30   am
    29    30    31    2
    30    30    32    1
    31    32    33    1
    32    33    34    1
    33     5     6   ar
    34    10    11   ar
    35    11    12   ar
    36    12     7   ar
    37     6     1   ar
    38    21    16   ar
    39    34    32    1
@<TRIPOS>MOLECULE
*****
 36 39 0 0 0
SMALL
GASTEIGER

@<TRIPOS>ATOM
      1 C           1.9479    0.7852   25.9898 C.ar    1  UNL1        0.0012
      2 C           0.9404    1.0352   24.9071 C.ar    1  UNL1        0.0000
      3 C           1.3058    0.7944   23.4723 C.ar    1  UNL1       -0.0002
      4 C           2.6787    0.3035   23.1203 C.ar    1  UNL1        0.0005
      5 C           3.6863    0.0535   24.2030 C.ar    1  UNL1       -0.0022
      6 C           3.3209    0.2944   25.6377 C.ar    1  UNL1       -0.0026
      7 C           0.8517    1.5079   30.2940 C.ar    1  UNL1        0.2249
      8 C           0.6350    2.5858   29.2737 C.ar    1  UNL1        0.0577
      9 C           1.0004    2.3450   27.8389 C.ar    1  UNL1        0.0063
     10 C           1.5825    1.0261   27.4245 C.ar    1  UNL1        0.0194
     11 C           1.7992   -0.0518   28.4448 C.ar    1  UNL1        0.1020
     12 N           1.4338    0.1890   29.8795 N.ar    1  UNL1       -0.2101
     13 O           0.4863    1.7488   31.7287 O.3     1  UNL1       -0.4602
     14 C           1.5271    3.4549   33.3887 C.3     1  UNL1        0.0512
     15 C           1.5495    2.1110   32.7228 C.3     1  UNL1        0.2072
     16 C           3.0441    0.0626   21.6856 C.ar    1  UNL1        0.0334
     17 C           3.0455   -1.3331   21.1361 C.ar    1  UNL1       -0.0009
     18 C           3.4109   -1.5740   19.7014 C.ar    1  UNL1       -0.0164
     19 C           3.7749   -0.4191   18.8161 C.ar    1  UNL1       -0.0008
     20 C           3.7735    0.9766   19.3655 C.ar    1  UNL1        0.0366
     21 C           3.4081    1.2175   20.8003 C.ar    1  UNL1        0.1386
     22 O           3.4067    2.6133   21.3497 O.3     1  UNL1       -0.4714
     23 C           2.2643    3.5371   21.0475 C.3     1  UNL1        0.2525
     24 C           3.4123   -2.9698   19.1520 C.3     1  UNL1        0.0679
     25 C           4.7087   -3.6326   18.7914 C.2     1  UNL1        0.0547
     26 O           5.0503   -4.9750   19.3670 O.co2   1  UNL1       -0.5488
     27 O           5.6636   -2.9530   17.8552 O.co2   1  UNL1       -0.5488
     28 C           5.0593   -0.4374   23.8510 C.3     1  UNL1        0.1201
     29 N           5.5234   -1.7789   24.3358 N.am    1  UNL1       -0.2754
     30 C           6.4903   -1.8698   25.4790 C.2     1  UNL1        0.2254
     31 O           6.9932   -0.6194   26.1372 O.2     1  UNL1       -0.2749
     32 C           6.9544   -3.2114   25.9638 C.3     1  UNL1        0.0767
     33 C           7.9440   -4.3377   25.9192 C.3     1  UNL1        0.0096
     34 C           6.7685   -4.4086   26.8482 C.3     1  UNL1        0.0096
     35 C           5.0205   -3.0294   23.6775 C.3     1  UNL1        0.0938
     36 C           5.7064   -3.5608   22.4540 C.3     1  UNL1        0.0233
@<TRIPOS>UNITY_ATOM_ATTR
27 1
charge -1
@<TRIPOS>BOND
     1    14    15    1
     2    15    13    1
     3    13     7    1
     4     7     8   ar
     5     8     9   ar
     6     9    10   ar
     7    10     1    1
     8     1     2   ar
     9     2     3   ar
    10     3     4   ar
    11     4    16    1
    12    16    17   ar
    13    17    18   ar
    14    18    24    1
    15    24    25    1
    16    25    26   ar
    17    25    27   ar
    18    18    19   ar
    19    19    20   ar
    20    20    21   ar
    21    21    22    1
    22    22    23    1
    23     4     5   ar
    24     5    28    1
    25    28    29    1
    26    29    35    1
    27    35    36    1
    28    29    30   am
    29    30    31    2
    30    30    32    1
    31    32    33    1
    32    33    34    1
    33     5     6   ar
    34    10    11   ar
    35    11    12   ar
    36    12     7   ar
    37     6     1   ar
    38    21    16   ar
    39    34    32    1
@<TRIPOS>MOLECULE
*****
 36 39 0 0 0
SMALL
GASTEIGER

@<TRIPOS>ATOM
      1 C           1.7982    1.9038   31.3171 C.ar    1  UNL1        0.0012
      2 C           1.5406    3.1815   32.0594 C.ar    1  UNL1        0.0000
      3 C           2.1144    3.3810   33.4308 C.ar    1  UNL1       -0.0002
      4 C           2.9459    2.3027   34.0600 C.ar    1  UNL1        0.0005
      5 C           3.2035    1.0249   33.3178 C.ar    1  UNL1       -0.0022
      6 C           2.6296    0.8255   31.9463 C.ar    1  UNL1       -0.0026
      7 C           0.0767    1.3055   27.2027 C.ar    1  UNL1        0.2249
      8 C           1.4237    1.9448   27.3664 C.ar    1  UNL1        0.0577
      9 C           1.9975    2.1442   28.7379 C.ar    1  UNL1        0.0063
     10 C           1.2244    1.7044   29.9456 C.ar    1  UNL1        0.0194
     11 C          -0.1226    1.0651   29.7819 C.ar    1  UNL1        0.1020
     12 N          -0.6965    0.8657   28.4104 N.ar    1  UNL1       -0.2101
     13 O          -0.4971    1.1061   25.8312 O.3     1  UNL1       -0.4602
     14 C           0.1943    2.3896   23.6807 C.3     1  UNL1        0.0512
     15 C           0.3827    1.2382   24.6236 C.3     1  UNL1        0.2072
     16 C           3.5197    2.5021   35.4315 C.ar    1  UNL1        0.0334
     17 C           2.6527    2.3169   36.6415 C.ar    1  UNL1       -0.0009
     18 C           3.2266    2.5163   38.0129 C.ar    1  UNL1       -0.0164
     19 C           4.6674    2.9010   38.1745 C.ar    1  UNL1       -0.0008
     20 C           5.5343    3.0862   36.9645 C.ar    1  UNL1        0.0366
     21 C           4.9605    2.8867   35.5930 C.ar    1  UNL1        0.1386
     22 O           5.8275    3.0719   34.3830 O.3     1  UNL1       -0.4714
     23 C           6.9494    4.0673   34.4095 C.3     1  UNL1        0.2525
     24 C           2.3595    2.3311   39.2229 C.3     1  UNL1        0.0679
     25 C           1.1478    1.4500   39.1496 C.2     1  UNL1        0.0547
     26 O          -0.1981    2.0479   38.8647 O.co2   1  UNL1       -0.5488
     27 O           1.2820   -0.0290   39.3611 O.co2   1  UNL1       -0.5488
     28 C           4.0350   -0.0534   33.9470 C.3     1  UNL1        0.1201
     29 N           5.0247   -0.8172   33.1181 N.am    1  UNL1       -0.2754
     30 C           4.8963   -2.3052   32.9787 C.2     1  UNL1        0.2254
     31 O           3.7782   -3.0294   33.6681 O.2     1  UNL1       -0.2749
     32 C           5.8861   -3.0690   32.1497 C.3     1  UNL1        0.0767
     33 C           6.5306   -3.3460   30.8239 C.3     1  UNL1        0.0096
     34 C           6.9558   -4.1147   32.0398 C.3     1  UNL1        0.0096
     35 C           6.1428   -0.0930   32.4286 C.3     1  UNL1        0.0938
     36 C           7.4246    0.1772   33.1594 C.3     1  UNL1        0.0233
@<TRIPOS>UNITY_ATOM_ATTR
27 1
charge -1
@<TRIPOS>BOND
     1    14    15    1
     2    15    13    1
     3    13     7    1
     4     7     8   ar
     5     8     9   ar
     6     9    10   ar
     7    10     1    1
     8     1     2   ar
     9     2     3   ar
    10     3     4   ar
    11     4    16    1
    12    16    17   ar
    13    17    18   ar
    14    18    24    1
    15    24    25    1
    16    25    26   ar
    17    25    27   ar
    18    18    19   ar
    19    19    20   ar
    20    20    21   ar
    21    21    22    1
    22    22    23    1
    23     4     5   ar
    24     5    28    1
    25    28    29    1
    26    29    35    1
    27    35    36    1
    28    29    30   am
    29    30    31    2
    30    30    32    1
    31    32    33    1
    32    33    34    1
    33     5     6   ar
    34    10    11   ar
    35    11    12   ar
    36    12     7   ar
    37     6     1   ar
    38    21    16   ar
    39    34    32    1
@<TRIPOS>MOLECULE
*****
 36 39 0 0 0
SMALL
GASTEIGER

@<TRIPOS>ATOM
      1 C           3.5343   -0.4138   24.3975 C.ar    1  UNL1        0.0012
      2 C           5.0236   -0.5792   24.3320 C.ar    1  UNL1        0.0000
      3 C           5.6884   -0.8751   23.0203 C.ar    1  UNL1       -0.0002
      4 C           4.8638   -1.0056   21.7741 C.ar    1  UNL1        0.0005
      5 C           3.3745   -0.8402   21.8396 C.ar    1  UNL1       -0.0022
      6 C           2.7097   -0.5443   23.1513 C.ar    1  UNL1       -0.0026
      7 C           1.5399    0.4740   28.3325 C.ar    1  UNL1        0.2249
      8 C           2.5916   -0.5922   28.2484 C.ar    1  UNL1        0.0577
      9 C           3.2564   -0.8881   26.9367 C.ar    1  UNL1        0.0063
     10 C           2.8695   -0.1179   25.7092 C.ar    1  UNL1        0.0194
     11 C           1.8178    0.9483   25.7933 C.ar    1  UNL1        0.1020
     12 N           1.1530    1.2442   27.1050 N.ar    1  UNL1       -0.2101
     13 O           0.8751    0.7699   29.6442 O.3     1  UNL1       -0.4602
     14 C          -1.4826   -0.1609   29.0744 C.3     1  UNL1        0.0512
     15 C          -0.6187    0.8820   29.7194 C.3     1  UNL1        0.2072
     16 C           5.5286   -1.3015   20.4625 C.ar    1  UNL1        0.0334
     17 C           6.4069   -0.2708   19.8174 C.ar    1  UNL1       -0.0009
     18 C           7.0717   -0.5667   18.5057 C.ar    1  UNL1       -0.0164
     19 C           6.8582   -1.8934   17.8391 C.ar    1  UNL1       -0.0008
     20 C           5.9799   -2.9241   18.4842 C.ar    1  UNL1        0.0366
     21 C           5.3151   -2.6282   19.7959 C.ar    1  UNL1        0.1386
     22 O           4.4368   -3.6590   20.4410 O.3     1  UNL1       -0.4714
     23 C           3.7470   -4.6902   19.5979 C.3     1  UNL1        0.2525
     24 C           7.9500    0.4641   17.8606 C.3     1  UNL1        0.0679
     25 C           7.4677    1.2100   16.6519 C.2     1  UNL1        0.0547
     26 O           6.1012    0.9359   16.0972 O.co2   1  UNL1       -0.5488
     27 O           8.3519    2.2301   15.9979 O.co2   1  UNL1       -0.5488
     28 C           2.5498   -0.9707   20.5934 C.3     1  UNL1        0.1201
     29 N           2.2095    0.2482   19.7882 N.am    1  UNL1       -0.2754
     30 C           0.9780    1.0412   20.1119 C.2     1  UNL1        0.2254
     31 O           0.0869    0.6152   21.2409 O.2     1  UNL1       -0.2749
     32 C           0.6377    2.2601   19.3067 C.3     1  UNL1        0.0767
     33 C           0.6105    3.7524   19.1573 C.3     1  UNL1        0.0096
     34 C           0.0755    2.8791   18.0614 C.3     1  UNL1        0.0096
     35 C           3.1006    0.6742   18.6593 C.3     1  UNL1        0.0938
     36 C           3.3873   -0.2727   17.5318 C.3     1  UNL1        0.0233
@<TRIPOS>UNITY_ATOM_ATTR
27 1
charge -1
@<TRIPOS>BOND
     1    14    15    1
     2    15    13    1
     3    13     7    1
     4     7     8   ar
     5     8     9   ar
     6     9    10   ar
     7    10     1    1
     8     1     2   ar
     9     2     3   ar
    10     3     4   ar
    11     4    16    1
    12    16    17   ar
    13    17    18   ar
    14    18    24    1
    15    24    25    1
    16    25    26   ar
    17    25    27   ar
    18    18    19   ar
    19    19    20   ar
    20    20    21   ar
    21    21    22    1
    22    22    23    1
    23     4     5   ar
    24     5    28    1
    25    28    29    1
    26    29    35    1
    27    35    36    1
    28    29    30   am
    29    30    31    2
    30    30    32    1
    31    32    33    1
    32    33    34    1
    33     5     6   ar
    34    10    11   ar
    35    11    12   ar
    36    12     7   ar
    37     6     1   ar
    38    21    16   ar
    39    34    32    1
@<TRIPOS>MOLECULE
*****
 36 39 0 0 0
SMALL
GASTEIGER

@<TRIPOS>ATOM
      1 C           4.4578    0.4016   34.0481 C.ar    1  UNL1        0.0012
      2 C           5.9280    0.1961   33.8332 C.ar    1  UNL1        0.0000
      3 C           6.4251   -0.3627   32.5330 C.ar    1  UNL1       -0.0002
      4 C           5.4520   -0.7160   31.4476 C.ar    1  UNL1        0.0005
      5 C           3.9817   -0.5105   31.6625 C.ar    1  UNL1       -0.0022
      6 C           3.4847    0.0482   32.9627 C.ar    1  UNL1       -0.0026
      7 C           2.9666    2.0779   37.9489 C.ar    1  UNL1        0.2249
      8 C           4.0286    1.0187   37.9449 C.ar    1  UNL1        0.0577
      9 C           4.5257    0.4599   36.6446 C.ar    1  UNL1        0.0063
     10 C           3.9607    0.9604   35.3484 C.ar    1  UNL1        0.0194
     11 C           2.8987    2.0196   35.3524 C.ar    1  UNL1        0.1020
     12 N           2.4016    2.5784   36.6526 N.ar    1  UNL1       -0.2101
     13 O           2.4695    2.6367   39.2491 O.3     1  UNL1       -0.4602
     14 C           0.7757    0.7521   39.8227 C.3     1  UNL1        0.0512
     15 C           1.1379    2.2073   39.7898 C.3     1  UNL1        0.2072
     16 C           5.9490   -1.2748   30.1473 C.ar    1  UNL1        0.0334
     17 C           6.0725   -2.7588   29.9670 C.ar    1  UNL1       -0.0009
     18 C           6.5695   -3.3175   28.6668 C.ar    1  UNL1       -0.0164
     19 C           6.9432   -2.3924   27.5468 C.ar    1  UNL1       -0.0008
     20 C           6.8197   -0.9084   27.7271 C.ar    1  UNL1        0.0366
     21 C           6.3227   -0.3496   29.0274 C.ar    1  UNL1        0.1386
     22 O           6.1993    1.1345   29.2076 O.3     1  UNL1       -0.4714
     23 C           7.1284    2.0585   28.4777 C.3     1  UNL1        0.2525
     24 C           6.6929   -4.8016   28.4865 C.3     1  UNL1        0.0679
     25 C           7.4195   -5.6235   29.5095 C.2     1  UNL1        0.0547
     26 O           8.8250   -6.0768   29.2468 O.co2   1  UNL1       -0.5488
     27 O           6.7405   -5.9922   30.7953 O.co2   1  UNL1       -0.5488
     28 C           3.0085   -0.8639   30.5770 C.3     1  UNL1        0.1201
     29 N           2.7037    0.1256   29.4918 N.am    1  UNL1       -0.2754
     30 C           2.8380   -0.2747   28.0524 C.2     1  UNL1        0.2254
     31 O           3.2772   -1.6646   27.6984 O.2     1  UNL1       -0.2749
     32 C           2.5332    0.7149   26.9671 C.3     1  UNL1        0.0767
     33 C           1.5524    1.3511   26.0273 C.3     1  UNL1        0.0096
     34 C           2.9859    1.7926   26.0272 C.3     1  UNL1        0.0096
     35 C           2.2645    1.5156   29.8458 C.3     1  UNL1        0.0938
     36 C           0.8287    1.7845   30.1865 C.3     1  UNL1        0.0233
@<TRIPOS>UNITY_ATOM_ATTR
27 1
charge -1
@<TRIPOS>BOND
     1    14    15    1
     2    15    13    1
     3    13     7    1
     4     7     8   ar
     5     8     9   ar
     6     9    10   ar
     7    10     1    1
     8     1     2   ar
     9     2     3   ar
    10     3     4   ar
    11     4    16    1
    12    16    17   ar
    13    17    18   ar
    14    18    24    1
    15    24    25    1
    16    25    26   ar
    17    25    27   ar
    18    18    19   ar
    19    19    20   ar
    20    20    21   ar
    21    21    22    1
    22    22    23    1
    23     4     5   ar
    24     5    28    1
    25    28    29    1
    26    29    35    1
    27    35    36    1
    28    29    30   am
    29    30    31    2
    30    30    32    1
    31    32    33    1
    32    33    34    1
    33     5     6   ar
    34    10    11   ar
    35    11    12   ar
    36    12     7   ar
    37     6     1   ar
    38    21    16   ar
    39    34    32    1
