@<TRIPOS>MOLECULE
*****
 32 36 0 0 0
SMALL
GASTEIGER

@<TRIPOS>ATOM
      1 C          -3.4124  -17.0010   22.5149 C.ar    1  UNL1        0.0436
      2 C          -2.1083  -16.3371   22.1856 C.ar    1  UNL1        0.0142
      3 C          -1.3087  -16.7994   21.0037 C.ar    1  UNL1        0.0010
      4 C          -1.8132  -17.9258   20.1512 C.ar    1  UNL1       -0.0032
      5 C          -3.1173  -18.5897   20.4805 C.ar    1  UNL1       -0.0091
      6 C          -3.9169  -18.1274   21.6623 C.ar    1  UNL1       -0.0101
      7 C          -5.2210  -18.7913   21.9917 C.3     1  UNL1        0.0444
      8 C          -5.7255  -19.9177   21.1391 C.3     1  UNL1        0.0749
      9 N          -4.9258  -20.3800   19.9572 N.3     1  UNL1       -0.2934
     10 C          -3.6217  -19.7161   19.6279 C.3     1  UNL1        0.0954
     11 H          -5.5243  -20.2760   19.1378 H       1  UNL1        0.1236
     12 N          -5.8114  -15.6140   26.0605 N.3     1  UNL1       -0.2698
     13 C          -6.0301  -14.9872   24.7155 C.3     1  UNL1        0.0938
     14 C          -5.2304  -15.4495   23.5336 C.3     1  UNL1        0.1081
     15 N          -4.2121  -16.5387   23.6968 N.pl3   1  UNL1       -0.3049
     16 C          -3.9933  -17.1655   25.0419 C.3     1  UNL1        0.1081
     17 C          -4.7929  -16.7032   26.2237 C.3     1  UNL1        0.0938
     18 C          -8.0863  -15.4163   27.2996 C.3     1  UNL1        0.0188
     19 C          -6.6110  -15.1517   27.2424 C.3     1  UNL1        0.0722
     20 C          -7.0296  -20.5817   21.4684 C.3     1  UNL1        0.0886
     21 N          -8.3234  -19.9116   21.1120 N.3     1  UNL1       -0.2667
     22 C          -8.6346  -19.5956   19.6790 C.3     1  UNL1        0.0899
     23 C          -9.3060  -19.5575   22.1886 C.3     1  UNL1        0.0978
     24 C          -9.2822  -20.2912   23.4967 C.3     1  UNL1        0.0224
     25 C         -10.2648  -19.9371   24.5732 C.3     1  UNL1        0.0065
     26 C         -11.2713  -18.8493   24.3418 C.3     1  UNL1        0.0277
     27 C         -11.2952  -18.1155   23.0337 C.ar    1  UNL1       -0.0073
     28 C         -12.3017  -17.0277   22.8022 C.ar    1  UNL1       -0.0015
     29 C         -12.3255  -16.2939   21.4941 C.ar    1  UNL1        0.0203
     30 C         -11.3429  -16.6480   20.4176 C.ar    1  UNL1        0.0985
     31 N         -10.3364  -17.7359   20.6491 N.ar    1  UNL1       -0.2471
     32 C         -10.3125  -18.4696   21.9571 C.ar    1  UNL1        0.0695
@<TRIPOS>BOND
     1    18    19    1
     2    19    12    1
     3    12    13    1
     4    13    14    1
     5    14    15    1
     6    15     1    1
     7     1     2   ar
     8     2     3   ar
     9     3     4   ar
    10     4     5   ar
    11     5     6   ar
    12     6     7    1
    13     7     8    1
    14     8    20    1
    15    20    21    1
    16    21    22    1
    17    23    21    1
    18    23    24    1
    19    24    25    1
    20    25    26    1
    21    26    27    1
    22    27    28   ar
    23    28    29   ar
    24    29    30   ar
    25    30    31   ar
    26    31    32   ar
    27     8     9    1
    28     9    10    1
    29    15    16    1
    30    16    17    1
    31    17    12    1
    32     6     1   ar
    33    32    23    1
    34    10     5    1
    35    32    27   ar
    36     9    11    1
@<TRIPOS>MOLECULE
*****
 32 36 0 0 0
SMALL
GASTEIGER

@<TRIPOS>ATOM
      1 C           3.3193   -1.5495   20.3582 C.ar    1  UNL1        0.0436
      2 C           3.6289   -2.2793   19.0848 C.ar    1  UNL1        0.0142
      3 C           4.5215   -3.4845   19.1092 C.ar    1  UNL1        0.0010
      4 C           5.1046   -3.9599   20.4069 C.ar    1  UNL1       -0.0032
      5 C           4.7950   -3.2301   21.6802 C.ar    1  UNL1       -0.0091
      6 C           3.9023   -2.0249   21.6559 C.ar    1  UNL1       -0.0101
      7 C           3.5927   -1.2951   22.9293 C.3     1  UNL1        0.0444
      8 C           4.1757   -1.7705   24.2270 C.3     1  UNL1        0.0749
      9 N           5.0684   -2.9758   24.2513 N.3     1  UNL1       -0.2934
     10 C           5.3780   -3.7056   22.9780 C.3     1  UNL1        0.0954
     11 H           4.6338   -3.6515   24.8797 H       1  UNL1        0.1236
     12 N           0.6413    2.0662   20.2854 N.3     1  UNL1       -0.2698
     13 C           2.1269    2.2306   20.1592 C.3     1  UNL1        0.0938
     14 C           3.0196    1.0253   20.1835 C.3     1  UNL1        0.1081
     15 N           2.4266   -0.3442   20.3339 N.pl3   1  UNL1       -0.3049
     16 C           0.9410   -0.5086   20.4601 C.3     1  UNL1        0.1081
     17 C           0.0483    0.6966   20.4358 C.3     1  UNL1        0.0938
     18 C          -1.6045    3.2156   20.9061 C.3     1  UNL1        0.0188
     19 C          -0.2514    3.2714   20.2611 C.3     1  UNL1        0.0722
     20 C           3.8661   -1.0407   25.5004 C.3     1  UNL1        0.0886
     21 N           3.6039    0.4359   25.4739 N.3     1  UNL1       -0.2667
     22 C           4.7511    1.4020   25.5031 C.3     1  UNL1        0.0899
     23 C           2.1946    0.9465   25.4181 C.3     1  UNL1        0.0978
     24 C           1.6564    1.5249   24.1430 C.3     1  UNL1        0.0224
     25 C           0.2471    2.0355   24.0872 C.3     1  UNL1        0.0065
     26 C          -0.6240    1.9678   25.3065 C.3     1  UNL1        0.0277
     27 C          -0.0858    1.3895   26.5815 C.ar    1  UNL1       -0.0073
     28 C          -0.9569    1.3218   27.8008 C.ar    1  UNL1       -0.0015
     29 C          -0.4186    0.7434   29.0759 C.ar    1  UNL1        0.0203
     30 C           0.9907    0.2328   29.1317 C.ar    1  UNL1        0.0985
     31 N           1.8618    0.3005   27.9124 N.ar    1  UNL1       -0.2471
     32 C           1.3236    0.8788   26.6374 C.ar    1  UNL1        0.0695
@<TRIPOS>BOND
     1    18    19    1
     2    19    12    1
     3    12    13    1
     4    13    14    1
     5    14    15    1
     6    15     1    1
     7     1     2   ar
     8     2     3   ar
     9     3     4   ar
    10     4     5   ar
    11     5     6   ar
    12     6     7    1
    13     7     8    1
    14     8    20    1
    15    20    21    1
    16    21    22    1
    17    23    21    1
    18    23    24    1
    19    24    25    1
    20    25    26    1
    21    26    27    1
    22    27    28   ar
    23    28    29   ar
    24    29    30   ar
    25    30    31   ar
    26    31    32   ar
    27     8     9    1
    28     9    10    1
    29    15    16    1
    30    16    17    1
    31    17    12    1
    32     6     1   ar
    33    32    23    1
    34    10     5    1
    35    32    27   ar
    36     9    11    1
@<TRIPOS>MOLECULE
*****
 32 36 0 0 0
SMALL
GASTEIGER

@<TRIPOS>ATOM
      1 C          -7.7240  -19.7601   19.7868 C.ar    1  UNL1        0.0436
      2 C          -7.8139  -20.6248   18.5645 C.ar    1  UNL1        0.0142
      3 C          -9.1481  -20.8985   17.9360 C.ar    1  UNL1        0.0010
      4 C         -10.3923  -20.3075   18.5298 C.ar    1  UNL1       -0.0032
      5 C         -10.3023  -19.4427   19.7521 C.ar    1  UNL1       -0.0091
      6 C          -8.9682  -19.1691   20.3806 C.ar    1  UNL1       -0.0101
      7 C          -8.8781  -18.3043   21.6030 C.3     1  UNL1        0.0444
      8 C         -10.1224  -17.7132   22.1968 C.3     1  UNL1        0.0749
      9 N         -11.4566  -17.9870   21.5683 N.3     1  UNL1       -0.2934
     10 C         -11.5465  -18.8517   20.3460 C.3     1  UNL1        0.0954
     11 H         -11.8557  -17.0821   21.3188 H       1  UNL1        0.1236
     12 N          -3.7214  -18.9389   21.6725 N.3     1  UNL1       -0.2698
     13 C          -3.9608  -18.5821   20.2353 C.3     1  UNL1        0.0938
     14 C          -5.2950  -18.8558   19.6068 C.3     1  UNL1        0.1081
     15 N          -6.3897  -19.4864   20.4153 N.pl3   1  UNL1       -0.3049
     16 C          -6.1504  -19.8432   21.8525 C.3     1  UNL1        0.1081
     17 C          -4.8163  -19.5695   22.4810 C.3     1  UNL1        0.0938
     18 C          -1.8255  -17.2745   22.2926 C.3     1  UNL1        0.0188
     19 C          -2.3873  -18.6652   22.3010 C.3     1  UNL1        0.0722
     20 C         -10.0324  -16.8485   23.4191 C.3     1  UNL1        0.0886
     21 N          -9.5638  -17.4331   24.7186 N.3     1  UNL1       -0.2667
     22 C         -10.0595  -18.7791   25.1576 C.3     1  UNL1        0.0899
     23 C          -8.5995  -16.6718   25.5791 C.3     1  UNL1        0.0978
     24 C          -8.9540  -16.3524   27.0013 C.3     1  UNL1        0.0224
     25 C          -7.9898  -15.5911   27.8618 C.3     1  UNL1        0.0065
     26 C          -6.6709  -15.1491   27.3002 C.3     1  UNL1        0.0277
     27 C          -6.3164  -15.4684   25.8782 C.ar    1  UNL1       -0.0073
     28 C          -4.9976  -15.0264   25.3166 C.ar    1  UNL1       -0.0015
     29 C          -4.6430  -15.3458   23.8945 C.ar    1  UNL1        0.0203
     30 C          -5.6073  -16.1071   23.0340 C.ar    1  UNL1        0.0985
     31 N          -6.9261  -16.5491   23.5955 N.ar    1  UNL1       -0.2471
     32 C          -7.2807  -16.2298   25.0176 C.ar    1  UNL1        0.0695
@<TRIPOS>BOND
     1    18    19    1
     2    19    12    1
     3    12    13    1
     4    13    14    1
     5    14    15    1
     6    15     1    1
     7     1     2   ar
     8     2     3   ar
     9     3     4   ar
    10     4     5   ar
    11     5     6   ar
    12     6     7    1
    13     7     8    1
    14     8    20    1
    15    20    21    1
    16    21    22    1
    17    23    21    1
    18    23    24    1
    19    24    25    1
    20    25    26    1
    21    26    27    1
    22    27    28   ar
    23    28    29   ar
    24    29    30   ar
    25    30    31   ar
    26    31    32   ar
    27     8     9    1
    28     9    10    1
    29    15    16    1
    30    16    17    1
    31    17    12    1
    32     6     1   ar
    33    32    23    1
    34    10     5    1
    35    32    27   ar
    36     9    11    1
@<TRIPOS>MOLECULE
*****
 32 36 0 0 0
SMALL
GASTEIGER

@<TRIPOS>ATOM
      1 C           8.5232   -6.0141   27.3068 C.ar    1  UNL1        0.0436
      2 C           9.3069   -7.2926   27.3394 C.ar    1  UNL1        0.0142
      3 C           9.5348   -8.0651   26.0740 C.ar    1  UNL1        0.0010
      4 C           8.9788   -7.5591   24.7760 C.ar    1  UNL1       -0.0032
      5 C           8.1950   -6.2806   24.7434 C.ar    1  UNL1       -0.0091
      6 C           7.9672   -5.5081   26.0088 C.ar    1  UNL1       -0.0101
      7 C           7.1834   -4.2295   25.9762 C.3     1  UNL1        0.0444
      8 C           6.6275   -3.7235   24.6782 C.3     1  UNL1        0.0749
      9 N           6.8553   -4.4961   23.4127 N.3     1  UNL1       -0.2934
     10 C           7.6391   -5.7746   23.4453 C.3     1  UNL1        0.0954
     11 H           7.3393   -3.8703   22.7688 H       1  UNL1        0.1236
     12 N           7.8396   -3.6965   31.1031 N.3     1  UNL1       -0.2698
     13 C           6.8233   -4.6993   30.6433 C.3     1  UNL1        0.0938
     14 C           7.0511   -5.4718   29.3778 C.3     1  UNL1        0.1081
     15 N           8.2953   -5.2416   28.5723 N.pl3   1  UNL1       -0.3049
     16 C           9.3116   -4.2387   29.0321 C.3     1  UNL1        0.1081
     17 C           9.0838   -3.4662   30.2975 C.3     1  UNL1        0.0938
     18 C           8.7152   -2.0877   32.9456 C.3     1  UNL1        0.0188
     19 C           7.6118   -2.9239   32.3685 C.3     1  UNL1        0.0722
     20 C           5.8437   -2.4450   24.6456 C.3     1  UNL1        0.0886
     21 N           5.9268   -1.5446   23.4487 N.3     1  UNL1       -0.2667
     22 C           7.1757   -0.7552   23.1894 C.3     1  UNL1        0.0899
     23 C           4.7612   -1.4337   22.5113 C.3     1  UNL1        0.0978
     24 C           3.6562   -0.4612   22.8003 C.3     1  UNL1        0.0224
     25 C           2.4906   -0.3502   21.8628 C.3     1  UNL1        0.0065
     26 C           2.4298   -1.2116   20.6363 C.3     1  UNL1        0.0277
     27 C           3.5346   -2.1841   20.3473 C.ar    1  UNL1       -0.0073
     28 C           3.4739   -3.0455   19.1209 C.ar    1  UNL1       -0.0015
     29 C           4.5788   -4.0180   18.8319 C.ar    1  UNL1        0.0203
     30 C           5.7445   -4.1290   19.7694 C.ar    1  UNL1        0.0985
     31 N           5.8053   -3.2676   20.9958 N.ar    1  UNL1       -0.2471
     32 C           4.7004   -2.2951   21.2848 C.ar    1  UNL1        0.0695
@<TRIPOS>BOND
     1    18    19    1
     2    19    12    1
     3    12    13    1
     4    13    14    1
     5    14    15    1
     6    15     1    1
     7     1     2   ar
     8     2     3   ar
     9     3     4   ar
    10     4     5   ar
    11     5     6   ar
    12     6     7    1
    13     7     8    1
    14     8    20    1
    15    20    21    1
    16    21    22    1
    17    23    21    1
    18    23    24    1
    19    24    25    1
    20    25    26    1
    21    26    27    1
    22    27    28   ar
    23    28    29   ar
    24    29    30   ar
    25    30    31   ar
    26    31    32   ar
    27     8     9    1
    28     9    10    1
    29    15    16    1
    30    16    17    1
    31    17    12    1
    32     6     1   ar
    33    32    23    1
    34    10     5    1
    35    32    27   ar
    36     9    11    1
@<TRIPOS>MOLECULE
*****
 32 36 0 0 0
SMALL
GASTEIGER

@<TRIPOS>ATOM
      1 C           6.2280   -3.0006   21.4921 C.ar    1  UNL1        0.0436
      2 C           7.2005   -3.8746   20.7572 C.ar    1  UNL1        0.0142
      3 C           8.0866   -4.8157   21.5182 C.ar    1  UNL1        0.0010
      4 C           8.0001   -4.8827   23.0142 C.ar    1  UNL1       -0.0032
      5 C           7.0276   -4.0086   23.7492 C.ar    1  UNL1       -0.0091
      6 C           6.1416   -3.0676   22.9881 C.ar    1  UNL1       -0.0101
      7 C           5.1690   -2.1934   23.7231 C.3     1  UNL1        0.0444
      8 C           5.0826   -2.2604   25.2191 C.3     1  UNL1        0.0749
      9 N           5.9687   -3.2015   25.9801 N.3     1  UNL1       -0.2934
     10 C           6.9412   -4.0756   25.2452 C.3     1  UNL1        0.0954
     11 H           5.3548   -3.8225   26.5073 H       1  UNL1        0.1236
     12 N           3.5696   -0.1773   19.2090 N.3     1  UNL1       -0.2698
     13 C           4.9681    0.2319   19.5649 C.3     1  UNL1        0.0938
     14 C           5.8543   -0.7092   20.3259 C.3     1  UNL1        0.1081
     15 N           5.3419   -2.0594   20.7311 N.pl3   1  UNL1       -0.3049
     16 C           3.9433   -2.4687   20.3752 C.3     1  UNL1        0.1081
     17 C           3.0572   -1.5276   19.6142 C.3     1  UNL1        0.0938
     18 C           1.1924    0.6305   18.5413 C.3     1  UNL1        0.0188
     19 C           2.6835    0.7637   18.4480 C.3     1  UNL1        0.0722
     20 C           4.1101   -1.3863   25.9540 C.3     1  UNL1        0.0886
     21 N           3.9875    0.0652   25.5962 N.3     1  UNL1       -0.2667
     22 C           5.0286    1.0418   26.0571 C.3     1  UNL1        0.0899
     23 C           2.8238    0.5401   24.7776 C.3     1  UNL1        0.0978
     24 C           2.8790    0.4640   23.2805 C.3     1  UNL1        0.0224
     25 C           1.7153    0.9389   22.4619 C.3     1  UNL1        0.0065
     26 C           0.4963    1.4901   23.1403 C.3     1  UNL1        0.0277
     27 C           0.4410    1.5662   24.6373 C.ar    1  UNL1       -0.0073
     28 C          -0.7780    2.1174   25.3157 C.ar    1  UNL1       -0.0015
     29 C          -0.8333    2.1936   26.8128 C.ar    1  UNL1        0.0203
     30 C           0.3304    1.7186   27.6314 C.ar    1  UNL1        0.0985
     31 N           1.5494    1.1675   26.9530 N.ar    1  UNL1       -0.2471
     32 C           1.6047    1.0913   25.4560 C.ar    1  UNL1        0.0695
@<TRIPOS>BOND
     1    18    19    1
     2    19    12    1
     3    12    13    1
     4    13    14    1
     5    14    15    1
     6    15     1    1
     7     1     2   ar
     8     2     3   ar
     9     3     4   ar
    10     4     5   ar
    11     5     6   ar
    12     6     7    1
    13     7     8    1
    14     8    20    1
    15    20    21    1
    16    21    22    1
    17    23    21    1
    18    23    24    1
    19    24    25    1
    20    25    26    1
    21    26    27    1
    22    27    28   ar
    23    28    29   ar
    24    29    30   ar
    25    30    31   ar
    26    31    32   ar
    27     8     9    1
    28     9    10    1
    29    15    16    1
    30    16    17    1
    31    17    12    1
    32     6     1   ar
    33    32    23    1
    34    10     5    1
    35    32    27   ar
    36     9    11    1
@<TRIPOS>MOLECULE
*****
 32 36 0 0 0
SMALL
GASTEIGER

@<TRIPOS>ATOM
      1 C           2.5234    0.4320   19.4976 C.ar    1  UNL1        0.0436
      2 C           2.7687    0.1763   18.0400 C.ar    1  UNL1        0.0142
      3 C           3.6544   -0.9576   17.6162 C.ar    1  UNL1        0.0010
      4 C           4.2949   -1.8358   18.6499 C.ar    1  UNL1       -0.0032
      5 C           4.0496   -1.5801   20.1074 C.ar    1  UNL1       -0.0091
      6 C           3.1639   -0.4462   20.5312 C.ar    1  UNL1       -0.0101
      7 C           2.9186   -0.1905   21.9888 C.3     1  UNL1        0.0444
      8 C           3.5590   -1.0687   23.0225 C.3     1  UNL1        0.0749
      9 N           4.4448   -2.2027   22.5986 N.3     1  UNL1       -0.2934
     10 C           4.6901   -2.4584   21.1411 C.3     1  UNL1        0.0954
     11 H           4.0361   -3.0549   22.9824 H       1  UNL1        0.1236
     12 N          -0.1338    3.8339   20.7692 N.3     1  UNL1       -0.2698
     13 C          -0.7185    2.4725   20.5352 C.3     1  UNL1        0.0938
     14 C           0.1673    1.3385   20.1113 C.3     1  UNL1        0.1081
     15 N           1.6377    1.5660   19.9215 N.pl3   1  UNL1       -0.3049
     16 C           2.2224    2.9274   20.1555 C.3     1  UNL1        0.1081
     17 C           1.3367    4.0613   20.5793 C.3     1  UNL1        0.0938
     18 C          -0.6363    5.8207   22.3661 C.3     1  UNL1        0.0188
     19 C          -1.0194    4.9678   21.1931 C.3     1  UNL1        0.0722
     20 C           3.3138   -0.8131   24.4800 C.3     1  UNL1        0.0886
     21 N           3.1503    0.5924   24.9778 N.3     1  UNL1       -0.2667
     22 C           4.3599    1.4306   25.2686 C.3     1  UNL1        0.0899
     23 C           1.7773    1.1598   25.1849 C.3     1  UNL1        0.0978
     24 C           1.1037    1.9163   24.0784 C.3     1  UNL1        0.0224
     25 C          -0.2693    2.4837   24.2854 C.3     1  UNL1        0.0065
     26 C          -0.9688    2.2947   25.5988 C.3     1  UNL1        0.0277
     27 C          -0.2952    1.5383   26.7052 C.ar    1  UNL1       -0.0073
     28 C          -0.9947    1.3493   28.0187 C.ar    1  UNL1       -0.0015
     29 C          -0.3211    0.5929   29.1251 C.ar    1  UNL1        0.0203
     30 C           1.0519    0.0255   28.9181 C.ar    1  UNL1        0.0985
     31 N           1.7514    0.2145   27.6047 N.ar    1  UNL1       -0.2471
     32 C           1.0778    0.9709   26.4983 C.ar    1  UNL1        0.0695
@<TRIPOS>BOND
     1    18    19    1
     2    19    12    1
     3    12    13    1
     4    13    14    1
     5    14    15    1
     6    15     1    1
     7     1     2   ar
     8     2     3   ar
     9     3     4   ar
    10     4     5   ar
    11     5     6   ar
    12     6     7    1
    13     7     8    1
    14     8    20    1
    15    20    21    1
    16    21    22    1
    17    23    21    1
    18    23    24    1
    19    24    25    1
    20    25    26    1
    21    26    27    1
    22    27    28   ar
    23    28    29   ar
    24    29    30   ar
    25    30    31   ar
    26    31    32   ar
    27     8     9    1
    28     9    10    1
    29    15    16    1
    30    16    17    1
    31    17    12    1
    32     6     1   ar
    33    32    23    1
    34    10     5    1
    35    32    27   ar
    36     9    11    1
@<TRIPOS>MOLECULE
*****
 32 36 0 0 0
SMALL
GASTEIGER

@<TRIPOS>ATOM
      1 C           3.4171   -1.6573   20.2016 C.ar    1  UNL1        0.0436
      2 C           3.7370   -2.4022   18.9395 C.ar    1  UNL1        0.0142
      3 C           4.6283   -3.6077   18.9856 C.ar    1  UNL1        0.0010
      4 C           5.1997   -4.0684   20.2938 C.ar    1  UNL1       -0.0032
      5 C           4.8798   -3.3235   21.5558 C.ar    1  UNL1       -0.0091
      6 C           3.9885   -2.1180   21.5097 C.ar    1  UNL1       -0.0101
      7 C           3.6686   -1.3730   22.7718 C.3     1  UNL1        0.0444
      8 C           4.2400   -1.8337   24.0800 C.3     1  UNL1        0.0749
      9 N           5.1313   -3.0394   24.1260 N.3     1  UNL1       -0.2934
     10 C           5.4512   -3.7842   22.8640 C.3     1  UNL1        0.0954
     11 H           4.6907   -3.7073   24.7585 H       1  UNL1        0.1236
     12 N           0.7432    1.9596   20.0634 N.3     1  UNL1       -0.2698
     13 C           0.1497    0.5949   20.2514 C.3     1  UNL1        0.0938
     14 C           1.0411   -0.6107   20.2975 C.3     1  UNL1        0.1081
     15 N           2.5258   -0.4516   20.1555 N.pl3   1  UNL1       -0.3049
     16 C           3.1193    0.9131   19.9675 C.3     1  UNL1        0.1081
     17 C           2.2280    2.1187   19.9214 C.3     1  UNL1        0.0938
     18 C          -1.4428    3.1700   20.7745 C.3     1  UNL1        0.0188
     19 C          -0.1480    3.1652   20.0173 C.3     1  UNL1        0.0722
     20 C           3.9201   -1.0889   25.3420 C.3     1  UNL1        0.0886
     21 N           5.0231   -0.4659   26.1453 N.3     1  UNL1       -0.2667
     22 C           5.9166    0.5642   25.5201 C.3     1  UNL1        0.0899
     23 C           5.2327   -0.8729   27.5737 C.3     1  UNL1        0.0978
     24 C           4.7042   -0.0135   28.6837 C.3     1  UNL1        0.0224
     25 C           4.9138   -0.4205   30.1121 C.3     1  UNL1        0.0065
     26 C           5.6519   -1.6869   30.4305 C.3     1  UNL1        0.0277
     27 C           6.1805   -2.5463   29.3206 C.ar    1  UNL1       -0.0073
     28 C           6.9187   -3.8127   29.6390 C.ar    1  UNL1       -0.0015
     29 C           7.4472   -4.6720   28.5289 C.ar    1  UNL1        0.0203
     30 C           7.2376   -4.2650   27.1005 C.ar    1  UNL1        0.0985
     31 N           6.4995   -2.9986   26.7821 N.ar    1  UNL1       -0.2471
     32 C           5.9709   -2.1393   27.8921 C.ar    1  UNL1        0.0695
@<TRIPOS>BOND
     1    18    19    1
     2    19    12    1
     3    12    13    1
     4    13    14    1
     5    14    15    1
     6    15     1    1
     7     1     2   ar
     8     2     3   ar
     9     3     4   ar
    10     4     5   ar
    11     5     6   ar
    12     6     7    1
    13     7     8    1
    14     8    20    1
    15    20    21    1
    16    21    22    1
    17    23    21    1
    18    23    24    1
    19    24    25    1
    20    25    26    1
    21    26    27    1
    22    27    28   ar
    23    28    29   ar
    24    29    30   ar
    25    30    31   ar
    26    31    32   ar
    27     8     9    1
    28     9    10    1
    29    15    16    1
    30    16    17    1
    31    17    12    1
    32     6     1   ar
    33    32    23    1
    34    10     5    1
    35    32    27   ar
    36     9    11    1
@<TRIPOS>MOLECULE
*****
 32 36 0 0 0
SMALL
GASTEIGER

@<TRIPOS>ATOM
      1 C           8.4606   -5.9210   27.4995 C.ar    1  UNL1        0.0436
      2 C           9.1827   -7.1645   27.9262 C.ar    1  UNL1        0.0142
      3 C           9.5325   -8.2137   26.9129 C.ar    1  UNL1        0.0010
      4 C           9.1602   -8.0194   25.4729 C.ar    1  UNL1       -0.0032
      5 C           8.4381   -6.7758   25.0462 C.ar    1  UNL1       -0.0091
      6 C           8.0883   -5.7266   26.0595 C.ar    1  UNL1       -0.0101
      7 C           7.3662   -4.4830   25.6328 C.3     1  UNL1        0.0444
      8 C           6.9939   -4.2886   24.1928 C.3     1  UNL1        0.0749
      9 N           7.3437   -5.3379   23.1795 N.3     1  UNL1       -0.2934
     10 C           8.0658   -6.5815   23.6062 C.3     1  UNL1        0.0954
     11 H           7.9275   -4.8851   22.4762 H       1  UNL1        0.1236
     12 N           7.4112   -2.7732   30.5394 N.3     1  UNL1       -0.2698
     13 C           8.6231   -2.6036   29.6720 C.3     1  UNL1        0.0938
     14 C           8.9729   -3.6529   28.6586 C.3     1  UNL1        0.1081
     15 N           8.1108   -4.8717   28.5128 N.pl3   1  UNL1       -0.3049
     16 C           6.8989   -5.0413   29.3803 C.3     1  UNL1        0.1081
     17 C           6.5491   -3.9921   30.3935 C.3     1  UNL1        0.0938
     18 C           5.8409   -0.8734   31.3607 C.3     1  UNL1        0.0188
     19 C           7.0613   -1.7240   31.5527 C.3     1  UNL1        0.0722
     20 C           6.2718   -3.0451   23.7661 C.3     1  UNL1        0.0886
     21 N           6.4848   -2.4892   22.3893 N.3     1  UNL1       -0.2667
     22 C           7.7012   -1.6623   22.0942 C.3     1  UNL1        0.0899
     23 C           5.4816   -2.7600   21.3076 C.3     1  UNL1        0.0978
     24 C           5.6829   -3.9133   20.3697 C.3     1  UNL1        0.0224
     25 C           4.6796   -4.1841   19.2880 C.3     1  UNL1        0.0065
     26 C           3.4751   -3.3018   19.1441 C.3     1  UNL1        0.0277
     27 C           3.2739   -2.1486   20.0820 C.ar    1  UNL1       -0.0073
     28 C           2.0694   -1.2663   19.9381 C.ar    1  UNL1       -0.0015
     29 C           1.8682   -0.1130   20.8760 C.ar    1  UNL1        0.0203
     30 C           2.8714    0.1578   21.9577 C.ar    1  UNL1        0.0985
     31 N           4.0759   -0.7245   22.1016 N.ar    1  UNL1       -0.2471
     32 C           4.2771   -1.8777   21.1637 C.ar    1  UNL1        0.0695
@<TRIPOS>BOND
     1    18    19    1
     2    19    12    1
     3    12    13    1
     4    13    14    1
     5    14    15    1
     6    15     1    1
     7     1     2   ar
     8     2     3   ar
     9     3     4   ar
    10     4     5   ar
    11     5     6   ar
    12     6     7    1
    13     7     8    1
    14     8    20    1
    15    20    21    1
    16    21    22    1
    17    23    21    1
    18    23    24    1
    19    24    25    1
    20    25    26    1
    21    26    27    1
    22    27    28   ar
    23    28    29   ar
    24    29    30   ar
    25    30    31   ar
    26    31    32   ar
    27     8     9    1
    28     9    10    1
    29    15    16    1
    30    16    17    1
    31    17    12    1
    32     6     1   ar
    33    32    23    1
    34    10     5    1
    35    32    27   ar
    36     9    11    1
@<TRIPOS>MOLECULE
*****
 32 36 0 0 0
SMALL
GASTEIGER

@<TRIPOS>ATOM
      1 C           7.7093   -5.0209   24.2615 C.ar    1  UNL1        0.0436
      2 C           8.2872   -5.5994   23.0040 C.ar    1  UNL1        0.0142
      3 C           8.8972   -6.9696   23.0201 C.ar    1  UNL1        0.0010
      4 C           8.9293   -7.7614   24.2937 C.ar    1  UNL1       -0.0032
      5 C           8.3513   -7.1829   25.5512 C.ar    1  UNL1       -0.0091
      6 C           7.7413   -5.8127   25.5351 C.ar    1  UNL1       -0.0101
      7 C           7.1634   -5.2342   26.7926 C.3     1  UNL1        0.0444
      8 C           7.1954   -6.0260   28.0662 C.3     1  UNL1        0.0749
      9 N           7.8055   -7.3963   28.0823 N.3     1  UNL1       -0.2934
     10 C           8.3834   -7.9747   26.8248 C.3     1  UNL1        0.0954
     11 H           7.0776   -8.0390   28.3946 H       1  UNL1        0.1236
     12 N           5.8792   -0.9101   24.2133 N.3     1  UNL1       -0.2698
     13 C           5.0378   -2.1094   23.8916 C.3     1  UNL1        0.0938
     14 C           5.6478   -3.4797   23.9077 C.3     1  UNL1        0.1081
     15 N           7.0992   -3.6506   24.2454 N.pl3   1  UNL1       -0.3049
     16 C           7.9407   -2.4513   24.5671 C.3     1  UNL1        0.1081
     17 C           7.3307   -1.0810   24.5510 C.3     1  UNL1        0.0938
     18 C           3.8520    0.6555   24.6481 C.3     1  UNL1        0.0188
     19 C           5.2692    0.4602   24.1972 C.3     1  UNL1        0.0722
     20 C           6.6175   -5.4475   29.3237 C.3     1  UNL1        0.0886
     21 N           7.3071   -4.3059   30.0101 N.3     1  UNL1       -0.2667
     22 C           8.8013   -4.1877   29.9514 C.3     1  UNL1        0.0899
     23 C           6.5025   -3.2824   30.7552 C.3     1  UNL1        0.0978
     24 C           6.2653   -3.4417   32.2278 C.3     1  UNL1        0.0224
     25 C           5.4607   -2.4183   32.9728 C.3     1  UNL1        0.0065
     26 C           4.8933   -1.2355   32.2454 C.3     1  UNL1        0.0277
     27 C           5.1305   -1.0762   30.7729 C.ar    1  UNL1       -0.0073
     28 C           4.5631    0.1065   30.0455 C.ar    1  UNL1       -0.0015
     29 C           4.8003    0.2658   28.5729 C.ar    1  UNL1        0.0203
     30 C           5.6048   -0.7576   27.8278 C.ar    1  UNL1        0.0985
     31 N           6.1723   -1.9404   28.5552 N.ar    1  UNL1       -0.2471
     32 C           5.9351   -2.0997   30.0277 C.ar    1  UNL1        0.0695
@<TRIPOS>BOND
     1    18    19    1
     2    19    12    1
     3    12    13    1
     4    13    14    1
     5    14    15    1
     6    15     1    1
     7     1     2   ar
     8     2     3   ar
     9     3     4   ar
    10     4     5   ar
    11     5     6   ar
    12     6     7    1
    13     7     8    1
    14     8    20    1
    15    20    21    1
    16    21    22    1
    17    23    21    1
    18    23    24    1
    19    24    25    1
    20    25    26    1
    21    26    27    1
    22    27    28   ar
    23    28    29   ar
    24    29    30   ar
    25    30    31   ar
    26    31    32   ar
    27     8     9    1
    28     9    10    1
    29    15    16    1
    30    16    17    1
    31    17    12    1
    32     6     1   ar
    33    32    23    1
    34    10     5    1
    35    32    27   ar
    36     9    11    1
