@<TRIPOS>MOLECULE
*****
 37 42 0 0 0
SMALL
GASTEIGER

@<TRIPOS>ATOM
      1 C           4.4327    1.0024   36.6882 C.ar    1  UNL1        0.0496
      2 C           5.6006    0.0684   36.5723 C.ar    1  UNL1        0.0178
      3 C           5.9469   -0.5384   35.2449 C.ar    1  UNL1        0.0383
      4 C           5.1251   -0.2112   34.0334 C.ar    1  UNL1        0.1410
      5 C           3.9571    0.7228   34.1493 C.ar    1  UNL1        0.0700
      6 C           3.6109    1.3296   35.4767 C.ar    1  UNL1        0.0205
      7 C           3.1354    1.0501   32.9379 C.2     1  UNL1        0.1795
      8 O           1.9674    1.9841   33.0538 O.2     1  UNL1       -0.2911
      9 C           3.4816    0.4432   31.6104 C.3     1  UNL1        0.1092
     10 C           4.6496   -0.4908   31.4945 C.3     1  UNL1        0.1436
     11 C           3.8278   -0.1636   30.2831 C.3     1  UNL1        0.0620
     12 C           4.1741   -0.7704   28.9558 C.3     1  UNL1        0.0985
     13 N           5.3420   -1.7044   28.8399 N.am    1  UNL1       -0.2640
     14 C           5.6882   -2.3112   27.5125 C.2     1  UNL1        0.3039
     15 O           6.8562   -3.2453   27.3966 O.2     1  UNL1       -0.2526
     16 N           4.8665   -1.9840   26.3010 N.am    1  UNL1       -0.2901
     17 C           6.1638   -2.0317   30.0513 C.3     1  UNL1        0.0985
     18 C           5.8175   -1.4248   31.3786 C.3     1  UNL1        0.0620
     19 O           5.4713   -0.8180   32.7061 O.3     1  UNL1       -0.4819
     20 H           4.0999   -1.3710   26.3771 H       1  UNL1        0.1509
     21 C           5.2127   -2.5908   24.9736 C.3     1  UNL1        0.0774
     22 C           6.0601   -3.5132   24.1483 C.3     1  UNL1        0.0259
     23 C           4.9650   -2.7194   23.4998 C.3     1  UNL1        0.0420
     24 C           4.1897   -2.3354   22.2745 C.ar    1  UNL1       -0.0208
     25 C           3.2440   -1.1719   22.3194 C.ar    1  UNL1       -0.0042
     26 C           2.4687   -0.7878   21.0941 C.ar    1  UNL1       -0.0003
     27 C           2.6391   -1.5673   19.8238 C.ar    1  UNL1       -0.0000
     28 C           3.5848   -2.7307   19.7789 C.ar    1  UNL1       -0.0003
     29 C           4.3601   -3.1148   21.0043 C.ar    1  UNL1       -0.0042
     30 N           4.0864    1.6092   38.0155 N.pl3   1  UNL1       -0.2981
     31 H           4.7958    1.9872   38.5840 H       1  UNL1        0.1536
     32 C           1.9672    4.0436   37.5336 C.3     1  UNL1        0.1552
     33 N           1.6853    2.7591   38.2552 N.ar    1  UNL1       -0.2356
     34 N           0.3798    2.3681   38.8820 N.ar    1  UNL1       -0.1665
     35 C           0.5471    1.0074   39.4909 C.ar    1  UNL1        0.1230
     36 C           1.9560    0.5576   39.2404 C.ar    1  UNL1        0.0565
     37 C           2.6594    1.6401   38.4767 C.ar    1  UNL1        0.1307
@<TRIPOS>BOND
     1    32    33    1
     2    33    34   ar
     3    34    35   ar
     4    35    36   ar
     5    36    37   ar
     6    37    30    1
     7    30     1    1
     8     1     2   ar
     9     2     3   ar
    10     3     4   ar
    11     4     5   ar
    12     5     6   ar
    13     5     7    1
    14     7     8    2
    15     7     9    1
    16     9    10    1
    17    10    11    1
    18    11    12    1
    19    12    13    1
    20    13    14   am
    21    14    15    2
    22    14    16   am
    23    21    16    1
    24    21    22    1
    25    22    23    1
    26    23    24    1
    27    24    25   ar
    28    25    26   ar
    29    26    27   ar
    30    27    28   ar
    31    28    29   ar
    32    13    17    1
    33    17    18    1
    34    10    19    1
    35    37    33   ar
    36     6     1   ar
    37    18    10    1
    38    19     4    1
    39    23    21    1
    40    29    24   ar
    41    30    31    1
    42    16    20    1
@<TRIPOS>MOLECULE
*****
 37 42 0 0 0
SMALL
GASTEIGER

@<TRIPOS>ATOM
      1 C           2.0396    3.7019   36.1612 C.ar    1  UNL1        0.0496
      2 C           1.2959    4.7972   35.4561 C.ar    1  UNL1        0.0178
      3 C           1.0751    4.7206   33.9745 C.ar    1  UNL1        0.0383
      4 C           1.5980    3.5486   33.1978 C.ar    1  UNL1        0.1410
      5 C           2.3417    2.4533   33.9029 C.ar    1  UNL1        0.0700
      6 C           2.5624    2.5299   35.3847 C.ar    1  UNL1        0.0205
      7 C           2.8646    1.2813   33.1264 C.2     1  UNL1        0.1795
      8 O           3.6082    0.1860   33.8315 O.2     1  UNL1       -0.2911
      9 C           2.6438    1.2047   31.6446 C.3     1  UNL1        0.1092
     10 C           1.9002    2.3001   30.9395 C.3     1  UNL1        0.1436
     11 C           2.4231    1.1281   30.1630 C.3     1  UNL1        0.0620
     12 C           2.2023    1.0515   28.6813 C.3     1  UNL1        0.0985
     13 N           1.4587    2.1469   27.9762 N.am    1  UNL1       -0.2640
     14 C           1.2379    2.0703   26.4945 C.2     1  UNL1        0.3039
     15 O           0.4943    3.1656   25.7894 O.2     1  UNL1       -0.2526
     16 N           1.7608    0.8983   25.7179 N.am    1  UNL1       -0.2901
     17 C           0.9358    3.3188   28.7528 C.3     1  UNL1        0.0985
     18 C           1.1565    3.3954   30.2344 C.3     1  UNL1        0.0620
     19 O           1.3773    3.4721   31.7162 O.3     1  UNL1       -0.4819
     20 H           2.2489    0.1794   26.1807 H       1  UNL1        0.1509
     21 C           1.5401    0.8217   24.2362 C.3     1  UNL1        0.0774
     22 C           0.8376    1.3020   23.0009 C.3     1  UNL1        0.0259
     23 C           1.8601    0.2087   22.9051 C.3     1  UNL1        0.0420
     24 C           2.6353   -0.7764   22.0813 C.ar    1  UNL1       -0.0208
     25 C           2.3204   -0.9482   20.6248 C.ar    1  UNL1       -0.0042
     26 C           3.0955   -1.9333   19.8010 C.ar    1  UNL1       -0.0003
     27 C           4.1856   -2.7466   20.4337 C.ar    1  UNL1       -0.0000
     28 C           4.5006   -2.5748   21.8902 C.ar    1  UNL1       -0.0003
     29 C           3.7253   -1.5897   22.7140 C.ar    1  UNL1       -0.0042
     30 N           2.2603    3.7784   37.6429 N.pl3   1  UNL1       -0.2981
     31 H           2.6241    4.6004   38.0445 H       1  UNL1        0.1536
     32 C           4.2701    1.3213   38.3997 C.3     1  UNL1        0.1552
     33 N           2.8507    1.4732   38.8605 N.ar    1  UNL1       -0.2356
     34 N           2.1059    0.5224   39.7501 N.ar    1  UNL1       -0.1665
     35 C           0.7218    1.0643   39.9520 C.ar    1  UNL1        0.1230
     36 C           0.6112    2.3499   39.1872 C.ar    1  UNL1        0.0565
     37 C           1.9269    2.6026   38.5126 C.ar    1  UNL1        0.1307
@<TRIPOS>BOND
     1    32    33    1
     2    33    34   ar
     3    34    35   ar
     4    35    36   ar
     5    36    37   ar
     6    37    30    1
     7    30     1    1
     8     1     2   ar
     9     2     3   ar
    10     3     4   ar
    11     4     5   ar
    12     5     6   ar
    13     5     7    1
    14     7     8    2
    15     7     9    1
    16     9    10    1
    17    10    11    1
    18    11    12    1
    19    12    13    1
    20    13    14   am
    21    14    15    2
    22    14    16   am
    23    21    16    1
    24    21    22    1
    25    22    23    1
    26    23    24    1
    27    24    25   ar
    28    25    26   ar
    29    26    27   ar
    30    27    28   ar
    31    28    29   ar
    32    13    17    1
    33    17    18    1
    34    10    19    1
    35    37    33   ar
    36     6     1   ar
    37    18    10    1
    38    19     4    1
    39    23    21    1
    40    29    24   ar
    41    30    31    1
    42    16    20    1
@<TRIPOS>MOLECULE
*****
 37 42 0 0 0
SMALL
GASTEIGER

@<TRIPOS>ATOM
      1 C           3.6382    0.9488   36.0223 C.ar    1  UNL1        0.0496
      2 C           2.8369    2.1032   35.4978 C.ar    1  UNL1        0.0178
      3 C           2.5652    2.2211   34.0274 C.ar    1  UNL1        0.0383
      4 C           3.0949    1.1845   33.0813 C.ar    1  UNL1        0.1410
      5 C           3.8962    0.0300   33.6058 C.ar    1  UNL1        0.0700
      6 C           4.1678   -0.0878   35.0763 C.ar    1  UNL1        0.0205
      7 C           4.4258   -1.0065   32.6598 C.2     1  UNL1        0.1795
      8 O           5.2271   -2.1610   33.1843 O.2     1  UNL1       -0.2911
      9 C           4.1542   -0.8887   31.1893 C.3     1  UNL1        0.1092
     10 C           3.3529    0.2658   30.6648 C.3     1  UNL1        0.1436
     11 C           3.8825   -0.7708   29.7188 C.3     1  UNL1        0.0620
     12 C           3.6109   -0.6529   28.2484 C.3     1  UNL1        0.0985
     13 N           2.8095    0.5016   27.7239 N.am    1  UNL1       -0.2640
     14 C           2.5379    0.6195   26.2534 C.2     1  UNL1        0.3039
     15 O           1.7366    1.7739   25.7289 O.2     1  UNL1       -0.2526
     16 N           3.0676   -0.4171   25.3074 N.am    1  UNL1       -0.2901
     17 C           2.2799    1.5382   28.6699 C.3     1  UNL1        0.0985
     18 C           2.5516    1.4203   30.1403 C.3     1  UNL1        0.0620
     19 O           2.8232    1.3024   31.6109 O.3     1  UNL1       -0.4819
     20 H           3.5935   -1.1748   25.6517 H       1  UNL1        0.1509
     21 C           2.7959   -0.2993   23.8369 C.3     1  UNL1        0.0774
     22 C           2.1655    0.4283   22.6866 C.3     1  UNL1        0.0259
     23 C           2.9558   -0.8226   22.4403 C.3     1  UNL1        0.0420
     24 C           3.5044   -1.8470   21.4918 C.ar    1  UNL1       -0.0208
     25 C           3.0812   -1.8394   20.0527 C.ar    1  UNL1       -0.0042
     26 C           3.6298   -2.8638   19.1042 C.ar    1  UNL1       -0.0003
     27 C           4.6017   -3.8957   19.5948 C.ar    1  UNL1       -0.0000
     28 C           5.0249   -3.9033   21.0338 C.ar    1  UNL1       -0.0003
     29 C           4.4762   -2.8789   21.9823 C.ar    1  UNL1       -0.0042
     30 N           3.9098    0.8309   37.4927 N.pl3   1  UNL1       -0.2981
     31 H           4.7833    0.5031   37.8072 H       1  UNL1        0.1536
     32 C           3.5847    3.7442   38.9267 C.3     1  UNL1        0.1552
     33 N           2.7012    2.5514   39.1432 N.ar    1  UNL1       -0.2356
     34 N           1.5132    2.4884   40.0568 N.ar    1  UNL1       -0.1665
     35 C           0.9284    1.1103   39.9623 C.ar    1  UNL1        0.1230
     36 C           1.7550    0.3216   38.9903 C.ar    1  UNL1        0.0565
     37 C           2.8506    1.2123   38.4841 C.ar    1  UNL1        0.1307
@<TRIPOS>BOND
     1    32    33    1
     2    33    34   ar
     3    34    35   ar
     4    35    36   ar
     5    36    37   ar
     6    37    30    1
     7    30     1    1
     8     1     2   ar
     9     2     3   ar
    10     3     4   ar
    11     4     5   ar
    12     5     6   ar
    13     5     7    1
    14     7     8    2
    15     7     9    1
    16     9    10    1
    17    10    11    1
    18    11    12    1
    19    12    13    1
    20    13    14   am
    21    14    15    2
    22    14    16   am
    23    21    16    1
    24    21    22    1
    25    22    23    1
    26    23    24    1
    27    24    25   ar
    28    25    26   ar
    29    26    27   ar
    30    27    28   ar
    31    28    29   ar
    32    13    17    1
    33    17    18    1
    34    10    19    1
    35    37    33   ar
    36     6     1   ar
    37    18    10    1
    38    19     4    1
    39    23    21    1
    40    29    24   ar
    41    30    31    1
    42    16    20    1
@<TRIPOS>MOLECULE
*****
 37 42 0 0 0
SMALL
GASTEIGER

@<TRIPOS>ATOM
      1 C           4.5424    0.5077   35.3656 C.ar    1  UNL1        0.0496
      2 C           5.7754   -0.2762   35.0260 C.ar    1  UNL1        0.0178
      3 C           6.0005   -0.7482   33.6202 C.ar    1  UNL1        0.0383
      4 C           4.9926   -0.4364   32.5538 C.ar    1  UNL1        0.1410
      5 C           3.7597    0.3475   32.8934 C.ar    1  UNL1        0.0700
      6 C           3.5346    0.8195   34.2993 C.ar    1  UNL1        0.0205
      7 C           2.7518    0.6593   31.8271 C.2     1  UNL1        0.1795
      8 O           1.5188    1.4432   32.1667 O.2     1  UNL1       -0.2911
      9 C           2.9769    0.1872   30.4212 C.3     1  UNL1        0.1092
     10 C           4.2099   -0.5967   30.0816 C.3     1  UNL1        0.1436
     11 C           3.2020   -0.2848   29.0154 C.3     1  UNL1        0.0620
     12 C           3.4272   -0.7569   27.6095 C.3     1  UNL1        0.0985
     13 N           4.6601   -1.5408   27.2700 N.am    1  UNL1       -0.2640
     14 C           4.8852   -2.0128   25.8640 C.2     1  UNL1        0.3039
     15 O           6.1182   -2.7967   25.5245 O.2     1  UNL1       -0.2526
     16 N           3.8774   -1.7010   24.7978 N.am    1  UNL1       -0.2901
     17 C           5.6680   -1.8526   28.3362 C.3     1  UNL1        0.0985
     18 C           5.4429   -1.3805   29.7421 C.3     1  UNL1        0.0620
     19 O           5.2178   -0.9085   31.1480 O.3     1  UNL1       -0.4819
     20 H           3.0682   -1.1865   25.0207 H       1  UNL1        0.1509
     21 C           4.1025   -2.1731   23.3918 C.3     1  UNL1        0.0774
     22 C           4.6576   -3.1859   22.4348 C.3     1  UNL1        0.0259
     23 C           3.9372   -1.9779   21.9138 C.3     1  UNL1        0.0420
     24 C           3.4258   -1.1677   20.7597 C.ar    1  UNL1       -0.0208
     25 C           1.9538   -0.9209   20.6105 C.ar    1  UNL1       -0.0042
     26 C           1.4424   -0.1107   19.4563 C.ar    1  UNL1       -0.0003
     27 C           2.4030    0.4527   18.4514 C.ar    1  UNL1       -0.0000
     28 C           3.8750    0.2059   18.6006 C.ar    1  UNL1       -0.0003
     29 C           4.3864   -0.6044   19.7548 C.ar    1  UNL1       -0.0042
     30 N           4.3173    0.9798   36.7714 N.pl3   1  UNL1       -0.2981
     31 H           4.8655    0.6194   37.5055 H       1  UNL1        0.1536
     32 C           1.8521    0.6429   38.8831 C.3     1  UNL1        0.1552
     33 N           2.1237    1.8462   38.0296 N.ar    1  UNL1       -0.2356
     34 N           1.3099    3.1058   37.9969 N.ar    1  UNL1       -0.1665
     35 C           1.9401    4.0391   37.0060 C.ar    1  UNL1        0.1230
     36 C           3.1434    3.3563   36.4264 C.ar    1  UNL1        0.0565
     37 C           3.2568    2.0010   37.0590 C.ar    1  UNL1        0.1307
@<TRIPOS>BOND
     1    32    33    1
     2    33    34   ar
     3    34    35   ar
     4    35    36   ar
     5    36    37   ar
     6    37    30    1
     7    30     1    1
     8     1     2   ar
     9     2     3   ar
    10     3     4   ar
    11     4     5   ar
    12     5     6   ar
    13     5     7    1
    14     7     8    2
    15     7     9    1
    16     9    10    1
    17    10    11    1
    18    11    12    1
    19    12    13    1
    20    13    14   am
    21    14    15    2
    22    14    16   am
    23    21    16    1
    24    21    22    1
    25    22    23    1
    26    23    24    1
    27    24    25   ar
    28    25    26   ar
    29    26    27   ar
    30    27    28   ar
    31    28    29   ar
    32    13    17    1
    33    17    18    1
    34    10    19    1
    35    37    33   ar
    36     6     1   ar
    37    18    10    1
    38    19     4    1
    39    23    21    1
    40    29    24   ar
    41    30    31    1
    42    16    20    1
@<TRIPOS>MOLECULE
*****
 37 42 0 0 0
SMALL
GASTEIGER

@<TRIPOS>ATOM
      1 C           2.7724    2.1644   34.9672 C.ar    1  UNL1        0.0496
      2 C           4.1572    1.5991   35.0795 C.ar    1  UNL1        0.0178
      3 C           4.7742    0.8884   33.9115 C.ar    1  UNL1        0.0383
      4 C           4.0063    0.7430   32.6312 C.ar    1  UNL1        0.1410
      5 C           2.6214    1.3083   32.5189 C.ar    1  UNL1        0.0700
      6 C           2.0045    2.0190   33.6870 C.ar    1  UNL1        0.0205
      7 C           1.8536    1.1629   31.2386 C.2     1  UNL1        0.1795
      8 O           0.4687    1.7281   31.1263 O.2     1  UNL1       -0.2911
      9 C           2.4705    0.4522   30.0705 C.3     1  UNL1        0.1092
     10 C           3.8554   -0.1131   30.1828 C.3     1  UNL1        0.1436
     11 C           3.0875   -0.2585   28.9025 C.3     1  UNL1        0.0620
     12 C           3.7045   -0.9691   27.7345 C.3     1  UNL1        0.0985
     13 N           5.0894   -1.5344   27.8468 N.am    1  UNL1       -0.2640
     14 C           5.7064   -2.2451   26.6787 C.2     1  UNL1        0.3039
     15 O           7.0912   -2.8103   26.7910 O.2     1  UNL1       -0.2526
     16 N           4.9385   -2.3905   25.3985 N.am    1  UNL1       -0.2901
     17 C           5.8573   -1.3890   29.1271 C.3     1  UNL1        0.0985
     18 C           5.2403   -0.6783   30.2951 C.3     1  UNL1        0.0620
     19 O           4.6233    0.0324   31.4632 O.3     1  UNL1       -0.4819
     20 H           4.0295   -2.0195   25.3248 H       1  UNL1        0.1509
     21 C           5.5555   -3.1011   24.2304 C.3     1  UNL1        0.0774
     22 C           6.5930   -4.0322   23.6767 C.3     1  UNL1        0.0259
     23 C           5.5865   -3.4010   22.7610 C.3     1  UNL1        0.0420
     24 C           5.0233   -3.2098   21.3840 C.ar    1  UNL1       -0.0208
     25 C           5.6333   -3.9291   20.2176 C.ar    1  UNL1       -0.0042
     26 C           5.0701   -3.7378   18.8406 C.ar    1  UNL1       -0.0003
     27 C           3.8968   -2.8272   18.6299 C.ar    1  UNL1       -0.0000
     28 C           3.2868   -2.1079   19.7963 C.ar    1  UNL1       -0.0003
     29 C           3.8501   -2.2992   21.1734 C.ar    1  UNL1       -0.0042
     30 N           2.1554    2.8750   36.1352 N.pl3   1  UNL1       -0.2981
     31 H           1.2259    3.1950   36.0817 H       1  UNL1        0.1536
     32 C           2.2070    0.9265   38.7525 C.3     1  UNL1        0.1552
     33 N           2.9783    2.2025   38.5879 N.ar    1  UNL1       -0.2356
     34 N           3.9087    2.8068   39.5975 N.ar    1  UNL1       -0.1665
     35 C           4.4600    4.0759   39.0183 C.ar    1  UNL1        0.1230
     36 C           3.8703    4.2560   37.6509 C.ar    1  UNL1        0.0565
     37 C           2.9546    3.0981   37.3849 C.ar    1  UNL1        0.1307
@<TRIPOS>BOND
     1    32    33    1
     2    33    34   ar
     3    34    35   ar
     4    35    36   ar
     5    36    37   ar
     6    37    30    1
     7    30     1    1
     8     1     2   ar
     9     2     3   ar
    10     3     4   ar
    11     4     5   ar
    12     5     6   ar
    13     5     7    1
    14     7     8    2
    15     7     9    1
    16     9    10    1
    17    10    11    1
    18    11    12    1
    19    12    13    1
    20    13    14   am
    21    14    15    2
    22    14    16   am
    23    21    16    1
    24    21    22    1
    25    22    23    1
    26    23    24    1
    27    24    25   ar
    28    25    26   ar
    29    26    27   ar
    30    27    28   ar
    31    28    29   ar
    32    13    17    1
    33    17    18    1
    34    10    19    1
    35    37    33   ar
    36     6     1   ar
    37    18    10    1
    38    19     4    1
    39    23    21    1
    40    29    24   ar
    41    30    31    1
    42    16    20    1
@<TRIPOS>MOLECULE
*****
 37 42 0 0 0
SMALL
GASTEIGER

@<TRIPOS>ATOM
      1 C           6.1907   -1.4911   28.6793 C.ar    1  UNL1        0.0496
      2 C           6.3296   -0.9302   27.2951 C.ar    1  UNL1        0.0178
      3 C           5.1833   -0.1965   26.6646 C.ar    1  UNL1        0.0383
      4 C           3.8980   -0.0236   27.4183 C.ar    1  UNL1        0.1410
      5 C           3.7590   -0.5845   28.8026 C.ar    1  UNL1        0.0700
      6 C           4.9054   -1.3182   29.4331 C.ar    1  UNL1        0.0205
      7 C           2.4738   -0.4116   29.5563 C.2     1  UNL1        0.1795
      8 O           2.3348   -0.9725   30.9406 O.2     1  UNL1       -0.2911
      9 C           1.3274    0.3221   28.9259 C.3     1  UNL1        0.1092
     10 C           1.4663    0.8830   27.5416 C.3     1  UNL1        0.1436
     11 C           0.1810    1.0558   28.2954 C.3     1  UNL1        0.0620
     12 C          -0.9653    1.7896   27.6649 C.3     1  UNL1        0.0985
     13 N          -0.8263    2.3504   26.2807 N.am    1  UNL1       -0.2640
     14 C          -1.9728    3.0842   25.6502 C.2     1  UNL1        0.3039
     15 O          -1.8338    3.6451   24.2660 O.2     1  UNL1       -0.2526
     16 N          -3.2580    3.2571   26.4039 N.am    1  UNL1       -0.2901
     17 C           0.4589    2.1776   25.5269 C.3     1  UNL1        0.0985
     18 C           1.6052    1.4439   26.1574 C.3     1  UNL1        0.0620
     19 O           2.7516    0.7101   26.7879 O.3     1  UNL1       -0.4819
     20 H          -3.3492    2.8889   27.3125 H       1  UNL1        0.1509
     21 C          -4.4044    3.9908   25.7735 C.3     1  UNL1        0.0774
     22 C          -5.5734    4.9230   25.8933 C.3     1  UNL1        0.0259
     23 C          -5.2210    4.3295   24.5616 C.3     1  UNL1        0.0420
     24 C          -5.4890    4.1823   23.0932 C.ar    1  UNL1       -0.0208
     25 C          -4.6170    3.2931   22.2571 C.ar    1  UNL1       -0.0042
     26 C          -4.8849    3.1459   20.7886 C.ar    1  UNL1       -0.0003
     27 C          -6.0249    3.8879   20.1561 C.ar    1  UNL1       -0.0000
     28 C          -6.8969    4.7771   20.9922 C.ar    1  UNL1       -0.0003
     29 C          -6.6289    4.9243   22.4608 C.ar    1  UNL1       -0.0042
     30 N           7.3370   -2.2248   29.3098 N.pl3   1  UNL1       -0.2981
     31 H           8.1521   -1.7364   29.5673 H       1  UNL1        0.1536
     32 C           6.4323   -3.6644   32.0952 C.3     1  UNL1        0.1552
     33 N           6.8256   -4.3645   30.8282 N.ar    1  UNL1       -0.2356
     34 N           6.8722   -5.8491   30.6192 N.ar    1  UNL1       -0.1665
     35 C           7.3168   -6.1049   29.2095 C.ar    1  UNL1        0.1230
     36 C           7.5450   -4.7784   28.5475 C.ar    1  UNL1        0.0565
     37 C           7.2415   -3.7028   29.5479 C.ar    1  UNL1        0.1307
@<TRIPOS>BOND
     1    32    33    1
     2    33    34   ar
     3    34    35   ar
     4    35    36   ar
     5    36    37   ar
     6    37    30    1
     7    30     1    1
     8     1     2   ar
     9     2     3   ar
    10     3     4   ar
    11     4     5   ar
    12     5     6   ar
    13     5     7    1
    14     7     8    2
    15     7     9    1
    16     9    10    1
    17    10    11    1
    18    11    12    1
    19    12    13    1
    20    13    14   am
    21    14    15    2
    22    14    16   am
    23    21    16    1
    24    21    22    1
    25    22    23    1
    26    23    24    1
    27    24    25   ar
    28    25    26   ar
    29    26    27   ar
    30    27    28   ar
    31    28    29   ar
    32    13    17    1
    33    17    18    1
    34    10    19    1
    35    37    33   ar
    36     6     1   ar
    37    18    10    1
    38    19     4    1
    39    23    21    1
    40    29    24   ar
    41    30    31    1
    42    16    20    1
@<TRIPOS>MOLECULE
*****
 37 42 0 0 0
SMALL
GASTEIGER

@<TRIPOS>ATOM
      1 C           7.4425   -4.2599   24.6891 C.ar    1  UNL1        0.0496
      2 C           7.0800   -3.2885   25.7731 C.ar    1  UNL1        0.0178
      3 C           5.9891   -2.2843   25.5463 C.ar    1  UNL1        0.0383
      4 C           5.2607   -2.2514   24.2355 C.ar    1  UNL1        0.1410
      5 C           5.6231   -3.2228   23.1515 C.ar    1  UNL1        0.0700
      6 C           6.7140   -4.2270   23.3783 C.ar    1  UNL1        0.0205
      7 C           4.8947   -3.1899   21.8406 C.2     1  UNL1        0.1795
      8 O           5.2571   -4.1613   20.7566 O.2     1  UNL1       -0.2911
      9 C           3.8038   -2.1857   21.6138 C.3     1  UNL1        0.1092
     10 C           3.4413   -1.2143   22.6978 C.3     1  UNL1        0.1436
     11 C           2.7129   -1.1814   21.3870 C.3     1  UNL1        0.0620
     12 C           1.6220   -0.1772   21.1602 C.3     1  UNL1        0.0985
     13 N           1.2596    0.7942   22.2442 N.am    1  UNL1       -0.2640
     14 C           0.1686    1.7984   22.0173 C.2     1  UNL1        0.3039
     15 O          -0.1938    2.7698   23.1013 O.2     1  UNL1       -0.2526
     16 N          -0.5598    1.8313   20.7065 N.am    1  UNL1       -0.2901
     17 C           1.9880    0.7613   23.5550 C.3     1  UNL1        0.0985
     18 C           3.0788   -0.2429   23.7818 C.3     1  UNL1        0.0620
     19 O           4.1698   -1.2472   24.0087 O.3     1  UNL1       -0.4819
     20 H          -0.3219    1.1937   19.9950 H       1  UNL1        0.1509
     21 C          -1.6507    2.8355   20.4796 C.3     1  UNL1        0.0774
     22 C          -2.2781    3.9030   19.6330 C.3     1  UNL1        0.0259
     23 C          -2.9128    3.5074   20.9333 C.3     1  UNL1        0.0420
     24 C          -4.0078    3.6669   21.9459 C.ar    1  UNL1       -0.0208
     25 C          -5.3854    4.0637   21.5046 C.ar    1  UNL1       -0.0042
     26 C          -6.4805    4.2232   22.5172 C.ar    1  UNL1       -0.0003
     27 C          -6.1979    3.9858   23.9712 C.ar    1  UNL1       -0.0000
     28 C          -4.8203    3.5889   24.4124 C.ar    1  UNL1       -0.0003
     29 C          -3.7253    3.4295   23.3997 C.ar    1  UNL1       -0.0042
     30 N           8.5333   -5.2641   24.9159 N.pl3   1  UNL1       -0.2981
     31 H           9.3624   -5.2182   24.3871 H       1  UNL1        0.1536
     32 C           9.5041   -5.1072   28.0276 C.3     1  UNL1        0.1552
     33 N           8.8072   -6.2663   27.3789 N.ar    1  UNL1       -0.2356
     34 N           8.4342   -7.5567   28.0465 N.ar    1  UNL1       -0.1665
     35 C           7.7574   -8.4264   27.0287 C.ar    1  UNL1        0.1230
     36 C           7.7122   -7.6734   25.7322 C.ar    1  UNL1        0.0565
     37 C           8.3610   -6.3384   25.9486 C.ar    1  UNL1        0.1307
@<TRIPOS>BOND
     1    32    33    1
     2    33    34   ar
     3    34    35   ar
     4    35    36   ar
     5    36    37   ar
     6    37    30    1
     7    30     1    1
     8     1     2   ar
     9     2     3   ar
    10     3     4   ar
    11     4     5   ar
    12     5     6   ar
    13     5     7    1
    14     7     8    2
    15     7     9    1
    16     9    10    1
    17    10    11    1
    18    11    12    1
    19    12    13    1
    20    13    14   am
    21    14    15    2
    22    14    16   am
    23    21    16    1
    24    21    22    1
    25    22    23    1
    26    23    24    1
    27    24    25   ar
    28    25    26   ar
    29    26    27   ar
    30    27    28   ar
    31    28    29   ar
    32    13    17    1
    33    17    18    1
    34    10    19    1
    35    37    33   ar
    36     6     1   ar
    37    18    10    1
    38    19     4    1
    39    23    21    1
    40    29    24   ar
    41    30    31    1
    42    16    20    1
@<TRIPOS>MOLECULE
*****
 37 42 0 0 0
SMALL
GASTEIGER

@<TRIPOS>ATOM
      1 C           3.9532    2.3514   35.6142 C.ar    1  UNL1        0.0496
      2 C           4.0091    3.5516   34.7162 C.ar    1  UNL1        0.0178
      3 C           4.0217    3.3740   33.2268 C.ar    1  UNL1        0.0383
      4 C           3.9784    1.9962   32.6354 C.ar    1  UNL1        0.1410
      5 C           3.9225    0.7960   33.5334 C.ar    1  UNL1        0.0700
      6 C           3.9099    0.9736   35.0228 C.ar    1  UNL1        0.0205
      7 C           3.8792   -0.5818   32.9420 C.2     1  UNL1        0.1795
      8 O           3.8233   -1.7820   33.8400 O.2     1  UNL1       -0.2911
      9 C           3.8917   -0.7595   31.4526 C.3     1  UNL1        0.1092
     10 C           3.9476    0.4407   30.5546 C.3     1  UNL1        0.1436
     11 C           3.9043   -0.9371   29.9632 C.3     1  UNL1        0.0620
     12 C           3.9169   -1.1147   28.4738 C.3     1  UNL1        0.0985
     13 N           3.9728    0.0855   27.5758 N.am    1  UNL1       -0.2640
     14 C           3.9853   -0.0921   26.0864 C.2     1  UNL1        0.3039
     15 O           4.0412    1.1081   25.1884 O.2     1  UNL1       -0.2526
     16 N           3.9420   -1.4699   25.4950 N.am    1  UNL1       -0.2901
     17 C           4.0161    1.4633   28.1672 C.3     1  UNL1        0.0985
     18 C           4.0035    1.6409   29.6566 C.3     1  UNL1        0.0620
     19 O           3.9909    1.8186   31.1460 O.3     1  UNL1       -0.4819
     20 H           3.9053   -2.2576   26.0844 H       1  UNL1        0.1509
     21 C           3.9546   -1.6476   24.0056 C.3     1  UNL1        0.0774
     22 C           4.5343   -2.2862   22.7784 C.3     1  UNL1        0.0259
     23 C           3.3967   -1.3166   22.6531 C.3     1  UNL1        0.0420
     24 C           2.4178   -0.5657   21.7999 C.ar    1  UNL1       -0.0208
     25 C           2.1813   -0.9888   20.3804 C.ar    1  UNL1       -0.0042
     26 C           1.2024   -0.2379   19.5272 C.ar    1  UNL1       -0.0003
     27 C           0.4600    0.9361   20.0936 C.ar    1  UNL1       -0.0000
     28 C           0.6966    1.3592   21.5131 C.ar    1  UNL1       -0.0003
     29 C           1.6756    0.6082   22.3663 C.ar    1  UNL1       -0.0042
     30 N           3.9407    2.5290   37.1035 N.pl3   1  UNL1       -0.2981
     31 H           4.7601    2.8072   37.5730 H       1  UNL1        0.1536
     32 C           1.3085    4.4576   37.1460 C.3     1  UNL1        0.1552
     33 N           1.4697    3.1692   37.8972 N.ar    1  UNL1       -0.2356
     34 N           0.4494    2.5412   38.7997 N.ar    1  UNL1       -0.1665
     35 C           1.0287    1.2665   39.3379 C.ar    1  UNL1        0.1230
     36 C           2.4071    1.1068   38.7680 C.ar    1  UNL1        0.0565
     37 C           2.6796    2.2828   37.8776 C.ar    1  UNL1        0.1307
@<TRIPOS>BOND
     1    32    33    1
     2    33    34   ar
     3    34    35   ar
     4    35    36   ar
     5    36    37   ar
     6    37    30    1
     7    30     1    1
     8     1     2   ar
     9     2     3   ar
    10     3     4   ar
    11     4     5   ar
    12     5     6   ar
    13     5     7    1
    14     7     8    2
    15     7     9    1
    16     9    10    1
    17    10    11    1
    18    11    12    1
    19    12    13    1
    20    13    14   am
    21    14    15    2
    22    14    16   am
    23    21    16    1
    24    21    22    1
    25    22    23    1
    26    23    24    1
    27    24    25   ar
    28    25    26   ar
    29    26    27   ar
    30    27    28   ar
    31    28    29   ar
    32    13    17    1
    33    17    18    1
    34    10    19    1
    35    37    33   ar
    36     6     1   ar
    37    18    10    1
    38    19     4    1
    39    23    21    1
    40    29    24   ar
    41    30    31    1
    42    16    20    1
@<TRIPOS>MOLECULE
*****
 37 42 0 0 0
SMALL
GASTEIGER

@<TRIPOS>ATOM
      1 C          -1.6107    3.5693   21.2458 C.ar    1  UNL1        0.0496
      2 C          -1.2594    3.4966   22.7023 C.ar    1  UNL1        0.0178
      3 C          -0.1801    2.5647   23.1678 C.ar    1  UNL1        0.0383
      4 C           0.5479    1.7055   22.1769 C.ar    1  UNL1        0.1410
      5 C           0.1965    1.7782   20.7205 C.ar    1  UNL1        0.0700
      6 C          -0.8828    2.7101   20.2549 C.ar    1  UNL1        0.0205
      7 C           0.9245    0.9190   19.7296 C.2     1  UNL1        0.1795
      8 O           0.5731    0.9917   18.2731 O.2     1  UNL1       -0.2911
      9 C           2.0038   -0.0130   20.1952 C.3     1  UNL1        0.1092
     10 C           2.3551   -0.0856   21.6516 C.3     1  UNL1        0.1436
     11 C           3.0830   -0.9448   20.6608 C.3     1  UNL1        0.0620
     12 C           4.1623   -1.8767   21.1264 C.3     1  UNL1        0.0985
     13 N           4.5136   -1.9494   22.5828 N.am    1  UNL1       -0.2640
     14 C           5.5929   -2.8813   23.0484 C.2     1  UNL1        0.3039
     15 O           5.9442   -2.9540   24.5049 O.2     1  UNL1       -0.2526
     16 N           6.3208   -3.7405   22.0575 N.am    1  UNL1       -0.2901
     17 C           3.7856   -1.0902   23.5737 C.3     1  UNL1        0.0985
     18 C           2.7064   -0.1583   23.1081 C.3     1  UNL1        0.0620
     19 O           1.6271    0.7736   22.6425 O.3     1  UNL1       -0.4819
     20 H           6.0902   -3.6928   21.1016 H       1  UNL1        0.1509
     21 C           7.4001   -4.6724   22.5231 C.3     1  UNL1        0.0774
     22 C           8.6761   -5.4163   22.2614 C.3     1  UNL1        0.0259
     23 C           7.9935   -5.5426   23.5911 C.3     1  UNL1        0.0420
     24 C           7.9420   -6.1180   24.9754 C.ar    1  UNL1       -0.0208
     25 C           7.9619   -7.6051   25.1708 C.ar    1  UNL1       -0.0042
     26 C           7.9103   -8.1804   26.5550 C.ar    1  UNL1       -0.0003
     27 C           7.8389   -7.2686   27.7440 C.ar    1  UNL1       -0.0000
     28 C           7.8190   -5.7815   27.5487 C.ar    1  UNL1       -0.0003
     29 C           7.8705   -5.2062   26.1643 C.ar    1  UNL1       -0.0042
     30 N          -2.6899    4.5011   20.7802 N.pl3   1  UNL1       -0.2981
     31 H          -2.6856    5.4425   21.0685 H       1  UNL1        0.1536
     32 C          -2.5587    4.3575   17.5226 C.3     1  UNL1        0.1552
     33 N          -3.7155    3.9327   18.3780 N.ar    1  UNL1       -0.2356
     34 N          -5.0149    3.3674   17.8863 N.ar    1  UNL1       -0.1665
     35 C          -5.8783    3.0841   19.0797 C.ar    1  UNL1        0.1230
     36 C          -5.1125    3.4743   20.3090 C.ar    1  UNL1        0.0565
     37 C          -3.7758    3.9988   19.8754 C.ar    1  UNL1        0.1307
@<TRIPOS>BOND
     1    32    33    1
     2    33    34   ar
     3    34    35   ar
     4    35    36   ar
     5    36    37   ar
     6    37    30    1
     7    30     1    1
     8     1     2   ar
     9     2     3   ar
    10     3     4   ar
    11     4     5   ar
    12     5     6   ar
    13     5     7    1
    14     7     8    2
    15     7     9    1
    16     9    10    1
    17    10    11    1
    18    11    12    1
    19    12    13    1
    20    13    14   am
    21    14    15    2
    22    14    16   am
    23    21    16    1
    24    21    22    1
    25    22    23    1
    26    23    24    1
    27    24    25   ar
    28    25    26   ar
    29    26    27   ar
    30    27    28   ar
    31    28    29   ar
    32    13    17    1
    33    17    18    1
    34    10    19    1
    35    37    33   ar
    36     6     1   ar
    37    18    10    1
    38    19     4    1
    39    23    21    1
    40    29    24   ar
    41    30    31    1
    42    16    20    1
