@<TRIPOS>MOLECULE
*****
 33 35 0 0 0
SMALL
GASTEIGER

@<TRIPOS>ATOM
      1 C         -11.8950   -6.0819   18.2911 C.ar    1  UNL1        0.0528
      2 C         -12.3185   -4.7001   17.8894 C.ar    1  UNL1        0.0167
      3 C         -11.3932   -3.5396   18.1057 C.ar    1  UNL1        0.0506
      4 C         -10.0444   -3.7608   18.7236 C.ar    1  UNL1        0.0170
      5 C          -9.6209   -5.1425   19.1252 C.ar    1  UNL1        0.0307
      6 C         -10.5462   -6.3031   18.9090 C.ar    1  UNL1        0.1402
      7 F         -10.1228   -7.6849   19.3106 F       1  UNL1       -0.2044
      8 C         -11.6672   -7.6648   17.2134 C.3     1  UNL1        0.0607
      9 C         -12.8204   -7.2425   18.0748 C.3     1  UNL1        0.2223
     10 C         -13.6522   -6.4172   19.0113 C.3     1  UNL1        0.1959
     11 O         -15.0088   -6.8992   19.4323 O.3     1  UNL1       -0.3357
     12 C         -15.5336   -8.2065   18.9169 C.3     1  UNL1        0.2740
     13 C         -16.4589   -9.3671   18.7006 C.3     1  UNL1        0.0512
     14 C         -14.7018   -9.0318   17.9805 C.2     1  UNL1        0.3217
     15 N         -15.2266  -10.3391   17.4651 N.pl3   1  UNL1       -0.2480
     16 N         -13.3452   -8.5498   17.5594 N.2     1  UNL1       -0.0692
     17 H         -16.1170  -10.6554   17.7414 H       1  UNL1        0.2882
     18 H         -14.6807  -10.8807   16.8504 H       1  UNL1        0.2882
     19 C         -16.6868   -7.7842   19.7783 C.3     1  UNL1        0.4305
     20 F         -17.8400   -7.3620   20.6397 F       1  UNL1       -0.1670
     21 F         -16.9059   -6.5889   18.8990 F       1  UNL1       -0.1670
     22 F         -16.4676   -8.9796   20.6575 F       1  UNL1       -0.1670
     23 N         -11.8167   -2.1577   17.7040 N.am    1  UNL1       -0.2779
     24 C         -12.8516   -1.4272   18.5074 C.2     1  UNL1        0.2855
     25 O         -13.4630   -2.0786   19.7124 O.2     1  UNL1       -0.2664
     26 H         -11.4153   -1.7302   16.9132 H       1  UNL1        0.1553
     27 C         -13.2750   -0.0454   18.1058 C.ar    1  UNL1        0.2173
     28 N         -14.5555    0.5299   18.6344 N.ar    1  UNL1       -0.2207
     29 C         -14.9790    1.9118   18.2327 C.ar    1  UNL1        0.1089
     30 C         -14.1219    2.7182   17.3026 C.ar    1  UNL1        0.0729
     31 BR        -14.5454    4.1000   16.9010 Br      1  UNL1       -0.0458
     32 C         -12.8415    2.1428   16.7741 C.ar    1  UNL1        0.1089
     33 N         -12.4180    0.7611   17.1756 N.ar    1  UNL1       -0.2207
@<TRIPOS>BOND
     1     9     8    1
     2     9     1    1
     3     1     2   ar
     4     2     3   ar
     5     3    23    1
     6    23    24   am
     7    24    25    2
     8    24    27    1
     9    27    28   ar
    10    28    29   ar
    11    29    30   ar
    12    30    31    1
    13    30    32   ar
    14    32    33   ar
    15     3     4   ar
    16     4     5   ar
    17     5     6   ar
    18     6     7    1
    19     9    10    1
    20    10    11    1
    21    11    12    1
    22    12    13    1
    23    12    19    1
    24    19    20    1
    25    19    21    1
    26    19    22    1
    27    12    14    1
    28    14    15    1
    29    14    16    2
    30    16     9    1
    31     6     1   ar
    32    33    27   ar
    33    23    26    1
    34    15    17    1
    35    15    18    1
@<TRIPOS>MOLECULE
*****
 33 35 0 0 0
SMALL
GASTEIGER

@<TRIPOS>ATOM
      1 C           3.2234    0.7658   18.4618 C.ar    1  UNL1        0.0528
      2 C           1.7737    1.1477   18.5106 C.ar    1  UNL1        0.0167
      3 C           1.3766    2.5930   18.4537 C.ar    1  UNL1        0.0506
      4 C           2.4292    3.6565   18.3480 C.ar    1  UNL1        0.0170
      5 C           3.8790    3.2745   18.2992 C.ar    1  UNL1        0.0307
      6 C           4.2761    1.8292   18.3561 C.ar    1  UNL1        0.1402
      7 F           5.7258    1.4472   18.3072 F       1  UNL1       -0.2044
      8 C           3.5179   -0.4959   17.0334 C.3     1  UNL1        0.0607
      9 C           3.6206   -0.6796   18.5186 C.3     1  UNL1        0.2223
     10 C           3.5854   -0.3613   19.9840 C.3     1  UNL1        0.1959
     11 O           3.9116   -1.4246   20.9905 O.3     1  UNL1       -0.3357
     12 C           4.2731   -2.8062   20.5315 C.3     1  UNL1        0.2740
     13 C           4.6702   -4.2515   20.5884 C.3     1  UNL1        0.0512
     14 C           4.3083   -3.1245   19.0662 C.2     1  UNL1        0.3217
     15 N           4.6699   -4.5060   18.6072 N.pl3   1  UNL1       -0.2480
     16 N           3.9821   -2.0612   18.0597 N.2     1  UNL1       -0.0692
     17 H           4.8840   -5.2039   19.2678 H       1  UNL1        0.2882
     18 H           4.6930   -4.7149   17.6454 H       1  UNL1        0.2882
     19 C           4.3758   -2.9899   22.0168 C.3     1  UNL1        0.4305
     20 F           4.4785   -3.1736   23.5020 F       1  UNL1       -0.1670
     21 F           3.2324   -2.0390   22.2134 F       1  UNL1       -0.1670
     22 F           5.5191   -3.9407   21.8200 F       1  UNL1       -0.1670
     23 N          -0.0731    2.9750   18.5026 N.am    1  UNL1       -0.2779
     24 C          -0.7755    3.0857   19.8234 C.2     1  UNL1        0.2855
     25 O          -0.0280    2.8143   21.0953 O.2     1  UNL1       -0.2664
     26 H          -0.5637    3.1531   17.6678 H       1  UNL1        0.1553
     27 C          -2.2252    3.4676   19.8722 C.ar    1  UNL1        0.2173
     28 N          -3.1298    2.8484   20.8960 N.ar    1  UNL1       -0.2207
     29 C          -4.5796    3.2304   20.9449 C.ar    1  UNL1        0.1089
     30 C          -5.1246    4.2316   19.9700 C.ar    1  UNL1        0.0729
     31 BR         -6.5743    4.6136   20.0189 Br      1  UNL1       -0.0458
     32 C          -4.2200    4.8508   18.9462 C.ar    1  UNL1        0.1089
     33 N          -2.7703    4.4689   18.8973 N.ar    1  UNL1       -0.2207
@<TRIPOS>BOND
     1     9     8    1
     2     9     1    1
     3     1     2   ar
     4     2     3   ar
     5     3    23    1
     6    23    24   am
     7    24    25    2
     8    24    27    1
     9    27    28   ar
    10    28    29   ar
    11    29    30   ar
    12    30    31    1
    13    30    32   ar
    14    32    33   ar
    15     3     4   ar
    16     4     5   ar
    17     5     6   ar
    18     6     7    1
    19     9    10    1
    20    10    11    1
    21    11    12    1
    22    12    13    1
    23    12    19    1
    24    19    20    1
    25    19    21    1
    26    19    22    1
    27    12    14    1
    28    14    15    1
    29    14    16    2
    30    16     9    1
    31     6     1   ar
    32    33    27   ar
    33    23    26    1
    34    15    17    1
    35    15    18    1
@<TRIPOS>MOLECULE
*****
 33 35 0 0 0
SMALL
GASTEIGER

@<TRIPOS>ATOM
      1 C           7.1374   -4.0669   23.3159 C.ar    1  UNL1        0.0528
      2 C           6.5481   -3.6712   24.6373 C.ar    1  UNL1        0.0167
      3 C           6.8349   -4.4892   25.8614 C.ar    1  UNL1        0.0506
      4 C           7.7109   -5.7029   25.7642 C.ar    1  UNL1        0.0170
      5 C           8.3002   -6.0986   24.4428 C.ar    1  UNL1        0.0307
      6 C           8.0134   -5.2806   23.2186 C.ar    1  UNL1        0.1402
      7 F           8.6027   -5.6763   21.8971 F       1  UNL1       -0.2044
      8 C           8.0433   -2.5113   22.6243 C.3     1  UNL1        0.0607
      9 C           6.8507   -3.2488   22.0917 C.3     1  UNL1        0.2223
     10 C           5.7576   -4.2704   21.9842 C.3     1  UNL1        0.1959
     11 O           4.7920   -4.2179   20.8375 O.3     1  UNL1       -0.3357
     12 C           4.9195   -3.1437   19.7983 C.3     1  UNL1        0.2740
     13 C           4.6328   -2.3256   18.5742 C.3     1  UNL1        0.0512
     14 C           6.0125   -2.1221   19.9058 C.2     1  UNL1        0.3217
     15 N           6.1400   -1.0479   18.8666 N.pl3   1  UNL1       -0.2480
     16 N           6.9781   -2.1747   21.0524 N.2     1  UNL1       -0.0692
     17 H           5.5063   -1.0134   18.1140 H       1  UNL1        0.2882
     18 H           6.8575   -0.3774   18.9371 H       1  UNL1        0.2882
     19 C           3.7268   -3.8812   19.2657 C.3     1  UNL1        0.4305
     20 F           2.5342   -4.6187   18.7330 F       1  UNL1       -0.1670
     21 F           2.8388   -2.7466   19.6832 F       1  UNL1       -0.1670
     22 F           4.6149   -5.0157   18.8482 F       1  UNL1       -0.1670
     23 N           6.2456   -4.0936   27.1829 N.am    1  UNL1       -0.2779
     24 C           7.0812   -3.3539   28.1853 C.2     1  UNL1        0.2855
     25 O           8.5059   -3.0099   27.8662 O.2     1  UNL1       -0.2664
     26 H           5.3105   -4.3193   27.3923 H       1  UNL1        0.1553
     27 C           6.4920   -2.9582   29.5068 C.ar    1  UNL1        0.2173
     28 N           6.7250   -3.8122   30.7177 N.ar    1  UNL1       -0.2207
     29 C           6.1358   -3.4164   32.0392 C.ar    1  UNL1        0.1089
     30 C           5.3135   -2.1668   32.1497 C.ar    1  UNL1        0.0729
     31 BR          4.7243   -1.7711   33.4711 Br      1  UNL1       -0.0458
     32 C           5.0804   -1.3128   30.9387 C.ar    1  UNL1        0.1089
     33 N           5.6696   -1.7085   29.6173 N.ar    1  UNL1       -0.2207
@<TRIPOS>BOND
     1     9     8    1
     2     9     1    1
     3     1     2   ar
     4     2     3   ar
     5     3    23    1
     6    23    24   am
     7    24    25    2
     8    24    27    1
     9    27    28   ar
    10    28    29   ar
    11    29    30   ar
    12    30    31    1
    13    30    32   ar
    14    32    33   ar
    15     3     4   ar
    16     4     5   ar
    17     5     6   ar
    18     6     7    1
    19     9    10    1
    20    10    11    1
    21    11    12    1
    22    12    13    1
    23    12    19    1
    24    19    20    1
    25    19    21    1
    26    19    22    1
    27    12    14    1
    28    14    15    1
    29    14    16    2
    30    16     9    1
    31     6     1   ar
    32    33    27   ar
    33    23    26    1
    34    15    17    1
    35    15    18    1
@<TRIPOS>MOLECULE
*****
 33 35 0 0 0
SMALL
GASTEIGER

@<TRIPOS>ATOM
      1 C           2.1264    0.6102   20.4702 C.ar    1  UNL1        0.0528
      2 C           0.7066    0.9099   20.8501 C.ar    1  UNL1        0.0167
      3 C          -0.0367    2.0157   20.1611 C.ar    1  UNL1        0.0506
      4 C           0.6398    2.8217   19.0921 C.ar    1  UNL1        0.0170
      5 C           2.0596    2.5220   18.7122 C.ar    1  UNL1        0.0307
      6 C           2.8029    1.4162   19.4012 C.ar    1  UNL1        0.1402
      7 F           4.2227    1.1165   19.0213 F       1  UNL1       -0.2044
      8 C           2.6658    0.4401   22.3137 C.3     1  UNL1        0.0607
      9 C           2.8697   -0.4956   21.1592 C.3     1  UNL1        0.2223
     10 C           2.8155   -1.0472   19.7654 C.3     1  UNL1        0.1959
     11 O           3.4338   -2.3797   19.4616 O.3     1  UNL1       -0.3357
     12 C           4.1063   -3.1605   20.5516 C.3     1  UNL1        0.2740
     13 C           4.8496   -4.2662   21.2406 C.3     1  UNL1        0.0512
     14 C           4.1605   -2.6089   21.9454 C.2     1  UNL1        0.3217
     15 N           4.8331   -3.3897   23.0354 N.pl3   1  UNL1       -0.2480
     16 N           3.5423   -1.2764   22.2492 N.2     1  UNL1       -0.0692
     17 H           5.2389   -4.2642   22.8360 H       1  UNL1        0.2882
     18 H           4.8687   -3.0276   23.9502 H       1  UNL1        0.2882
     19 C           4.3102   -4.0962   19.3970 C.3     1  UNL1        0.4305
     20 F           4.5141   -5.0319   18.2425 F       1  UNL1       -0.1670
     21 F           2.8250   -4.2649   19.2714 F       1  UNL1       -0.1670
     22 F           5.7953   -3.9275   19.5227 F       1  UNL1       -0.1670
     23 N          -1.4565    2.3154   20.5410 N.am    1  UNL1       -0.2779
     24 C          -1.7477    3.2725   21.6587 C.2     1  UNL1        0.2855
     25 O          -0.6191    3.9298   22.3964 O.2     1  UNL1       -0.2664
     26 H          -2.1972    1.8840   20.0568 H       1  UNL1        0.1553
     27 C          -3.1675    3.5723   22.0386 C.ar    1  UNL1        0.2173
     28 N          -4.2276    3.6460   20.9800 N.ar    1  UNL1       -0.2207
     29 C          -5.6474    3.9458   21.3600 C.ar    1  UNL1        0.1089
     30 C          -6.0070    4.1719   22.7986 C.ar    1  UNL1        0.0729
     31 BR         -7.4268    4.4717   23.1785 Br      1  UNL1       -0.0458
     32 C          -4.9469    4.0982   23.8572 C.ar    1  UNL1        0.1089
     33 N          -3.5271    3.7984   23.4773 N.ar    1  UNL1       -0.2207
@<TRIPOS>BOND
     1     9     8    1
     2     9     1    1
     3     1     2   ar
     4     2     3   ar
     5     3    23    1
     6    23    24   am
     7    24    25    2
     8    24    27    1
     9    27    28   ar
    10    28    29   ar
    11    29    30   ar
    12    30    31    1
    13    30    32   ar
    14    32    33   ar
    15     3     4   ar
    16     4     5   ar
    17     5     6   ar
    18     6     7    1
    19     9    10    1
    20    10    11    1
    21    11    12    1
    22    12    13    1
    23    12    19    1
    24    19    20    1
    25    19    21    1
    26    19    22    1
    27    12    14    1
    28    14    15    1
    29    14    16    2
    30    16     9    1
    31     6     1   ar
    32    33    27   ar
    33    23    26    1
    34    15    17    1
    35    15    18    1
@<TRIPOS>MOLECULE
*****
 33 35 0 0 0
SMALL
GASTEIGER

@<TRIPOS>ATOM
      1 C           6.9867   -3.8496   23.5638 C.ar    1  UNL1        0.0528
      2 C           6.3872   -2.9683   24.6191 C.ar    1  UNL1        0.0167
      3 C           6.3596   -3.4223   26.0485 C.ar    1  UNL1        0.0506
      4 C           6.9317   -4.7575   26.4224 C.ar    1  UNL1        0.0170
      5 C           7.5313   -5.6388   25.3671 C.ar    1  UNL1        0.0307
      6 C           7.5588   -5.1848   23.9377 C.ar    1  UNL1        0.1402
      7 F           8.1584   -6.0661   22.8823 F       1  UNL1       -0.2044
      8 C           8.3304   -2.8518   22.6058 C.3     1  UNL1        0.0607
      9 C           7.0143   -3.3956   22.1343 C.3     1  UNL1        0.2223
     10 C           5.6887   -4.0970   22.1593 C.3     1  UNL1        0.1959
     11 O           4.8477   -4.1557   20.9186 O.3     1  UNL1       -0.3357
     12 C           5.3324   -3.5128   19.6529 C.3     1  UNL1        0.2740
     13 C           5.3600   -3.0589   18.2236 C.3     1  UNL1        0.0512
     14 C           6.6580   -2.8114   19.6280 C.2     1  UNL1        0.3217
     15 N           7.1426   -2.1685   18.3623 N.pl3   1  UNL1       -0.2480
     16 N           7.4990   -2.7527   20.8686 N.2     1  UNL1       -0.0692
     17 H           6.5906   -2.2070   17.5480 H       1  UNL1        0.2882
     18 H           8.0127   -1.7081   18.3459 H       1  UNL1        0.2882
     19 C           4.0163   -4.0567   19.1815 C.3     1  UNL1        0.4305
     20 F           2.7002   -4.6005   18.7100 F       1  UNL1       -0.1670
     21 F           4.7319   -5.1507   18.4459 F       1  UNL1       -0.1670
     22 F           3.3008   -2.9627   19.9171 F       1  UNL1       -0.1670
     23 N           5.7600   -2.5410   27.1039 N.am    1  UNL1       -0.2779
     24 C           4.5568   -1.7034   26.7868 C.2     1  UNL1        0.2855
     25 O           3.9531   -1.7470   25.4143 O.2     1  UNL1       -0.2664
     26 H           6.1562   -2.5124   28.0047 H       1  UNL1        0.1553
     27 C           3.9572   -0.8221   27.8422 C.ar    1  UNL1        0.2173
     28 N           2.5465   -1.0511   28.2980 N.ar    1  UNL1       -0.2207
     29 C           1.9470   -0.1698   29.3534 C.ar    1  UNL1        0.1089
     30 C           2.7580    0.9404   29.9530 C.ar    1  UNL1        0.0729
     31 BR          2.1584    1.8216   31.0084 Br      1  UNL1       -0.0458
     32 C           4.1686    1.1694   29.4972 C.ar    1  UNL1        0.1089
     33 N           4.7682    0.2882   28.4419 N.ar    1  UNL1       -0.2207
@<TRIPOS>BOND
     1     9     8    1
     2     9     1    1
     3     1     2   ar
     4     2     3   ar
     5     3    23    1
     6    23    24   am
     7    24    25    2
     8    24    27    1
     9    27    28   ar
    10    28    29   ar
    11    29    30   ar
    12    30    31    1
    13    30    32   ar
    14    32    33   ar
    15     3     4   ar
    16     4     5   ar
    17     5     6   ar
    18     6     7    1
    19     9    10    1
    20    10    11    1
    21    11    12    1
    22    12    13    1
    23    12    19    1
    24    19    20    1
    25    19    21    1
    26    19    22    1
    27    12    14    1
    28    14    15    1
    29    14    16    2
    30    16     9    1
    31     6     1   ar
    32    33    27   ar
    33    23    26    1
    34    15    17    1
    35    15    18    1
@<TRIPOS>MOLECULE
*****
 33 35 0 0 0
SMALL
GASTEIGER

@<TRIPOS>ATOM
      1 C           2.8561    0.6676   21.2528 C.ar    1  UNL1        0.0528
      2 C           1.4516    0.9616   20.8161 C.ar    1  UNL1        0.0167
      3 C           0.4854    1.5940   21.7735 C.ar    1  UNL1        0.0506
      4 C           0.9238    1.9323   23.1675 C.ar    1  UNL1        0.0170
      5 C           2.3284    1.6383   23.6042 C.ar    1  UNL1        0.0307
      6 C           3.2945    1.0059   22.6468 C.ar    1  UNL1        0.1402
      7 F           4.6991    0.7118   23.0835 F       1  UNL1       -0.2044
      8 C           4.2096    1.4762   20.1424 C.3     1  UNL1        0.0607
      9 C           3.8224    0.0351   20.2954 C.3     1  UNL1        0.2223
     10 C           3.0996   -1.1863   20.7808 C.3     1  UNL1        0.1959
     11 O           3.4775   -2.5396   20.2558 O.3     1  UNL1       -0.3357
     12 C           4.5782   -2.6715   19.2453 C.3     1  UNL1        0.2740
     13 C           5.5444   -3.3038   18.2880 C.3     1  UNL1        0.0512
     14 C           5.3010   -1.4501   18.7599 C.2     1  UNL1        0.3217
     15 N           6.4017   -1.5820   17.7494 N.pl3   1  UNL1       -0.2480
     16 N           4.9231   -0.0967   19.2849 N.2     1  UNL1       -0.0692
     17 H           6.6498   -2.4702   17.4048 H       1  UNL1        0.2882
     18 H           6.8761   -0.7803   17.4308 H       1  UNL1        0.2882
     19 C           4.1910   -4.1126   19.3983 C.3     1  UNL1        0.4305
     20 F           3.8038   -5.5537   19.5513 F       1  UNL1       -0.1670
     21 F           2.7997   -3.7872   18.9418 F       1  UNL1       -0.1670
     22 F           5.5823   -4.4379   19.8549 F       1  UNL1       -0.1670
     23 N          -0.9192    1.8881   21.3368 N.am    1  UNL1       -0.2779
     24 C          -1.2014    3.0797   20.4706 C.2     1  UNL1        0.2855
     25 O          -0.0789    3.9773   20.0410 O.2     1  UNL1       -0.2664
     26 H          -1.6559    1.2989   21.6187 H       1  UNL1        0.1553
     27 C          -2.6059    3.3738   20.0339 C.ar    1  UNL1        0.2173
     28 N          -3.7611    2.9714   20.9021 N.ar    1  UNL1       -0.2207
     29 C          -5.1657    3.2655   20.4654 C.ar    1  UNL1        0.1089
     30 C          -5.4151    3.9620   19.1606 C.ar    1  UNL1        0.0729
     31 BR         -6.8196    4.2561   18.7239 Br      1  UNL1       -0.0458
     32 C          -4.2600    4.3645   18.2924 C.ar    1  UNL1        0.1089
     33 N          -2.8554    4.0704   18.7291 N.ar    1  UNL1       -0.2207
@<TRIPOS>BOND
     1     9     8    1
     2     9     1    1
     3     1     2   ar
     4     2     3   ar
     5     3    23    1
     6    23    24   am
     7    24    25    2
     8    24    27    1
     9    27    28   ar
    10    28    29   ar
    11    29    30   ar
    12    30    31    1
    13    30    32   ar
    14    32    33   ar
    15     3     4   ar
    16     4     5   ar
    17     5     6   ar
    18     6     7    1
    19     9    10    1
    20    10    11    1
    21    11    12    1
    22    12    13    1
    23    12    19    1
    24    19    20    1
    25    19    21    1
    26    19    22    1
    27    12    14    1
    28    14    15    1
    29    14    16    2
    30    16     9    1
    31     6     1   ar
    32    33    27   ar
    33    23    26    1
    34    15    17    1
    35    15    18    1
@<TRIPOS>MOLECULE
*****
 33 35 0 0 0
SMALL
GASTEIGER

@<TRIPOS>ATOM
      1 C           7.8945   -4.6889   28.2894 C.ar    1  UNL1        0.0528
      2 C           7.2893   -4.1738   27.0172 C.ar    1  UNL1        0.0167
      3 C           6.9604   -5.1244   25.9045 C.ar    1  UNL1        0.0506
      4 C           7.2368   -6.5901   26.0639 C.ar    1  UNL1        0.0170
      5 C           7.8420   -7.1051   27.3361 C.ar    1  UNL1        0.0307
      6 C           8.1709   -6.1545   28.4488 C.ar    1  UNL1        0.1402
      7 F           8.7761   -6.6696   29.7210 F       1  UNL1       -0.2044
      8 C           9.4957   -3.6635   28.6112 C.3     1  UNL1        0.0607
      9 C           8.2233   -3.7382   29.4022 C.3     1  UNL1        0.2223
     10 C           6.8368   -4.1431   29.8066 C.3     1  UNL1        0.1959
     11 O           6.2210   -3.5714   31.0492 O.3     1  UNL1       -0.3357
     12 C           6.9918   -2.5948   31.8873 C.3     1  UNL1        0.2740
     13 C           7.3206   -1.6442   33.0000 C.3     1  UNL1        0.0512
     14 C           8.3783   -2.1900   31.4828 C.2     1  UNL1        0.3217
     15 N           9.1490   -1.2134   32.3208 N.pl3   1  UNL1       -0.2480
     16 N           8.9941   -2.7617   30.2402 N.2     1  UNL1       -0.0692
     17 H           8.7449   -0.8382   33.1364 H       1  UNL1        0.2882
     18 H          10.0591   -0.9477   32.0554 H       1  UNL1        0.2882
     19 C           5.7194   -2.6695   32.6782 C.3     1  UNL1        0.4305
     20 F           4.4471   -2.7442   33.4692 F       1  UNL1       -0.1670
     21 F           5.4948   -1.2032   32.4555 F       1  UNL1       -0.1670
     22 F           5.9440   -4.1357   32.9010 F       1  UNL1       -0.1670
     23 N           6.3552   -4.6094   24.6323 N.am    1  UNL1       -0.2779
     24 C           7.2158   -4.4072   23.4204 C.2     1  UNL1        0.2855
     25 O           8.6816   -4.7201   23.4808 O.2     1  UNL1       -0.2664
     26 H           5.3932   -4.4040   24.5927 H       1  UNL1        0.1553
     27 C           6.6106   -3.8922   22.1483 C.ar    1  UNL1        0.2173
     28 N           7.4508   -3.1144   21.1792 N.ar    1  UNL1       -0.2207
     29 C           6.8455   -2.5994   19.9069 C.ar    1  UNL1        0.1089
     30 C           5.4002   -2.8622   19.6038 C.ar    1  UNL1        0.0729
     31 BR          4.7950   -2.3472   18.3317 Br      1  UNL1       -0.0458
     32 C           4.5600   -3.6400   20.5730 C.ar    1  UNL1        0.1089
     33 N           5.1652   -4.1550   21.8451 N.ar    1  UNL1       -0.2207
@<TRIPOS>BOND
     1     9     8    1
     2     9     1    1
     3     1     2   ar
     4     2     3   ar
     5     3    23    1
     6    23    24   am
     7    24    25    2
     8    24    27    1
     9    27    28   ar
    10    28    29   ar
    11    29    30   ar
    12    30    31    1
    13    30    32   ar
    14    32    33   ar
    15     3     4   ar
    16     4     5   ar
    17     5     6   ar
    18     6     7    1
    19     9    10    1
    20    10    11    1
    21    11    12    1
    22    12    13    1
    23    12    19    1
    24    19    20    1
    25    19    21    1
    26    19    22    1
    27    12    14    1
    28    14    15    1
    29    14    16    2
    30    16     9    1
    31     6     1   ar
    32    33    27   ar
    33    23    26    1
    34    15    17    1
    35    15    18    1
@<TRIPOS>MOLECULE
*****
 33 35 0 0 0
SMALL
GASTEIGER

@<TRIPOS>ATOM
      1 C           2.8384    0.3046   21.8840 C.ar    1  UNL1        0.0528
      2 C           3.0214    0.0061   23.3425 C.ar    1  UNL1        0.0167
      3 C           1.9736    0.4245   24.3309 C.ar    1  UNL1        0.0506
      4 C           0.7428    1.1414   23.8609 C.ar    1  UNL1        0.0170
      5 C           0.5597    1.4399   22.4023 C.ar    1  UNL1        0.0307
      6 C           1.6075    1.0215   21.4139 C.ar    1  UNL1        0.1402
      7 F           1.4244    1.3201   19.9553 F       1  UNL1       -0.2044
      8 C           4.2409    1.3352   21.0536 C.3     1  UNL1        0.0607
      9 C           3.8862   -0.1137   20.8955 C.3     1  UNL1        0.2223
     10 C           3.1676   -1.4172   21.0806 C.3     1  UNL1        0.1959
     11 O           3.6199   -2.6359   20.3322 O.3     1  UNL1       -0.3357
     12 C           4.7910   -2.5511   19.3986 C.3     1  UNL1        0.2740
     13 C           5.8388   -2.9694   18.4102 C.3     1  UNL1        0.0512
     14 C           5.5096   -1.2476   19.2135 C.2     1  UNL1        0.3217
     15 N           6.6806   -1.1627   18.2799 N.pl3   1  UNL1       -0.2480
     16 N           5.0572   -0.0288   19.9619 N.2     1  UNL1       -0.0692
     17 H           6.9775   -1.9626   17.7887 H       1  UNL1        0.2882
     18 H           7.1523   -0.3071   18.1584 H       1  UNL1        0.2882
     19 C           4.4362   -4.0000   19.2405 C.3     1  UNL1        0.4305
     20 F           4.0815   -5.4488   19.0824 F       1  UNL1       -0.1670
     21 F           5.8009   -4.3873   19.7282 F       1  UNL1       -0.1670
     22 F           3.0717   -3.6126   18.7529 F       1  UNL1       -0.1670
     23 N           2.1567    0.1259   25.7895 N.am    1  UNL1       -0.2779
     24 C           2.8758    1.1039   26.6707 C.2     1  UNL1        0.2855
     25 O           3.4118    2.3804   26.0933 O.2     1  UNL1       -0.2664
     26 H           1.8049   -0.7118   26.1685 H       1  UNL1        0.1553
     27 C           3.0588    0.8055   28.1293 C.ar    1  UNL1        0.2173
     28 N           4.0086    1.6271   28.9495 N.ar    1  UNL1       -0.2207
     29 C           4.1917    1.3286   30.4081 C.ar    1  UNL1        0.1089
     30 C           3.4250    0.2085   31.0464 C.ar    1  UNL1        0.0729
     31 BR          3.6080   -0.0900   32.5049 Br      1  UNL1       -0.0458
     32 C           2.4752   -0.6132   30.2262 C.ar    1  UNL1        0.1089
     33 N           2.2921   -0.3147   28.7676 N.ar    1  UNL1       -0.2207
@<TRIPOS>BOND
     1     9     8    1
     2     9     1    1
     3     1     2   ar
     4     2     3   ar
     5     3    23    1
     6    23    24   am
     7    24    25    2
     8    24    27    1
     9    27    28   ar
    10    28    29   ar
    11    29    30   ar
    12    30    31    1
    13    30    32   ar
    14    32    33   ar
    15     3     4   ar
    16     4     5   ar
    17     5     6   ar
    18     6     7    1
    19     9    10    1
    20    10    11    1
    21    11    12    1
    22    12    13    1
    23    12    19    1
    24    19    20    1
    25    19    21    1
    26    19    22    1
    27    12    14    1
    28    14    15    1
    29    14    16    2
    30    16     9    1
    31     6     1   ar
    32    33    27   ar
    33    23    26    1
    34    15    17    1
    35    15    18    1
@<TRIPOS>MOLECULE
*****
 33 35 0 0 0
SMALL
GASTEIGER

@<TRIPOS>ATOM
      1 C           2.1746    0.5038   20.3601 C.ar    1  UNL1        0.0528
      2 C           2.0537    0.5187   21.8551 C.ar    1  UNL1        0.0167
      3 C           0.8792    1.1871   22.5059 C.ar    1  UNL1        0.0506
      4 C          -0.1745    1.8406   21.6617 C.ar    1  UNL1        0.0170
      5 C          -0.0537    1.8256   20.1666 C.ar    1  UNL1        0.0307
      6 C           1.1209    1.1572   19.5159 C.ar    1  UNL1        0.1402
      7 F           1.2418    1.1422   18.0208 F       1  UNL1       -0.2044
      8 C           3.7196    1.2739   19.5007 C.3     1  UNL1        0.0607
      9 C           3.3492   -0.1647   19.7092 C.3     1  UNL1        0.2223
     10 C           2.5708   -1.3710   20.1437 C.3     1  UNL1        0.1959
     11 O           3.0957   -2.7462   19.8549 O.3     1  UNL1       -0.3357
     12 C           4.3989   -2.9150   19.1317 C.3     1  UNL1        0.2740
     13 C           5.5735   -3.5834   18.4808 C.3     1  UNL1        0.0512
     14 C           5.1773   -1.7087   18.6972 C.2     1  UNL1        0.3217
     15 N           6.4805   -1.8775   17.9739 N.pl3   1  UNL1       -0.2480
     16 N           4.6524   -0.3335   18.9859 N.2     1  UNL1       -0.0692
     17 H           6.8250   -2.7801   17.7844 H       1  UNL1        0.2882
     18 H           6.9914   -1.0857   17.6888 H       1  UNL1        0.2882
     19 C           4.0285   -4.3536   19.3401 C.3     1  UNL1        0.4305
     20 F           3.6580   -5.7921   19.5486 F       1  UNL1       -0.1670
     21 F           5.3754   -4.6124   19.9475 F       1  UNL1       -0.1670
     22 F           2.6816   -4.0947   18.7328 F       1  UNL1       -0.1670
     23 N           0.7583    1.2021   24.0010 N.am    1  UNL1       -0.2779
     24 C           1.3762    2.3166   24.7922 C.2     1  UNL1        0.2855
     25 O           2.1151    3.4161   24.0884 O.2     1  UNL1       -0.2664
     26 H           0.2733    0.4805   24.4629 H       1  UNL1        0.1553
     27 C           1.2553    2.3317   26.2873 C.ar    1  UNL1        0.2173
     28 N           0.6182    3.5017   26.9765 N.ar    1  UNL1       -0.2207
     29 C           0.4974    3.5167   28.4716 C.ar    1  UNL1        0.1089
     30 C           1.0136    2.3617   29.2774 C.ar    1  UNL1        0.0729
     31 BR          0.8927    2.3767   30.7724 Br      1  UNL1       -0.0458
     32 C           1.6507    1.1916   28.5881 C.ar    1  UNL1        0.1089
     33 N           1.7716    1.1766   27.0931 N.ar    1  UNL1       -0.2207
@<TRIPOS>BOND
     1     9     8    1
     2     9     1    1
     3     1     2   ar
     4     2     3   ar
     5     3    23    1
     6    23    24   am
     7    24    25    2
     8    24    27    1
     9    27    28   ar
    10    28    29   ar
    11    29    30   ar
    12    30    31    1
    13    30    32   ar
    14    32    33   ar
    15     3     4   ar
    16     4     5   ar
    17     5     6   ar
    18     6     7    1
    19     9    10    1
    20    10    11    1
    21    11    12    1
    22    12    13    1
    23    12    19    1
    24    19    20    1
    25    19    21    1
    26    19    22    1
    27    12    14    1
    28    14    15    1
    29    14    16    2
    30    16     9    1
    31     6     1   ar
    32    33    27   ar
    33    23    26    1
    34    15    17    1
    35    15    18    1
