@<TRIPOS>MOLECULE
*****
 33 36 0 0 0
SMALL
GASTEIGER

@<TRIPOS>ATOM
      1 C          -6.4467  -18.3904   22.1824 C.ar    1  UNL1        0.2019
      2 N          -7.8278  -17.8074   22.2332 N.ar    1  UNL1       -0.1961
      3 C          -8.8837  -18.2968   21.2869 C.ar    1  UNL1        0.1682
      4 C          -8.5585  -19.3692   20.2898 C.ar    1  UNL1        0.1125
      5 C          -9.7962  -19.6492   19.4899 C.ar    1  UNL1        0.1280
      6 N         -10.8863  -18.7499   19.9927 N.ar    1  UNL1       -0.1663
      7 N         -10.3224  -17.9140   21.1032 N.ar    1  UNL1       -0.2376
      8 C          -7.1774  -19.9522   20.2390 C.ar    1  UNL1        0.2676
      9 O          -6.8521  -21.0247   19.2419 O.2     1  UNL1       -0.2667
     10 N          -6.1215  -19.4628   21.1854 N.ar    1  UNL1       -0.2645
     11 C         -11.0665  -16.8774   21.8917 C.3     1  UNL1        0.0882
     12 C         -10.7202  -15.8445   20.8606 C.3     1  UNL1        0.0245
     13 C         -11.4128  -17.9103   22.9228 C.3     1  UNL1        0.0245
     14 C         -11.8106  -15.8408   22.6802 C.3     1  UNL1        0.0245
     15 N          -5.3908  -17.9009   23.1288 N.pl3   1  UNL1       -0.3021
     16 H          -4.7044  -18.5219   23.4644 H       1  UNL1        0.1498
     17 C          -4.4923  -15.4771   22.8681 C.3     1  UNL1        0.0262
     18 C          -5.3807  -16.4655   23.5637 C.3     1  UNL1        0.0943
     19 C          -6.2590  -16.0183   24.6944 C.ar    1  UNL1       -0.0045
     20 C          -5.6593  -15.7160   26.0358 C.ar    1  UNL1       -0.0018
     21 C          -6.5378  -15.2688   27.1664 C.ar    1  UNL1        0.0111
     22 C          -8.0157  -15.1238   26.9558 C.ar    1  UNL1        0.0577
     23 CL         -8.8942  -14.6766   28.0866 Cl      1  UNL1       -0.0822
     24 C          -8.6155  -15.4260   25.6146 C.ar    1  UNL1        0.0111
     25 C          -7.7371  -15.8732   24.4839 C.ar    1  UNL1       -0.0018
     26 C          -4.7403  -20.0458   21.1346 C.3     1  UNL1        0.1384
     27 C          -3.5696  -19.1723   20.7933 C.ar    1  UNL1        0.0007
     28 C          -3.5043  -18.4940   19.4570 C.ar    1  UNL1       -0.0001
     29 C          -2.3336  -17.6205   19.1157 C.ar    1  UNL1        0.0294
     30 C          -1.2282  -17.4253   20.1107 C.ar    1  UNL1        0.1401
     31 F          -0.0574  -16.5519   19.7694 F       1  UNL1       -0.2042
     32 C          -1.2935  -18.1037   21.4469 C.ar    1  UNL1        0.0294
     33 C          -2.4642  -18.9772   21.7882 C.ar    1  UNL1       -0.0001
@<TRIPOS>BOND
     1    18    17    1
     2    18    15    1
     3    15     1    1
     4     1     2   ar
     5     2     3   ar
     6     3     4   ar
     7     4     5   ar
     8     5     6   ar
     9     6     7   ar
    10     7    11    1
    11    11    12    1
    12    11    13    1
    13    11    14    1
    14     4     8   ar
    15     8     9    2
    16     8    10   ar
    17    10    26    1
    18    26    27    1
    19    27    28   ar
    20    28    29   ar
    21    29    30   ar
    22    30    31    1
    23    30    32   ar
    24    32    33   ar
    25    18    19    1
    26    19    20   ar
    27    20    21   ar
    28    21    22   ar
    29    22    23    1
    30    22    24   ar
    31    24    25   ar
    32    10     1   ar
    33    33    27   ar
    34    25    19   ar
    35     7     3   ar
    36    15    16    1
@<TRIPOS>MOLECULE
*****
 33 36 0 0 0
SMALL
GASTEIGER

@<TRIPOS>ATOM
      1 C          -7.8123  -18.1535   21.1379 C.ar    1  UNL1        0.2019
      2 N          -6.3567  -17.9515   21.4386 N.ar    1  UNL1       -0.1961
      3 C          -5.3488  -18.9637   20.9809 C.ar    1  UNL1        0.1682
      4 C          -5.7965  -20.1779   20.2223 C.ar    1  UNL1        0.1125
      5 C          -4.5821  -20.9980   19.9017 C.ar    1  UNL1        0.1280
      6 N          -3.3840  -20.2907   20.4621 N.ar    1  UNL1       -0.1663
      7 N          -3.8578  -19.0334   21.1290 N.ar    1  UNL1       -0.2376
      8 C          -7.2520  -20.3799   19.9216 C.ar    1  UNL1        0.2676
      9 O          -7.6998  -21.5941   19.1631 O.2     1  UNL1       -0.2667
     10 N          -8.2600  -19.3676   20.3794 N.ar    1  UNL1       -0.2645
     11 C          -2.9924  -18.0232   21.8224 C.3     1  UNL1        0.0882
     12 C          -2.3566  -17.6679   20.5111 C.3     1  UNL1        0.0245
     13 C          -3.6283  -18.3786   23.1337 C.3     1  UNL1        0.0245
     14 C          -2.1271  -17.0131   22.5158 C.3     1  UNL1        0.0245
     15 N          -8.8202  -17.1412   21.5957 N.pl3   1  UNL1       -0.3021
     16 H          -9.7819  -17.3452   21.5423 H       1  UNL1        0.1498
     17 C          -8.3337  -14.6138   21.2413 C.3     1  UNL1        0.0262
     18 C          -8.3628  -15.8183   22.1348 C.3     1  UNL1        0.0943
     19 C          -7.9344  -15.6999   23.5674 C.ar    1  UNL1       -0.0045
     20 C          -6.5067  -15.3814   23.8995 C.ar    1  UNL1       -0.0018
     21 C          -6.0784  -15.2630   25.3322 C.ar    1  UNL1        0.0111
     22 C          -7.0777  -15.4630   26.4327 C.ar    1  UNL1        0.0577
     23 CL         -6.6494  -15.3445   27.8654 Cl      1  UNL1       -0.0822
     24 C          -8.5054  -15.7814   26.1007 C.ar    1  UNL1        0.0111
     25 C          -8.9338  -15.8999   24.6680 C.ar    1  UNL1       -0.0018
     26 C          -9.7156  -19.5696   20.0786 C.3     1  UNL1        0.1384
     27 C         -10.7558  -19.0716   21.0379 C.ar    1  UNL1        0.0007
     28 C         -10.7811  -19.5820   22.4481 C.ar    1  UNL1       -0.0001
     29 C         -11.8213  -19.0840   23.4074 C.ar    1  UNL1        0.0294
     30 C         -12.8361  -18.0757   22.9563 C.ar    1  UNL1        0.1401
     31 F         -13.8763  -17.5777   23.9155 F       1  UNL1       -0.2042
     32 C         -12.8108  -17.5654   21.5460 C.ar    1  UNL1        0.0294
     33 C         -11.7706  -18.0634   20.5868 C.ar    1  UNL1       -0.0001
@<TRIPOS>BOND
     1    18    17    1
     2    18    15    1
     3    15     1    1
     4     1     2   ar
     5     2     3   ar
     6     3     4   ar
     7     4     5   ar
     8     5     6   ar
     9     6     7   ar
    10     7    11    1
    11    11    12    1
    12    11    13    1
    13    11    14    1
    14     4     8   ar
    15     8     9    2
    16     8    10   ar
    17    10    26    1
    18    26    27    1
    19    27    28   ar
    20    28    29   ar
    21    29    30   ar
    22    30    31    1
    23    30    32   ar
    24    32    33   ar
    25    18    19    1
    26    19    20   ar
    27    20    21   ar
    28    21    22   ar
    29    22    23    1
    30    22    24   ar
    31    24    25   ar
    32    10     1   ar
    33    33    27   ar
    34    25    19   ar
    35     7     3   ar
    36    15    16    1
@<TRIPOS>MOLECULE
*****
 33 36 0 0 0
SMALL
GASTEIGER

@<TRIPOS>ATOM
      1 C          -6.9561  -17.9417   22.4088 C.ar    1  UNL1        0.2019
      2 N          -8.3205  -17.7857   21.8054 N.ar    1  UNL1       -0.1961
      3 C          -8.7289  -18.6415   20.6433 C.ar    1  UNL1        0.1682
      4 C          -7.7729  -19.6534   20.0845 C.ar    1  UNL1        0.1125
      5 C          -8.4509  -20.3504   18.9423 C.ar    1  UNL1        0.1280
      6 N          -9.8259  -19.7693   18.7952 N.ar    1  UNL1       -0.1663
      7 N          -9.9977  -18.7131   19.8464 N.ar    1  UNL1       -0.2376
      8 C          -6.4086  -19.8095   20.6879 C.ar    1  UNL1        0.2676
      9 O          -5.4526  -20.8214   20.1292 O.2     1  UNL1       -0.2667
     10 N          -6.0002  -18.9536   21.8501 N.ar    1  UNL1       -0.2645
     11 C         -11.2232  -17.8756   20.0628 C.3     1  UNL1        0.0882
     12 C         -10.5465  -16.7137   19.3979 C.3     1  UNL1        0.0245
     13 C         -11.8999  -19.0375   20.7277 C.3     1  UNL1        0.0245
     14 C         -12.4487  -17.0381   20.2792 C.3     1  UNL1        0.0245
     15 N          -6.5477  -17.0858   23.5711 N.pl3   1  UNL1       -0.3021
     16 H          -5.5947  -16.9023   23.7364 H       1  UNL1        0.1498
     17 C          -7.1980  -15.5349   25.5516 C.3     1  UNL1        0.0262
     18 C          -7.5914  -16.5095   24.4813 C.3     1  UNL1        0.0943
     19 C          -9.0287  -16.9078   24.3214 C.ar    1  UNL1       -0.0045
     20 C          -9.5196  -18.1973   24.9100 C.ar    1  UNL1       -0.0018
     21 C         -10.9569  -18.5955   24.7500 C.ar    1  UNL1        0.0111
     22 C         -11.9032  -17.7045   24.0015 C.ar    1  UNL1        0.0577
     23 CL        -13.3406  -18.1028   23.8415 Cl      1  UNL1       -0.0822
     24 C         -11.4123  -16.4151   23.4129 C.ar    1  UNL1        0.0111
     25 C          -9.9751  -16.0168   23.5728 C.ar    1  UNL1       -0.0018
     26 C          -4.6357  -19.1096   22.4536 C.3     1  UNL1        0.1384
     27 C          -3.4527  -18.4443   21.8150 C.ar    1  UNL1        0.0007
     28 C          -3.0381  -17.0707   22.2524 C.ar    1  UNL1       -0.0001
     29 C          -1.8550  -16.4055   21.6138 C.ar    1  UNL1        0.0294
     30 C          -1.0866  -17.1138   20.5378 C.ar    1  UNL1        0.1401
     31 F           0.0965  -16.4486   19.8991 F       1  UNL1       -0.2042
     32 C          -1.5012  -18.4874   20.1004 C.ar    1  UNL1        0.0294
     33 C          -2.6842  -19.1527   20.7390 C.ar    1  UNL1       -0.0001
@<TRIPOS>BOND
     1    18    17    1
     2    18    15    1
     3    15     1    1
     4     1     2   ar
     5     2     3   ar
     6     3     4   ar
     7     4     5   ar
     8     5     6   ar
     9     6     7   ar
    10     7    11    1
    11    11    12    1
    12    11    13    1
    13    11    14    1
    14     4     8   ar
    15     8     9    2
    16     8    10   ar
    17    10    26    1
    18    26    27    1
    19    27    28   ar
    20    28    29   ar
    21    29    30   ar
    22    30    31    1
    23    30    32   ar
    24    32    33   ar
    25    18    19    1
    26    19    20   ar
    27    20    21   ar
    28    21    22   ar
    29    22    23    1
    30    22    24   ar
    31    24    25   ar
    32    10     1   ar
    33    33    27   ar
    34    25    19   ar
    35     7     3   ar
    36    15    16    1
@<TRIPOS>MOLECULE
*****
 33 36 0 0 0
SMALL
GASTEIGER

@<TRIPOS>ATOM
      1 C          -7.2300  -18.4751   21.5616 C.ar    1  UNL1        0.2019
      2 N          -5.8104  -17.9947   21.6230 N.ar    1  UNL1       -0.1961
      3 C          -4.7129  -18.8188   21.0176 C.ar    1  UNL1        0.1682
      4 C          -5.0352  -20.1232   20.3508 C.ar    1  UNL1        0.1125
      5 C          -3.7526  -20.7151   19.8461 C.ar    1  UNL1        0.1280
      6 N          -2.6378  -19.7764   20.2008 N.ar    1  UNL1       -0.1663
      7 N          -3.2312  -18.6044   20.9249 N.ar    1  UNL1       -0.2376
      8 C          -6.4548  -20.6036   20.2895 C.ar    1  UNL1        0.2676
      9 O          -6.7771  -21.9081   19.6227 O.2     1  UNL1       -0.2667
     10 N          -7.5523  -19.7794   20.8949 N.ar    1  UNL1       -0.2645
     11 C          -2.4756  -17.4251   21.4619 C.3     1  UNL1        0.0882
     12 C          -2.8196  -17.8419   22.8612 C.3     1  UNL1        0.0245
     13 C          -2.1316  -17.0083   20.0627 C.3     1  UNL1        0.0245
     14 C          -1.7201  -16.2459   21.9989 C.3     1  UNL1        0.0245
     15 N          -8.3275  -17.6509   22.1671 N.pl3   1  UNL1       -0.3021
     16 H          -9.2165  -18.0472   22.3147 H       1  UNL1        0.1498
     17 C          -8.1734  -15.1410   21.5136 C.3     1  UNL1        0.0262
     18 C          -8.0702  -16.2229   22.5475 C.3     1  UNL1        0.0943
     19 C          -7.7098  -15.8768   23.9618 C.ar    1  UNL1       -0.0045
     20 C          -8.7734  -15.8389   25.0190 C.ar    1  UNL1       -0.0018
     21 C          -8.4128  -15.4928   26.4333 C.ar    1  UNL1        0.0111
     22 C          -6.9890  -15.1846   26.7904 C.ar    1  UNL1        0.0577
     23 CL         -6.6285  -14.8385   28.2048 Cl      1  UNL1       -0.0822
     24 C          -5.9255  -15.2225   25.7333 C.ar    1  UNL1        0.0111
     25 C          -6.2860  -15.5686   24.3190 C.ar    1  UNL1       -0.0018
     26 C          -8.9720  -20.2598   20.8336 C.3     1  UNL1        0.1384
     27 C         -10.1005  -19.2729   20.8835 C.ar    1  UNL1        0.0007
     28 C         -10.9913  -19.2125   22.0889 C.ar    1  UNL1       -0.0001
     29 C         -12.1198  -18.2256   22.1388 C.ar    1  UNL1        0.0294
     30 C         -12.3576  -17.2991   20.9834 C.ar    1  UNL1        0.1401
     31 F         -13.4861  -16.3122   21.0332 F       1  UNL1       -0.2042
     32 C         -11.4668  -17.3595   19.7780 C.ar    1  UNL1        0.0294
     33 C         -10.3383  -18.3464   19.7281 C.ar    1  UNL1       -0.0001
@<TRIPOS>BOND
     1    18    17    1
     2    18    15    1
     3    15     1    1
     4     1     2   ar
     5     2     3   ar
     6     3     4   ar
     7     4     5   ar
     8     5     6   ar
     9     6     7   ar
    10     7    11    1
    11    11    12    1
    12    11    13    1
    13    11    14    1
    14     4     8   ar
    15     8     9    2
    16     8    10   ar
    17    10    26    1
    18    26    27    1
    19    27    28   ar
    20    28    29   ar
    21    29    30   ar
    22    30    31    1
    23    30    32   ar
    24    32    33   ar
    25    18    19    1
    26    19    20   ar
    27    20    21   ar
    28    21    22   ar
    29    22    23    1
    30    22    24   ar
    31    24    25   ar
    32    10     1   ar
    33    33    27   ar
    34    25    19   ar
    35     7     3   ar
    36    15    16    1
@<TRIPOS>MOLECULE
*****
 33 36 0 0 0
SMALL
GASTEIGER

@<TRIPOS>ATOM
      1 C          -5.7054  -17.7018   22.4720 C.ar    1  UNL1        0.2019
      2 N          -7.1581  -17.3550   22.3339 N.ar    1  UNL1       -0.1961
      3 C          -7.8248  -16.4932   23.3649 C.ar    1  UNL1        0.1682
      4 C          -7.0386  -15.9782   24.5340 C.ar    1  UNL1        0.1125
      5 C          -7.9594  -15.1554   25.3855 C.ar    1  UNL1        0.1280
      6 N          -9.3146  -15.1618   24.7427 N.ar    1  UNL1       -0.1663
      7 N          -9.2315  -15.9886   23.4939 N.ar    1  UNL1       -0.2376
      8 C          -5.5858  -16.3251   24.6721 C.ar    1  UNL1        0.2676
      9 O          -4.7996  -15.8101   25.8412 O.2     1  UNL1       -0.2667
     10 N          -4.9192  -17.1869   23.6411 N.ar    1  UNL1       -0.2645
     11 C         -10.3573  -16.2627   22.5413 C.3     1  UNL1        0.0882
     12 C          -9.6907  -15.4053   21.5067 C.3     1  UNL1        0.0245
     13 C         -11.0239  -17.1201   23.5759 C.3     1  UNL1        0.0245
     14 C         -11.4831  -16.5368   21.5888 C.3     1  UNL1        0.0245
     15 N          -5.0388  -18.5637   21.4410 N.pl3   1  UNL1       -0.3021
     16 H          -4.1143  -18.3718   21.1621 H       1  UNL1        0.1498
     17 C          -5.0257  -20.8204   20.1537 C.3     1  UNL1        0.0262
     18 C          -5.7808  -19.7178   20.8349 C.3     1  UNL1        0.0943
     19 C          -7.2780  -19.7693   20.9101 C.ar    1  UNL1       -0.0045
     20 C          -7.9532  -20.0879   22.2112 C.ar    1  UNL1       -0.0018
     21 C          -9.4504  -20.1394   22.2862 C.ar    1  UNL1        0.0111
     22 C         -10.2725  -19.8724   21.0603 C.ar    1  UNL1        0.0577
     23 CL        -11.7698  -19.9240   21.1354 Cl      1  UNL1       -0.0822
     24 C          -9.5974  -19.5539   19.7593 C.ar    1  UNL1        0.0111
     25 C          -8.1001  -19.5023   19.6842 C.ar    1  UNL1       -0.0018
     26 C          -3.4664  -17.5338   23.7792 C.3     1  UNL1        0.1384
     27 C          -2.5952  -17.6137   22.5607 C.ar    1  UNL1        0.0007
     28 C          -2.1396  -16.3567   21.8807 C.ar    1  UNL1       -0.0001
     29 C          -1.2684  -16.4365   20.6622 C.ar    1  UNL1        0.0294
     30 C          -0.8529  -17.7734   20.1237 C.ar    1  UNL1        0.1401
     31 F           0.0182  -17.8534   18.9051 F       1  UNL1       -0.2042
     32 C          -1.3086  -19.0304   20.8036 C.ar    1  UNL1        0.0294
     33 C          -2.1797  -18.9505   22.0221 C.ar    1  UNL1       -0.0001
@<TRIPOS>BOND
     1    18    17    1
     2    18    15    1
     3    15     1    1
     4     1     2   ar
     5     2     3   ar
     6     3     4   ar
     7     4     5   ar
     8     5     6   ar
     9     6     7   ar
    10     7    11    1
    11    11    12    1
    12    11    13    1
    13    11    14    1
    14     4     8   ar
    15     8     9    2
    16     8    10   ar
    17    10    26    1
    18    26    27    1
    19    27    28   ar
    20    28    29   ar
    21    29    30   ar
    22    30    31    1
    23    30    32   ar
    24    32    33   ar
    25    18    19    1
    26    19    20   ar
    27    20    21   ar
    28    21    22   ar
    29    22    23    1
    30    22    24   ar
    31    24    25   ar
    32    10     1   ar
    33    33    27   ar
    34    25    19   ar
    35     7     3   ar
    36    15    16    1
@<TRIPOS>MOLECULE
*****
 33 36 0 0 0
SMALL
GASTEIGER

@<TRIPOS>ATOM
      1 C           6.9945   -2.6612   24.1601 C.ar    1  UNL1        0.2019
      2 N           7.1343   -3.1262   25.5793 N.ar    1  UNL1       -0.1961
      3 C           7.6965   -4.4859   25.8710 C.ar    1  UNL1        0.1682
      4 C           8.1189   -5.3806   24.7435 C.ar    1  UNL1        0.1125
      5 C           8.6349   -6.6590   25.3345 C.ar    1  UNL1        0.1280
      6 N           8.5315   -6.5545   26.8273 N.ar    1  UNL1       -0.1663
      7 N           7.9515   -5.2114   27.1589 N.ar    1  UNL1       -0.2376
      8 C           7.9790   -4.9155   23.3243 C.ar    1  UNL1        0.2676
      9 O           8.4014   -5.8101   22.1968 O.2     1  UNL1       -0.2667
     10 N           7.4168   -3.5557   23.0327 N.ar    1  UNL1       -0.2645
     11 C           7.6751   -4.6862   28.5365 C.3     1  UNL1        0.0882
     12 C           9.0863   -4.1862   28.6290 C.3     1  UNL1        0.0245
     13 C           6.2639   -5.1861   28.4439 C.3     1  UNL1        0.0245
     14 C           7.3987   -4.1609   29.9140 C.3     1  UNL1        0.0245
     15 N           6.4322   -1.3014   23.8684 N.pl3   1  UNL1       -0.3021
     16 H           7.0338   -0.5257   23.7930 H       1  UNL1        0.1498
     17 C           4.0311   -1.3050   24.8608 C.3     1  UNL1        0.0262
     18 C           4.9533   -1.1235   23.6918 C.3     1  UNL1        0.0943
     19 C           4.3966   -0.7641   22.3461 C.ar    1  UNL1       -0.0045
     20 C           3.0199   -1.2167   21.9587 C.ar    1  UNL1       -0.0018
     21 C           2.4633   -0.8572   20.6130 C.ar    1  UNL1        0.0111
     22 C           3.2832   -0.0452   19.6548 C.ar    1  UNL1        0.0577
     23 CL          2.7265    0.3142   18.3090 Cl      1  UNL1       -0.0822
     24 C           4.6598    0.4074   20.0421 C.ar    1  UNL1        0.0111
     25 C           5.2165    0.0480   21.3878 C.ar    1  UNL1       -0.0018
     26 C           7.2769   -3.0906   21.6134 C.3     1  UNL1        0.1384
     27 C           6.0587   -3.4597   20.8198 C.ar    1  UNL1        0.0007
     28 C           5.9444   -3.0425   19.3836 C.ar    1  UNL1       -0.0001
     29 C           4.7262   -3.4115   18.5900 C.ar    1  UNL1        0.0294
     30 C           3.6222   -4.1977   19.2327 C.ar    1  UNL1        0.1401
     31 F           2.4039   -4.5668   18.4392 F       1  UNL1       -0.2042
     32 C           3.7365   -4.6149   20.6690 C.ar    1  UNL1        0.0294
     33 C           4.9547   -4.2459   21.4625 C.ar    1  UNL1       -0.0001
@<TRIPOS>BOND
     1    18    17    1
     2    18    15    1
     3    15     1    1
     4     1     2   ar
     5     2     3   ar
     6     3     4   ar
     7     4     5   ar
     8     5     6   ar
     9     6     7   ar
    10     7    11    1
    11    11    12    1
    12    11    13    1
    13    11    14    1
    14     4     8   ar
    15     8     9    2
    16     8    10   ar
    17    10    26    1
    18    26    27    1
    19    27    28   ar
    20    28    29   ar
    21    29    30   ar
    22    30    31    1
    23    30    32   ar
    24    32    33   ar
    25    18    19    1
    26    19    20   ar
    27    20    21   ar
    28    21    22   ar
    29    22    23    1
    30    22    24   ar
    31    24    25   ar
    32    10     1   ar
    33    33    27   ar
    34    25    19   ar
    35     7     3   ar
    36    15    16    1
@<TRIPOS>MOLECULE
*****
 33 36 0 0 0
SMALL
GASTEIGER

@<TRIPOS>ATOM
      1 C           4.2497   -0.6606   26.4037 C.ar    1  UNL1        0.2019
      2 N           2.9114   -0.1221   26.8146 N.ar    1  UNL1       -0.1961
      3 C           2.5115   -0.1299   28.2603 C.ar    1  UNL1        0.1682
      4 C           3.4500   -0.6763   29.2951 C.ar    1  UNL1        0.1125
      5 C           2.7856   -0.5538   30.6344 C.ar    1  UNL1        0.1280
      6 N           1.4365    0.0684   30.4273 N.ar    1  UNL1       -0.1663
      7 N           1.2671    0.3303   28.9601 N.ar    1  UNL1       -0.2376
      8 C           4.7883   -1.2149   28.8842 C.ar    1  UNL1        0.2676
      9 O           5.7268   -1.7613   29.9189 O.2     1  UNL1       -0.2667
     10 N           5.1881   -1.2070   27.4384 N.ar    1  UNL1       -0.2645
     11 C           0.0645    0.9447   28.3072 C.3     1  UNL1        0.0882
     12 C           0.8328    2.2139   28.0863 C.3     1  UNL1        0.0245
     13 C          -0.7038   -0.3245   28.5282 C.3     1  UNL1        0.0245
     14 C          -1.1382    1.5590   27.6544 C.3     1  UNL1        0.0245
     15 N           4.6495   -0.6527   24.9580 N.pl3   1  UNL1       -0.3021
     16 H           5.6008   -0.5966   24.7106 H       1  UNL1        0.1498
     17 C           2.3718    0.1261   23.9804 C.3     1  UNL1        0.0262
     18 C           3.5999   -0.7304   23.8892 C.3     1  UNL1        0.0943
     19 C           3.7784   -1.6645   22.7292 C.ar    1  UNL1       -0.0045
     20 C           3.2625   -1.2834   21.3731 C.ar    1  UNL1       -0.0018
     21 C           3.4410   -2.2176   20.2132 C.ar    1  UNL1        0.0111
     22 C           4.1353   -3.5327   20.4092 C.ar    1  UNL1        0.0577
     23 CL          4.3138   -4.4669   19.2492 Cl      1  UNL1       -0.0822
     24 C           4.6512   -3.9137   21.7652 C.ar    1  UNL1        0.0111
     25 C           4.4727   -2.9796   22.9252 C.ar    1  UNL1       -0.0018
     26 C           6.5265   -1.7456   27.0275 C.3     1  UNL1        0.1384
     27 C           6.6812   -3.2015   26.7016 C.ar    1  UNL1        0.0007
     28 C           7.0894   -3.6218   25.3208 C.ar    1  UNL1       -0.0001
     29 C           7.2440   -5.0778   24.9949 C.ar    1  UNL1        0.0294
     30 C           6.9904   -6.1135   26.0499 C.ar    1  UNL1        0.1401
     31 F           7.1451   -7.5696   25.7241 F       1  UNL1       -0.2042
     32 C           6.5822   -5.6933   27.4307 C.ar    1  UNL1        0.0294
     33 C           6.4276   -4.2373   27.7566 C.ar    1  UNL1       -0.0001
@<TRIPOS>BOND
     1    18    17    1
     2    18    15    1
     3    15     1    1
     4     1     2   ar
     5     2     3   ar
     6     3     4   ar
     7     4     5   ar
     8     5     6   ar
     9     6     7   ar
    10     7    11    1
    11    11    12    1
    12    11    13    1
    13    11    14    1
    14     4     8   ar
    15     8     9    2
    16     8    10   ar
    17    10    26    1
    18    26    27    1
    19    27    28   ar
    20    28    29   ar
    21    29    30   ar
    22    30    31    1
    23    30    32   ar
    24    32    33   ar
    25    18    19    1
    26    19    20   ar
    27    20    21   ar
    28    21    22   ar
    29    22    23    1
    30    22    24   ar
    31    24    25   ar
    32    10     1   ar
    33    33    27   ar
    34    25    19   ar
    35     7     3   ar
    36    15    16    1
@<TRIPOS>MOLECULE
*****
 33 36 0 0 0
SMALL
GASTEIGER

@<TRIPOS>ATOM
      1 C         -14.9698   -3.3586   19.2056 C.ar    1  UNL1        0.2019
      2 N         -15.4729   -4.7636   19.3570 N.ar    1  UNL1       -0.1961
      3 C         -16.6597   -5.2248   18.5641 C.ar    1  UNL1        0.1682
      4 C         -17.3435   -4.2810   17.6198 C.ar    1  UNL1        0.1125
      5 C         -18.4828   -5.0139   16.9757 C.ar    1  UNL1        0.1280
      6 N         -18.5031   -6.4108   17.5220 N.ar    1  UNL1       -0.1663
      7 N         -17.3764   -6.5411   18.5037 N.ar    1  UNL1       -0.2376
      8 C         -16.8404   -2.8760   17.4684 C.ar    1  UNL1        0.2676
      9 O         -17.5241   -1.9321   16.5241 O.2     1  UNL1       -0.2667
     10 N         -15.6535   -2.4149   18.2613 N.ar    1  UNL1       -0.2645
     11 C         -17.0277   -7.7717   19.2873 C.3     1  UNL1        0.0882
     12 C         -18.2729   -7.6029   20.1064 C.3     1  UNL1        0.0245
     13 C         -15.7825   -7.9404   18.4682 C.3     1  UNL1        0.0245
     14 C         -16.6789   -9.0022   20.0709 C.3     1  UNL1        0.0245
     15 N         -13.7829   -2.8975   19.9985 N.pl3   1  UNL1       -0.3021
     16 H         -13.8978   -2.6043   20.9313 H       1  UNL1        0.1498
     17 C         -11.7844   -1.5794   18.9890 C.3     1  UNL1        0.0262
     18 C         -12.4209   -2.8831   19.3701 C.3     1  UNL1        0.0943
     19 C         -11.6954   -4.1724   19.1229 C.ar    1  UNL1       -0.0045
     20 C         -12.4064   -5.4804   19.3069 C.ar    1  UNL1       -0.0018
     21 C         -11.6807   -6.7697   19.0596 C.ar    1  UNL1        0.0111
     22 C         -10.2443   -6.7511   18.6283 C.ar    1  UNL1        0.0577
     23 CL         -9.5186   -8.0405   18.3810 Cl      1  UNL1       -0.0822
     24 C          -9.5333   -5.4432   18.4442 C.ar    1  UNL1        0.0111
     25 C         -10.2588   -4.1539   18.6915 C.ar    1  UNL1       -0.0018
     26 C         -15.1503   -1.0098   18.1099 C.3     1  UNL1        0.1384
     27 C         -15.6647    0.0723   19.0123 C.ar    1  UNL1        0.0007
     28 C         -16.6631   -0.2553   20.0828 C.ar    1  UNL1       -0.0001
     29 C         -17.1774    0.8269   20.9852 C.ar    1  UNL1        0.0294
     30 C         -16.6934    2.2367   20.8172 C.ar    1  UNL1        0.1401
     31 F         -17.2077    3.3189   21.7196 F       1  UNL1       -0.2042
     32 C         -15.6949    2.5643   19.7468 C.ar    1  UNL1        0.0294
     33 C         -15.1806    1.4821   18.8443 C.ar    1  UNL1       -0.0001
@<TRIPOS>BOND
     1    18    17    1
     2    18    15    1
     3    15     1    1
     4     1     2   ar
     5     2     3   ar
     6     3     4   ar
     7     4     5   ar
     8     5     6   ar
     9     6     7   ar
    10     7    11    1
    11    11    12    1
    12    11    13    1
    13    11    14    1
    14     4     8   ar
    15     8     9    2
    16     8    10   ar
    17    10    26    1
    18    26    27    1
    19    27    28   ar
    20    28    29   ar
    21    29    30   ar
    22    30    31    1
    23    30    32   ar
    24    32    33   ar
    25    18    19    1
    26    19    20   ar
    27    20    21   ar
    28    21    22   ar
    29    22    23    1
    30    22    24   ar
    31    24    25   ar
    32    10     1   ar
    33    33    27   ar
    34    25    19   ar
    35     7     3   ar
    36    15    16    1
@<TRIPOS>MOLECULE
*****
 33 36 0 0 0
SMALL
GASTEIGER

@<TRIPOS>ATOM
      1 C         -16.2287   -5.8704   17.3263 C.ar    1  UNL1        0.2019
      2 N         -17.2357   -6.7669   17.9836 N.ar    1  UNL1       -0.1961
      3 C         -16.9426   -8.2285   18.1504 C.ar    1  UNL1        0.1682
      4 C         -15.6426   -8.7936   17.6598 C.ar    1  UNL1        0.1125
      5 C         -15.6329  -10.2630   17.9607 C.ar    1  UNL1        0.1280
      6 N         -16.9269  -10.6062   18.6372 N.ar    1  UNL1       -0.1663
      7 N         -17.7364   -9.3488   18.7544 N.ar    1  UNL1       -0.2376
      8 C         -14.6356   -7.8970   17.0025 C.ar    1  UNL1        0.2676
      9 O         -13.3355   -8.4620   16.5119 O.2     1  UNL1       -0.2667
     10 N         -14.9287   -6.4353   16.8358 N.ar    1  UNL1       -0.2645
     11 C         -19.1002   -9.2322   19.3680 C.3     1  UNL1        0.0882
     12 C         -18.5161   -8.4722   20.5218 C.3     1  UNL1        0.0245
     13 C         -19.6843   -9.9922   18.2142 C.3     1  UNL1        0.0245
     14 C         -20.4639   -9.1157   19.9816 C.3     1  UNL1        0.0245
     15 N         -16.5218   -4.4087   17.1596 N.pl3   1  UNL1       -0.3021
     16 H         -17.0053   -4.0913   16.3630 H       1  UNL1        0.1498
     17 C         -16.7682   -3.3924   19.5380 C.3     1  UNL1        0.0262
     18 C         -16.0780   -3.4307   18.2068 C.3     1  UNL1        0.0943
     19 C         -14.9441   -2.4908   17.9227 C.ar    1  UNL1       -0.0045
     20 C         -14.7899   -1.8930   16.5555 C.ar    1  UNL1       -0.0018
     21 C         -13.6558   -0.9531   16.2716 C.ar    1  UNL1        0.0111
     22 C         -12.6761   -0.6110   17.3546 C.ar    1  UNL1        0.0577
     23 CL        -11.5420    0.3289   17.0705 Cl      1  UNL1       -0.0822
     24 C         -12.8302   -1.2088   18.7216 C.ar    1  UNL1        0.0111
     25 C         -13.9642   -2.1486   19.0057 C.ar    1  UNL1       -0.0018
     26 C         -13.9216   -5.5387   16.1784 C.3     1  UNL1        0.1384
     27 C         -12.7350   -5.0483   16.9539 C.ar    1  UNL1        0.0007
     28 C         -12.5650   -5.4394   18.3919 C.ar    1  UNL1       -0.0001
     29 C         -11.3783   -4.9490   19.1674 C.ar    1  UNL1        0.0294
     30 C         -10.3616   -4.0675   18.5047 C.ar    1  UNL1        0.1401
     31 F          -9.1748   -3.5770   19.2801 F       1  UNL1       -0.2042
     32 C         -10.5315   -3.6764   17.0666 C.ar    1  UNL1        0.0294
     33 C         -11.7182   -4.1668   16.2912 C.ar    1  UNL1       -0.0001
@<TRIPOS>BOND
     1    18    17    1
     2    18    15    1
     3    15     1    1
     4     1     2   ar
     5     2     3   ar
     6     3     4   ar
     7     4     5   ar
     8     5     6   ar
     9     6     7   ar
    10     7    11    1
    11    11    12    1
    12    11    13    1
    13    11    14    1
    14     4     8   ar
    15     8     9    2
    16     8    10   ar
    17    10    26    1
    18    26    27    1
    19    27    28   ar
    20    28    29   ar
    21    29    30   ar
    22    30    31    1
    23    30    32   ar
    24    32    33   ar
    25    18    19    1
    26    19    20   ar
    27    20    21   ar
    28    21    22   ar
    29    22    23    1
    30    22    24   ar
    31    24    25   ar
    32    10     1   ar
    33    33    27   ar
    34    25    19   ar
    35     7     3   ar
    36    15    16    1
