@<TRIPOS>MOLECULE
*****
 15 16 0 0 0
SMALL
GASTEIGER

@<TRIPOS>ATOM
      1 O          -8.0493  -14.8759   21.3025 O.2     1  UNL1       -0.2501
      2 C          -8.7479  -15.8921   22.1565 C.2     1  UNL1        0.3332
      3 N          -8.5531  -16.0884   23.6308 N.am    1  UNL1       -0.2342
      4 C          -9.3703  -16.6876   22.5249 C.3     1  UNL1        0.1199
      5 C         -10.3128  -17.8175   22.8164 C.3     1  UNL1        0.1272
      6 C         -10.4381  -18.3482   24.2137 C.3     1  UNL1        0.0289
      7 C          -9.6209  -17.7490   25.3196 C.3     1  UNL1        0.0586
      8 C          -8.6784  -16.6191   25.0282 C.3     1  UNL1        0.2407
      9 F          -7.8611  -16.0199   26.1341 F       1  UNL1       -0.2147
     10 N          -9.7639  -16.8904   21.6863 N.am    1  UNL1       -0.1290
     11 O         -10.2597  -17.0479   20.2794 O.3     1  UNL1       -0.1369
     12 S         -11.5081  -16.3415   19.8407 S.3     1  UNL1        0.0201
     13 O         -12.3371  -17.4613   20.3963 O.2     1  UNL1       -0.3435
     14 O         -10.6791  -15.2216   19.2851 O.2     1  UNL1       -0.3435
     15 O         -12.7565  -15.6350   19.4019 O.co2   1  UNL1       -0.2667
@<TRIPOS>UNITY_ATOM_ATTR
15 1
charge -1
@<TRIPOS>BOND
     1     1     2    2
     2     2     3   am
     3     3     4    1
     4     4     5    1
     5     5     6    1
     6     6     7    1
     7     7     8    1
     8     8     9    1
     9     5    10    1
    10    10    11    1
    11    11    12    1
    12    12    13    2
    13    12    14    2
    14    12    15    1
    15    10     2   am
    16     8     3    1
@<TRIPOS>MOLECULE
*****
 15 16 0 0 0
SMALL
GASTEIGER

@<TRIPOS>ATOM
      1 O          -9.7808  -19.7809   25.3225 O.2     1  UNL1       -0.2501
      2 C         -10.4381  -18.7623   24.4392 C.2     1  UNL1        0.3332
      3 N         -11.9145  -18.5345   24.3033 N.am    1  UNL1       -0.2342
      4 C         -10.6433  -17.9719   23.7398 C.3     1  UNL1        0.1199
      5 C         -10.6958  -16.8548   22.7402 C.3     1  UNL1        0.1272
      6 C         -12.0195  -16.3003   22.3041 C.3     1  UNL1        0.0289
      7 C         -13.2907  -16.8628   22.8676 C.3     1  UNL1        0.0586
      8 C         -13.2382  -17.9800   23.8672 C.3     1  UNL1        0.2407
      9 F         -14.5095  -18.5426   24.4307 F       1  UNL1       -0.2147
     10 N          -9.7345  -17.7924   23.5367 N.am    1  UNL1       -0.1290
     11 O          -8.2500  -17.6710   23.3591 O.3     1  UNL1       -0.1369
     12 S          -7.6263  -17.9767   22.0297 S.3     1  UNL1        0.0201
     13 O          -7.6864  -19.4433   22.3387 O.2     1  UNL1       -0.3435
     14 O          -7.5662  -16.5102   21.7206 O.2     1  UNL1       -0.3435
     15 O          -7.0025  -18.2825   20.7002 O.co2   1  UNL1       -0.2667
@<TRIPOS>UNITY_ATOM_ATTR
15 1
charge -1
@<TRIPOS>BOND
     1     1     2    2
     2     2     3   am
     3     3     4    1
     4     4     5    1
     5     5     6    1
     6     6     7    1
     7     7     8    1
     8     8     9    1
     9     5    10    1
    10    10    11    1
    11    11    12    1
    12    12    13    2
    13    12    14    2
    14    12    15    1
    15    10     2   am
    16     8     3    1
@<TRIPOS>MOLECULE
*****
 15 16 0 0 0
SMALL
GASTEIGER

@<TRIPOS>ATOM
      1 O         -11.6255  -18.1052   23.5072 O.2     1  UNL1       -0.2501
      2 C         -10.4008  -17.2507   23.3664 C.2     1  UNL1        0.3332
      3 N          -9.6073  -16.6549   24.4913 N.am    1  UNL1       -0.2342
      4 C          -9.5698  -16.6805   22.9920 C.3     1  UNL1        0.1199
      5 C          -8.4880  -15.9468   22.2562 C.3     1  UNL1        0.1272
      6 C          -7.4437  -15.1875   23.0197 C.3     1  UNL1        0.0289
      7 C          -7.4812  -15.1619   24.5190 C.3     1  UNL1        0.0586
      8 C          -8.5631  -15.8956   25.2548 C.3     1  UNL1        0.2407
      9 F          -8.6006  -15.8700   26.7541 F       1  UNL1       -0.2147
     10 N          -9.7545  -16.8418   22.0759 N.am    1  UNL1       -0.1290
     11 O         -10.2195  -17.2158   20.6997 O.3     1  UNL1       -0.1369
     12 S         -11.3828  -16.4993   20.0806 S.3     1  UNL1        0.0201
     13 O         -10.4748  -15.3768   19.6737 O.2     1  UNL1       -0.3435
     14 O         -12.2907  -17.6219   20.4875 O.2     1  UNL1       -0.3435
     15 O         -12.5460  -15.7828   19.4614 O.co2   1  UNL1       -0.2667
@<TRIPOS>UNITY_ATOM_ATTR
15 1
charge -1
@<TRIPOS>BOND
     1     1     2    2
     2     2     3   am
     3     3     4    1
     4     4     5    1
     5     5     6    1
     6     6     7    1
     7     7     8    1
     8     8     9    1
     9     5    10    1
    10    10    11    1
    11    11    12    1
    12    12    13    2
    13    12    14    2
    14    12    15    1
    15    10     2   am
    16     8     3    1
@<TRIPOS>MOLECULE
*****
 15 16 0 0 0
SMALL
GASTEIGER

@<TRIPOS>ATOM
      1 O          -8.0414  -15.4496   21.5759 O.2     1  UNL1       -0.2501
      2 C          -8.9126  -16.5426   22.1202 C.2     1  UNL1        0.3332
      3 N         -10.3834  -16.4422   22.3975 N.am    1  UNL1       -0.2342
      4 C          -9.2960  -17.4697   22.5068 C.3     1  UNL1        0.1199
      5 C          -9.6099  -18.8417   23.0255 C.3     1  UNL1        0.1272
      6 C         -11.0112  -19.1862   23.4349 C.3     1  UNL1        0.0289
      7 C         -12.0986  -18.1588   23.3255 C.3     1  UNL1        0.0586
      8 C         -11.7846  -16.7868   22.8068 C.3     1  UNL1        0.2407
      9 F         -12.8721  -15.7593   22.6975 F       1  UNL1       -0.2147
     10 N          -8.4661  -17.9280   22.4828 N.am    1  UNL1       -0.1290
     11 O          -7.0699  -18.4635   22.3648 O.3     1  UNL1       -0.1369
     12 S          -6.7356  -19.4561   21.2910 S.3     1  UNL1        0.0201
     13 O          -6.7535  -20.5602   22.3061 O.2     1  UNL1       -0.3435
     14 O          -6.7178  -18.3519   20.2759 O.2     1  UNL1       -0.3435
     15 O          -6.4014  -20.4486   20.2172 O.co2   1  UNL1       -0.2667
@<TRIPOS>UNITY_ATOM_ATTR
15 1
charge -1
@<TRIPOS>BOND
     1     1     2    2
     2     2     3   am
     3     3     4    1
     4     4     5    1
     5     5     6    1
     6     6     7    1
     7     7     8    1
     8     8     9    1
     9     5    10    1
    10    10    11    1
    11    11    12    1
    12    12    13    2
    13    12    14    2
    14    12    15    1
    15    10     2   am
    16     8     3    1
@<TRIPOS>MOLECULE
*****
 15 16 0 0 0
SMALL
GASTEIGER

@<TRIPOS>ATOM
      1 O          -6.9795  -18.2715   20.6157 O.2     1  UNL1       -0.2501
      2 C          -8.1581  -18.0326   21.5122 C.2     1  UNL1        0.3332
      3 N          -9.3522  -18.9288   21.6563 N.am    1  UNL1       -0.2342
      4 C          -8.8591  -17.6295   22.2207 C.3     1  UNL1        0.1199
      5 C          -9.6838  -16.8901   23.2322 C.3     1  UNL1        0.1272
      6 C         -11.0016  -17.4500   23.6793 C.3     1  UNL1        0.0289
      7 C         -11.4947  -18.7493   23.1149 C.3     1  UNL1        0.0586
      8 C         -10.6700  -19.4887   22.1034 C.3     1  UNL1        0.2407
      9 F         -11.1632  -20.7881   21.5390 F       1  UNL1       -0.2147
     10 N          -8.3495  -16.8555   22.4221 N.am    1  UNL1       -0.1290
     11 O          -7.3959  -15.7106   22.5952 O.3     1  UNL1       -0.1369
     12 S          -6.5397  -15.6270   23.8239 S.3     1  UNL1        0.0201
     13 O          -5.5812  -16.6120   23.2232 O.2     1  UNL1       -0.3435
     14 O          -7.4981  -14.6419   24.4247 O.2     1  UNL1       -0.3435
     15 O          -5.6834  -15.5433   25.0527 O.co2   1  UNL1       -0.2667
@<TRIPOS>UNITY_ATOM_ATTR
15 1
charge -1
@<TRIPOS>BOND
     1     1     2    2
     2     2     3   am
     3     3     4    1
     4     4     5    1
     5     5     6    1
     6     6     7    1
     7     7     8    1
     8     8     9    1
     9     5    10    1
    10    10    11    1
    11    11    12    1
    12    12    13    2
    13    12    14    2
    14    12    15    1
    15    10     2   am
    16     8     3    1
@<TRIPOS>MOLECULE
*****
 15 16 0 0 0
SMALL
GASTEIGER

@<TRIPOS>ATOM
      1 O          -8.0896  -15.6175   21.6050 O.2     1  UNL1       -0.2501
      2 C          -8.8515  -16.6260   22.4127 C.2     1  UNL1        0.3332
      3 N          -9.4551  -17.8972   21.8935 N.am    1  UNL1       -0.2342
      4 C          -9.3434  -17.1686   23.1999 C.3     1  UNL1        0.1199
      5 C          -9.9612  -17.7488   24.4375 C.3     1  UNL1        0.1272
      6 C         -10.6907  -19.0576   24.3688 C.3     1  UNL1        0.0289
      7 C         -10.8025  -19.7862   23.0624 C.3     1  UNL1        0.0586
      8 C         -10.1847  -19.2060   21.8248 C.3     1  UNL1        0.2407
      9 F         -10.2965  -19.9347   20.5184 F       1  UNL1       -0.2147
     10 N          -9.1437  -16.5403   23.8816 N.am    1  UNL1       -0.1290
     11 O          -8.7252  -15.4311   24.8005 O.3     1  UNL1       -0.1369
     12 S          -7.4362  -15.5330   25.5607 S.3     1  UNL1        0.0201
     13 O          -8.1387  -16.2867   26.6509 O.2     1  UNL1       -0.3435
     14 O          -6.7337  -14.7793   24.4706 O.2     1  UNL1       -0.3435
     15 O          -6.1472  -15.6349   26.3210 O.co2   1  UNL1       -0.2667
@<TRIPOS>UNITY_ATOM_ATTR
15 1
charge -1
@<TRIPOS>BOND
     1     1     2    2
     2     2     3   am
     3     3     4    1
     4     4     5    1
     5     5     6    1
     6     6     7    1
     7     7     8    1
     8     8     9    1
     9     5    10    1
    10    10    11    1
    11    11    12    1
    12    12    13    2
    13    12    14    2
    14    12    15    1
    15    10     2   am
    16     8     3    1
@<TRIPOS>MOLECULE
*****
 15 16 0 0 0
SMALL
GASTEIGER

@<TRIPOS>ATOM
      1 O         -10.7274  -16.5969   19.8420 O.2     1  UNL1       -0.2501
      2 C         -10.6963  -17.5240   21.0208 C.2     1  UNL1        0.3332
      3 N         -11.7077  -17.5778   22.1271 N.am    1  UNL1       -0.2342
      4 C         -10.4386  -18.2785   21.7421 C.3     1  UNL1        0.1199
      5 C          -9.8924  -19.3724   22.6110 C.3     1  UNL1        0.1272
      6 C         -10.6154  -19.7656   23.8651 C.3     1  UNL1        0.0289
      7 C         -11.8845  -19.0649   24.2501 C.3     1  UNL1        0.0586
      8 C         -12.4307  -17.9710   23.3812 C.3     1  UNL1        0.2407
      9 F         -13.6999  -17.2703   23.7663 F       1  UNL1       -0.2147
     10 N          -9.6482  -18.5602   21.3002 N.am    1  UNL1       -0.1290
     11 O          -8.4472  -18.8511   20.4498 O.3     1  UNL1       -0.1369
     12 S          -7.0699  -18.7367   21.0329 S.3     1  UNL1        0.0201
     13 O          -7.3313  -17.2982   21.3680 O.2     1  UNL1       -0.3435
     14 O          -6.8085  -20.1752   20.6977 O.2     1  UNL1       -0.3435
     15 O          -5.6926  -18.6222   21.6159 O.co2   1  UNL1       -0.2667
@<TRIPOS>UNITY_ATOM_ATTR
15 1
charge -1
@<TRIPOS>BOND
     1     1     2    2
     2     2     3   am
     3     3     4    1
     4     4     5    1
     5     5     6    1
     6     6     7    1
     7     7     8    1
     8     8     9    1
     9     5    10    1
    10    10    11    1
    11    11    12    1
    12    12    13    2
    13    12    14    2
    14    12    15    1
    15    10     2   am
    16     8     3    1
@<TRIPOS>MOLECULE
*****
 15 16 0 0 0
SMALL
GASTEIGER

@<TRIPOS>ATOM
      1 O          -8.1445  -15.5911   21.5437 O.2     1  UNL1       -0.2501
      2 C          -8.5550  -16.9469   22.0370 C.2     1  UNL1        0.3332
      3 N          -9.8561  -17.2867   22.7015 N.am    1  UNL1       -0.2342
      4 C          -8.5961  -17.9904   22.2926 C.3     1  UNL1        0.1199
      5 C          -8.4383  -19.4588   22.5549 C.3     1  UNL1        0.1272
      6 C          -9.5404  -20.2235   23.2261 C.3     1  UNL1        0.0289
      7 C         -10.8003  -19.5198   23.6350 C.3     1  UNL1        0.0586
      8 C         -10.9582  -18.0514   23.3727 C.3     1  UNL1        0.2407
      9 F         -12.2183  -17.3477   23.7816 F       1  UNL1       -0.2147
     10 N          -7.7363  -18.2010   21.9524 N.am    1  UNL1       -0.1290
     11 O          -6.3635  -18.3195   21.3596 O.3     1  UNL1       -0.1369
     12 S          -5.2172  -18.7827   22.2090 S.3     1  UNL1        0.0201
     13 O          -5.1828  -17.4471   22.8909 O.2     1  UNL1       -0.3435
     14 O          -5.2517  -20.1183   21.5272 O.2     1  UNL1       -0.3435
     15 O          -4.0710  -19.2458   23.0585 O.co2   1  UNL1       -0.2667
@<TRIPOS>UNITY_ATOM_ATTR
15 1
charge -1
@<TRIPOS>BOND
     1     1     2    2
     2     2     3   am
     3     3     4    1
     4     4     5    1
     5     5     6    1
     6     6     7    1
     7     7     8    1
     8     8     9    1
     9     5    10    1
    10    10    11    1
    11    11    12    1
    12    12    13    2
    13    12    14    2
    14    12    15    1
    15    10     2   am
    16     8     3    1
@<TRIPOS>MOLECULE
*****
 15 16 0 0 0
SMALL
GASTEIGER

@<TRIPOS>ATOM
      1 O          -7.7057  -15.3557   21.9618 O.2     1  UNL1       -0.2501
      2 C          -7.8377  -15.5583   23.4421 C.2     1  UNL1        0.3332
      3 N          -6.7625  -15.3296   24.4627 N.am    1  UNL1       -0.2342
      4 C          -8.1934  -15.7784   24.4326 C.3     1  UNL1        0.1199
      5 C          -8.8936  -16.1384   25.7093 C.3     1  UNL1        0.1272
      6 C          -8.1629  -16.0495   27.0163 C.3     1  UNL1        0.0289
      7 C          -6.7319  -15.6007   27.0464 C.3     1  UNL1        0.0586
      8 C          -6.0318  -15.2407   25.7696 C.3     1  UNL1        0.2407
      9 F          -4.6007  -14.7919   25.7998 F       1  UNL1       -0.2147
     10 N          -9.0682  -16.0253   24.1619 N.am    1  UNL1       -0.1290
     11 O         -10.3826  -16.3716   23.5276 O.3     1  UNL1       -0.1369
     12 S         -10.5426  -17.6706   22.7948 S.3     1  UNL1        0.0201
     13 O         -10.6166  -18.3998   24.1035 O.2     1  UNL1       -0.3435
     14 O         -10.4687  -16.9414   21.4861 O.2     1  UNL1       -0.3435
     15 O         -10.7026  -18.9696   22.0620 O.co2   1  UNL1       -0.2667
@<TRIPOS>UNITY_ATOM_ATTR
15 1
charge -1
@<TRIPOS>BOND
     1     1     2    2
     2     2     3   am
     3     3     4    1
     4     4     5    1
     5     5     6    1
     6     6     7    1
     7     7     8    1
     8     8     9    1
     9     5    10    1
    10    10    11    1
    11    11    12    1
    12    12    13    2
    13    12    14    2
    14    12    15    1
    15    10     2   am
    16     8     3    1
