@<TRIPOS>MOLECULE
*****
 37 40 0 0 0
SMALL
GASTEIGER

@<TRIPOS>ATOM
      1 N          -5.5657  -15.2816   23.1745 N.am    1  UNL1       -0.2683
      2 C          -4.5721  -16.3233   22.7527 C.2     1  UNL1        0.3044
      3 O          -4.9644  -17.7711   22.7370 O.2     1  UNL1       -0.2525
      4 N          -3.1865  -15.9172   22.3465 N.am    1  UNL1       -0.2903
      5 H          -5.3083  -14.3314   23.1848 H       1  UNL1        0.1564
      6 H          -2.9291  -14.9670   22.3568 H       1  UNL1        0.1509
      7 C          -8.9390  -16.7051   26.8615 C.3     1  UNL1        0.0311
      8 C          -8.6380  -16.3995   25.4242 C.ar    1  UNL1       -0.0205
      9 C          -7.2524  -15.9934   25.0180 C.ar    1  UNL1        0.0105
     10 C          -6.9514  -15.6878   23.5806 C.ar    1  UNL1        0.0514
     11 C          -8.0360  -15.7883   22.5495 C.ar    1  UNL1        0.0178
     12 C          -9.4217  -16.1944   22.9556 C.ar    1  UNL1        0.0383
     13 C          -9.7226  -16.5000   24.3930 C.ar    1  UNL1       -0.0011
     14 C         -10.5064  -16.2949   21.9245 C.ar    1  UNL1        0.1839
     15 N         -10.3918  -15.8974   20.4826 N.ar    1  UNL1       -0.1081
     16 N         -11.7107  -16.1674   19.8211 N.ar    1  UNL1       -0.0227
     17 N         -12.6405  -16.7317   20.8541 N.ar    1  UNL1       -0.0429
     18 N         -11.8962  -16.8105   22.1541 N.ar    1  UNL1       -0.2113
     19 C         -12.4453  -17.3161   23.4551 C.3     1  UNL1        0.1573
     20 C          -2.1930  -16.9588   21.9247 C.3     1  UNL1        0.0745
     21 C          -1.7189  -17.9857   22.9101 C.3     1  UNL1        0.0214
     22 C          -1.6736  -16.9736   20.5176 C.3     1  UNL1        0.0369
     23 C          -2.5344  -17.4959   19.4058 C.3     1  UNL1        0.0738
     24 N          -3.5432  -18.5716   19.6803 N.3     1  UNL1       -0.2726
     25 C          -3.0872  -19.9409   20.0889 C.3     1  UNL1        0.0721
     26 C          -4.0960  -21.0164   20.3635 C.3     1  UNL1        0.0174
     27 C          -5.5608  -20.7227   20.2294 C.3     1  UNL1        0.0031
     28 C          -6.0169  -19.3534   19.8208 C.3     1  UNL1        0.0204
     29 C          -5.0081  -18.2779   19.5463 C.3     1  UNL1        0.0724
     30 C          -7.4817  -19.0597   19.6867 C.3     1  UNL1        0.0277
     31 C          -8.4228  -19.4147   20.7995 C.ar    1  UNL1       -0.0220
     32 C          -9.8741  -19.6555   20.5064 C.ar    1  UNL1       -0.0020
     33 C         -10.8151  -20.0104   21.6192 C.ar    1  UNL1        0.0293
     34 C         -10.3049  -20.1246   23.0251 C.ar    1  UNL1        0.1401
     35 F         -11.2461  -20.4796   24.1380 F       1  UNL1       -0.2042
     36 C          -8.8537  -19.8839   23.3183 C.ar    1  UNL1        0.0293
     37 C          -7.9126  -19.5289   22.2054 C.ar    1  UNL1       -0.0020
@<TRIPOS>BOND
     1     7     8    1
     2     8     9   ar
     3     9    10   ar
     4    10     1    1
     5     1     2   am
     6     2     3    2
     7     2     4   am
     8     4    20    1
     9    20    21    1
    10    20    22    1
    11    22    23    1
    12    23    24    1
    13    24    25    1
    14    25    26    1
    15    26    27    1
    16    27    28    1
    17    28    30    1
    18    30    31    1
    19    31    32   ar
    20    32    33   ar
    21    33    34   ar
    22    34    35    1
    23    34    36   ar
    24    36    37   ar
    25    28    29    1
    26    10    11   ar
    27    11    12   ar
    28    12    14    1
    29    14    15   ar
    30    15    16   ar
    31    16    17   ar
    32    17    18   ar
    33    18    19    1
    34    12    13   ar
    35    13     8   ar
    36    29    24    1
    37    18    14   ar
    38    37    31   ar
    39     1     5    1
    40     4     6    1
@<TRIPOS>MOLECULE
*****
 37 40 0 0 0
SMALL
GASTEIGER

@<TRIPOS>ATOM
      1 N          -9.8622  -16.2285   23.7608 N.am    1  UNL1       -0.2683
      2 C          -9.9547  -16.3470   22.2684 C.2     1  UNL1        0.3044
      3 O          -8.7274  -16.1693   21.4244 O.2     1  UNL1       -0.2525
      4 N         -11.2744  -16.6433   21.6199 N.am    1  UNL1       -0.2903
      5 H         -10.6677  -16.3451   24.3148 H       1  UNL1        0.1564
      6 H         -12.0799  -16.7599   22.1738 H       1  UNL1        0.1509
      7 C          -7.1008  -14.9930   27.9855 C.3     1  UNL1        0.0311
      8 C          -7.1618  -15.3145   26.5217 C.ar    1  UNL1       -0.0205
      9 C          -8.4815  -15.6107   25.8732 C.ar    1  UNL1        0.0105
     10 C          -8.5424  -15.9322   24.4093 C.ar    1  UNL1        0.0514
     11 C          -7.2837  -15.9574   23.5939 C.ar    1  UNL1        0.0178
     12 C          -5.9640  -15.6612   24.2424 C.ar    1  UNL1        0.0383
     13 C          -5.9030  -15.3397   25.7063 C.ar    1  UNL1       -0.0011
     14 C          -4.7052  -15.6864   23.4270 C.ar    1  UNL1        0.1839
     15 N          -4.1333  -14.5362   22.6523 N.ar    1  UNL1       -0.1081
     16 N          -2.8720  -15.0050   21.9897 N.ar    1  UNL1       -0.0227
     17 N          -2.6643  -16.4451   22.3548 N.ar    1  UNL1       -0.0429
     18 N          -3.7973  -16.8661   23.2430 N.ar    1  UNL1       -0.2113
     19 C          -3.9887  -18.2279   23.8422 C.3     1  UNL1        0.1573
     20 C         -11.3669  -16.7618   20.1275 C.3     1  UNL1        0.0745
     21 C         -11.8948  -15.6164   19.3154 C.3     1  UNL1        0.0214
     22 C         -10.9316  -18.0257   19.4471 C.3     1  UNL1        0.0369
     23 C         -10.6885  -19.2665   20.2541 C.3     1  UNL1        0.0738
     24 N          -9.3316  -19.5277   20.8378 N.3     1  UNL1       -0.2726
     25 C          -9.1276  -19.4577   22.3222 C.3     1  UNL1        0.0721
     26 C          -7.7707  -19.7189   22.9058 C.3     1  UNL1        0.0174
     27 C          -6.6179  -20.0501   22.0051 C.3     1  UNL1        0.0031
     28 C          -6.8220  -20.1202   20.5207 C.3     1  UNL1        0.0204
     29 C          -8.1788  -19.8590   19.9371 C.3     1  UNL1        0.0724
     30 C          -5.6692  -20.4514   19.6200 C.3     1  UNL1        0.0277
     31 C          -4.3378  -19.7944   19.8334 C.ar    1  UNL1       -0.0220
     32 C          -3.3756  -20.3578   20.8369 C.ar    1  UNL1       -0.0020
     33 C          -2.0442  -19.7008   21.0503 C.ar    1  UNL1        0.0293
     34 C          -1.6748  -18.4804   20.2602 C.ar    1  UNL1        0.1401
     35 F          -0.3433  -17.8233   20.4737 F       1  UNL1       -0.2042
     36 C          -2.6369  -17.9170   19.2568 C.ar    1  UNL1        0.0293
     37 C          -3.9684  -18.5740   19.0433 C.ar    1  UNL1       -0.0020
@<TRIPOS>BOND
     1     7     8    1
     2     8     9   ar
     3     9    10   ar
     4    10     1    1
     5     1     2   am
     6     2     3    2
     7     2     4   am
     8     4    20    1
     9    20    21    1
    10    20    22    1
    11    22    23    1
    12    23    24    1
    13    24    25    1
    14    25    26    1
    15    26    27    1
    16    27    28    1
    17    28    30    1
    18    30    31    1
    19    31    32   ar
    20    32    33   ar
    21    33    34   ar
    22    34    35    1
    23    34    36   ar
    24    36    37   ar
    25    28    29    1
    26    10    11   ar
    27    11    12   ar
    28    12    14    1
    29    14    15   ar
    30    15    16   ar
    31    16    17   ar
    32    17    18   ar
    33    18    19    1
    34    12    13   ar
    35    13     8   ar
    36    29    24    1
    37    18    14   ar
    38    37    31   ar
    39     1     5    1
    40     4     6    1
@<TRIPOS>MOLECULE
*****
 37 40 0 0 0
SMALL
GASTEIGER

@<TRIPOS>ATOM
      1 N          -6.8044  -19.7362   21.8877 N.am    1  UNL1       -0.2683
      2 C          -7.5746  -19.5771   20.6104 C.2     1  UNL1        0.3044
      3 O          -7.1482  -18.5536   19.6000 O.2     1  UNL1       -0.2525
      4 N          -8.7711  -20.4414   20.3435 N.am    1  UNL1       -0.2903
      5 H          -7.0842  -20.4079   22.5508 H       1  UNL1        0.1564
      6 H          -9.0510  -21.1131   21.0066 H       1  UNL1        0.1509
      7 C          -4.4432  -16.0663   24.7085 C.3     1  UNL1        0.0311
      8 C          -4.4272  -17.0369   23.5649 C.ar    1  UNL1       -0.0205
      9 C          -5.6237  -17.9012   23.2980 C.ar    1  UNL1        0.0105
     10 C          -5.6078  -18.8718   22.1545 C.ar    1  UNL1        0.0514
     11 C          -4.3953  -18.9782   21.2779 C.ar    1  UNL1        0.0178
     12 C          -3.1988  -18.1138   21.5448 C.ar    1  UNL1        0.0383
     13 C          -3.2148  -17.1432   22.6883 C.ar    1  UNL1       -0.0011
     14 C          -1.9862  -18.2201   20.6682 C.ar    1  UNL1        0.1839
     15 N          -0.6681  -18.8222   21.0557 N.ar    1  UNL1       -0.1081
     16 N           0.2539  -18.7172   19.8772 N.ar    1  UNL1       -0.0227
     17 N          -0.4944  -18.0502   18.7613 N.ar    1  UNL1       -0.0429
     18 N          -1.8788  -17.7430   19.2502 N.ar    1  UNL1       -0.2113
     19 C          -2.9651  -17.0758   18.4597 C.3     1  UNL1        0.1573
     20 C          -9.5414  -20.2822   19.0662 C.3     1  UNL1        0.0745
     21 C          -9.1476  -21.0673   17.8502 C.3     1  UNL1        0.0214
     22 C         -10.7053  -19.3381   19.0049 C.3     1  UNL1        0.0369
     23 C         -10.6979  -18.0840   19.8278 C.3     1  UNL1        0.0738
     24 N         -11.3045  -18.0835   21.1997 N.3     1  UNL1       -0.2726
     25 C         -12.7672  -17.7997   21.3729 C.3     1  UNL1        0.0721
     26 C         -13.3737  -17.7992   22.7448 C.3     1  UNL1        0.0174
     27 C         -12.5176  -18.0824   23.9434 C.3     1  UNL1        0.0031
     28 C         -11.0549  -18.3662   23.7702 C.3     1  UNL1        0.0204
     29 C         -10.4484  -18.3667   22.3984 C.3     1  UNL1        0.0724
     30 C         -10.1988  -18.6495   24.9689 C.3     1  UNL1        0.0277
     31 C          -9.3285  -17.5701   25.5409 C.ar    1  UNL1       -0.0220
     32 C          -9.0397  -17.5405   27.0126 C.ar    1  UNL1       -0.0020
     33 C          -8.1694  -16.4610   27.5846 C.ar    1  UNL1        0.0293
     34 C          -7.5877  -15.4111   26.6850 C.ar    1  UNL1        0.1401
     35 F          -6.7173  -14.3317   27.2571 F       1  UNL1       -0.2042
     36 C          -7.8764  -15.4407   25.2134 C.ar    1  UNL1        0.0293
     37 C          -8.7468  -16.5202   24.6413 C.ar    1  UNL1       -0.0020
@<TRIPOS>BOND
     1     7     8    1
     2     8     9   ar
     3     9    10   ar
     4    10     1    1
     5     1     2   am
     6     2     3    2
     7     2     4   am
     8     4    20    1
     9    20    21    1
    10    20    22    1
    11    22    23    1
    12    23    24    1
    13    24    25    1
    14    25    26    1
    15    26    27    1
    16    27    28    1
    17    28    30    1
    18    30    31    1
    19    31    32   ar
    20    32    33   ar
    21    33    34   ar
    22    34    35    1
    23    34    36   ar
    24    36    37   ar
    25    28    29    1
    26    10    11   ar
    27    11    12   ar
    28    12    14    1
    29    14    15   ar
    30    15    16   ar
    31    16    17   ar
    32    17    18   ar
    33    18    19    1
    34    12    13   ar
    35    13     8   ar
    36    29    24    1
    37    18    14   ar
    38    37    31   ar
    39     1     5    1
    40     4     6    1
@<TRIPOS>MOLECULE
*****
 37 40 0 0 0
SMALL
GASTEIGER

@<TRIPOS>ATOM
      1 N          -7.6458  -17.4405   21.5161 N.am    1  UNL1       -0.2683
      2 C          -8.9890  -17.3423   20.8557 C.2     1  UNL1        0.3044
      3 O          -9.3360  -18.2606   19.7215 O.2     1  UNL1       -0.2525
      4 N          -9.9852  -16.3259   21.3294 N.am    1  UNL1       -0.2903
      5 H          -7.4180  -16.8378   22.2605 H       1  UNL1        0.1564
      6 H          -9.7574  -15.7232   22.0738 H       1  UNL1        0.1509
      7 C          -6.5307  -22.2882   20.0140 C.3     1  UNL1        0.0311
      8 C          -6.0921  -20.8808   20.2913 C.ar    1  UNL1       -0.0205
      9 C          -7.0882  -19.8643   20.7650 C.ar    1  UNL1        0.0105
     10 C          -6.6496  -18.4570   21.0423 C.ar    1  UNL1        0.0514
     11 C          -5.2148  -18.0660   20.8457 C.ar    1  UNL1        0.0178
     12 C          -4.2187  -19.0825   20.3719 C.ar    1  UNL1        0.0383
     13 C          -4.6573  -20.4899   20.0947 C.ar    1  UNL1       -0.0011
     14 C          -2.7839  -18.6916   20.1753 C.ar    1  UNL1        0.1839
     15 N          -2.0620  -18.6182   18.8625 N.ar    1  UNL1       -0.1081
     16 N          -0.6511  -18.1867   19.1328 N.ar    1  UNL1       -0.0227
     17 N          -0.5010  -17.9934   20.6128 N.ar    1  UNL1       -0.0429
     18 N          -1.8191  -18.3055   21.2570 N.ar    1  UNL1       -0.2113
     19 C          -2.1197  -18.2425   22.7253 C.3     1  UNL1        0.1573
     20 C         -11.3284  -16.2277   20.6690 C.3     1  UNL1        0.0745
     21 C         -11.4452  -15.6524   19.2886 C.3     1  UNL1        0.0214
     22 C         -12.5548  -16.7048   21.3889 C.3     1  UNL1        0.0369
     23 C         -12.6421  -18.1259   21.8610 C.3     1  UNL1        0.0738
     24 N         -11.5851  -18.6808   22.7694 N.3     1  UNL1       -0.2726
     25 C         -10.9416  -19.9985   22.4542 C.3     1  UNL1        0.0721
     26 C          -9.8847  -20.5533   23.3625 C.3     1  UNL1        0.0174
     27 C          -9.4712  -19.7903   24.5860 C.3     1  UNL1        0.0031
     28 C         -10.1147  -18.4726   24.9011 C.3     1  UNL1        0.0204
     29 C         -11.1716  -17.9178   23.9928 C.3     1  UNL1        0.0724
     30 C          -9.7012  -17.7096   26.1246 C.3     1  UNL1        0.0277
     31 C          -8.4811  -16.8378   26.0881 C.ar    1  UNL1       -0.0220
     32 C          -7.8427  -16.3873   27.3686 C.ar    1  UNL1       -0.0020
     33 C          -6.6226  -15.5155   27.3321 C.ar    1  UNL1        0.0293
     34 C          -6.0409  -15.0943   26.0153 C.ar    1  UNL1        0.1401
     35 F          -4.8207  -14.2225   25.9789 F       1  UNL1       -0.2042
     36 C          -6.6792  -15.5448   24.7349 C.ar    1  UNL1        0.0293
     37 C          -7.8994  -16.4166   24.7713 C.ar    1  UNL1       -0.0020
@<TRIPOS>BOND
     1     7     8    1
     2     8     9   ar
     3     9    10   ar
     4    10     1    1
     5     1     2   am
     6     2     3    2
     7     2     4   am
     8     4    20    1
     9    20    21    1
    10    20    22    1
    11    22    23    1
    12    23    24    1
    13    24    25    1
    14    25    26    1
    15    26    27    1
    16    27    28    1
    17    28    30    1
    18    30    31    1
    19    31    32   ar
    20    32    33   ar
    21    33    34   ar
    22    34    35    1
    23    34    36   ar
    24    36    37   ar
    25    28    29    1
    26    10    11   ar
    27    11    12   ar
    28    12    14    1
    29    14    15   ar
    30    15    16   ar
    31    16    17   ar
    32    17    18   ar
    33    18    19    1
    34    12    13   ar
    35    13     8   ar
    36    29    24    1
    37    18    14   ar
    38    37    31   ar
    39     1     5    1
    40     4     6    1
@<TRIPOS>MOLECULE
*****
 37 40 0 0 0
SMALL
GASTEIGER

@<TRIPOS>ATOM
      1 N          -9.5148  -15.4245   23.5898 N.am    1  UNL1       -0.2683
      2 C         -10.3820  -16.6468   23.5275 C.2     1  UNL1        0.3044
      3 O          -9.9213  -17.9262   24.1606 O.2     1  UNL1       -0.2525
      4 N         -11.7098  -16.5896   22.8321 N.am    1  UNL1       -0.2903
      5 H          -9.8171  -14.5847   23.1742 H       1  UNL1        0.1564
      6 H         -12.0121  -15.7499   22.4165 H       1  UNL1        0.1509
      7 C          -6.7200  -15.3139   27.9690 C.3     1  UNL1        0.0311
      8 C          -6.7896  -15.4263   26.4748 C.ar    1  UNL1       -0.0205
      9 C          -8.1174  -15.3692   25.7794 C.ar    1  UNL1        0.0105
     10 C          -8.1869  -15.4816   24.2852 C.ar    1  UNL1        0.0514
     11 C          -6.9286  -15.6513   23.4865 C.ar    1  UNL1        0.0178
     12 C          -5.6009  -15.7085   24.1819 C.ar    1  UNL1        0.0383
     13 C          -5.5313  -15.5960   25.6761 C.ar    1  UNL1       -0.0011
     14 C          -4.3425  -15.8781   23.3832 C.ar    1  UNL1        0.1839
     15 N          -3.8249  -14.9308   22.3417 N.ar    1  UNL1       -0.1081
     16 N          -2.5434  -15.4920   21.8006 N.ar    1  UNL1       -0.0227
     17 N          -2.2690  -16.7862   22.5077 N.ar    1  UNL1       -0.0429
     18 N          -3.3810  -17.0248   23.4858 N.ar    1  UNL1       -0.2113
     19 C          -3.5088  -18.2032   24.4050 C.3     1  UNL1        0.1573
     20 C         -12.5770  -17.8119   22.7698 C.3     1  UNL1        0.0745
     21 C         -13.7169  -17.9726   23.7316 C.3     1  UNL1        0.0214
     22 C         -12.3045  -18.8735   21.7458 C.3     1  UNL1        0.0369
     23 C         -11.2139  -19.8770   21.9778 C.3     1  UNL1        0.0738
     24 N          -9.9334  -19.7859   21.2018 N.3     1  UNL1       -0.2726
     25 C          -9.9690  -19.6727   19.7065 C.3     1  UNL1        0.0721
     26 C          -8.6885  -19.5816   18.9306 C.3     1  UNL1        0.0174
     27 C          -7.3725  -19.6036   19.6500 C.3     1  UNL1        0.0031
     28 C          -7.3369  -19.7169   21.1453 C.3     1  UNL1        0.0204
     29 C          -8.6174  -19.8080   21.9212 C.3     1  UNL1        0.0724
     30 C          -6.0208  -19.7389   21.8647 C.3     1  UNL1        0.0277
     31 C          -4.7563  -19.4165   21.1251 C.ar    1  UNL1       -0.0220
     32 C          -3.4723  -20.0929   21.5045 C.ar    1  UNL1       -0.0020
     33 C          -2.2078  -19.7705   20.7649 C.ar    1  UNL1        0.0293
     34 C          -2.2272  -18.7717   19.6459 C.ar    1  UNL1        0.1401
     35 F          -0.9626  -18.4493   18.9063 F       1  UNL1       -0.2042
     36 C          -3.5112  -18.0954   19.2665 C.ar    1  UNL1        0.0293
     37 C          -4.7758  -18.4178   20.0061 C.ar    1  UNL1       -0.0020
@<TRIPOS>BOND
     1     7     8    1
     2     8     9   ar
     3     9    10   ar
     4    10     1    1
     5     1     2   am
     6     2     3    2
     7     2     4   am
     8     4    20    1
     9    20    21    1
    10    20    22    1
    11    22    23    1
    12    23    24    1
    13    24    25    1
    14    25    26    1
    15    26    27    1
    16    27    28    1
    17    28    30    1
    18    30    31    1
    19    31    32   ar
    20    32    33   ar
    21    33    34   ar
    22    34    35    1
    23    34    36   ar
    24    36    37   ar
    25    28    29    1
    26    10    11   ar
    27    11    12   ar
    28    12    14    1
    29    14    15   ar
    30    15    16   ar
    31    16    17   ar
    32    17    18   ar
    33    18    19    1
    34    12    13   ar
    35    13     8   ar
    36    29    24    1
    37    18    14   ar
    38    37    31   ar
    39     1     5    1
    40     4     6    1
@<TRIPOS>MOLECULE
*****
 37 40 0 0 0
SMALL
GASTEIGER

@<TRIPOS>ATOM
      1 N          -9.6021  -17.8361   25.3720 N.am    1  UNL1       -0.2683
      2 C          -8.6871  -16.6738   25.6206 C.2     1  UNL1        0.3044
      3 O          -8.9559  -15.3533   24.9617 O.2     1  UNL1       -0.2525
      4 N          -7.5033  -16.8320   26.5281 N.am    1  UNL1       -0.2903
      5 H          -9.4257  -18.7027   25.8044 H       1  UNL1        0.1564
      6 H          -7.3269  -17.6986   26.9606 H       1  UNL1        0.1509
      7 C         -14.6532  -18.5661   24.3957 C.3     1  UNL1        0.0311
      8 C         -13.3114  -18.0429   23.9763 C.ar    1  UNL1       -0.0205
      9 C         -12.1277  -18.2011   24.8838 C.ar    1  UNL1        0.0105
     10 C         -10.7859  -17.6778   24.4644 C.ar    1  UNL1        0.0514
     11 C         -10.6279  -16.9964   23.1375 C.ar    1  UNL1        0.0178
     12 C         -11.8117  -16.8382   22.2300 C.ar    1  UNL1        0.0383
     13 C         -13.1535  -17.3615   22.6494 C.ar    1  UNL1       -0.0011
     14 C         -11.6538  -16.1567   20.9031 C.ar    1  UNL1        0.1839
     15 N         -12.7034  -16.0488   19.8369 N.ar    1  UNL1       -0.1081
     16 N         -12.1169  -15.2890   18.6842 N.ar    1  UNL1       -0.0227
     17 N         -10.7047  -14.9272   19.0381 N.ar    1  UNL1       -0.0429
     18 N         -10.4186  -15.4636   20.4094 N.ar    1  UNL1       -0.2113
     19 C          -9.1244  -15.3301   21.1559 C.3     1  UNL1        0.1573
     20 C          -6.5883  -15.6697   26.7768 C.3     1  UNL1        0.0745
     21 C          -6.8795  -14.7113   27.8935 C.3     1  UNL1        0.0214
     22 C          -5.3820  -15.4657   25.9089 C.3     1  UNL1        0.0369
     23 C          -5.5129  -15.5290   24.4159 C.3     1  UNL1        0.0738
     24 N          -4.9535  -16.6996   23.6630 N.3     1  UNL1       -0.2726
     25 C          -3.5503  -17.1596   23.9265 C.3     1  UNL1        0.0721
     26 C          -2.9910  -18.3302   23.1736 C.3     1  UNL1        0.0174
     27 C          -3.8348  -19.0407   22.1571 C.3     1  UNL1        0.0031
     28 C          -5.2380  -18.5806   21.8936 C.3     1  UNL1        0.0204
     29 C          -5.7973  -17.4101   22.6465 C.3     1  UNL1        0.0724
     30 C          -6.0818  -19.2911   20.8772 C.3     1  UNL1        0.0277
     31 C          -7.5324  -19.5510   21.1563 C.ar    1  UNL1       -0.0220
     32 C          -7.9597  -20.0443   22.5070 C.ar    1  UNL1       -0.0020
     33 C          -9.4104  -20.3041   22.7861 C.ar    1  UNL1        0.0293
     34 C         -10.4339  -20.0708   21.7147 C.ar    1  UNL1        0.1401
     35 F         -11.8846  -20.3307   21.9939 F       1  UNL1       -0.2042
     36 C         -10.0067  -19.5775   20.3641 C.ar    1  UNL1        0.0293
     37 C          -8.5559  -19.3176   20.0849 C.ar    1  UNL1       -0.0020
@<TRIPOS>BOND
     1     7     8    1
     2     8     9   ar
     3     9    10   ar
     4    10     1    1
     5     1     2   am
     6     2     3    2
     7     2     4   am
     8     4    20    1
     9    20    21    1
    10    20    22    1
    11    22    23    1
    12    23    24    1
    13    24    25    1
    14    25    26    1
    15    26    27    1
    16    27    28    1
    17    28    30    1
    18    30    31    1
    19    31    32   ar
    20    32    33   ar
    21    33    34   ar
    22    34    35    1
    23    34    36   ar
    24    36    37   ar
    25    28    29    1
    26    10    11   ar
    27    11    12   ar
    28    12    14    1
    29    14    15   ar
    30    15    16   ar
    31    16    17   ar
    32    17    18   ar
    33    18    19    1
    34    12    13   ar
    35    13     8   ar
    36    29    24    1
    37    18    14   ar
    38    37    31   ar
    39     1     5    1
    40     4     6    1
@<TRIPOS>MOLECULE
*****
 37 40 0 0 0
SMALL
GASTEIGER

@<TRIPOS>ATOM
      1 N          -5.3553  -15.1587   23.4442 N.am    1  UNL1       -0.2683
      2 C          -4.2380  -16.1207   23.1684 C.2     1  UNL1        0.3044
      3 O          -4.1632  -17.4180   23.9178 O.2     1  UNL1       -0.2525
      4 N          -3.1955  -15.7855   22.1434 N.am    1  UNL1       -0.2903
      5 H          -5.4044  -14.3072   22.9524 H       1  UNL1        0.1564
      6 H          -3.2446  -14.9341   21.6516 H       1  UNL1        0.1509
      7 C          -7.3002  -14.6082   28.2311 C.3     1  UNL1        0.0311
      8 C          -7.3703  -15.2186   26.8627 C.ar    1  UNL1       -0.0205
      9 C          -6.3278  -14.8834   25.8376 C.ar    1  UNL1        0.0105
     10 C          -6.3979  -15.4939   24.4693 C.ar    1  UNL1        0.0514
     11 C          -7.5104  -16.4396   24.1260 C.ar    1  UNL1        0.0178
     12 C          -8.5529  -16.7748   25.1511 C.ar    1  UNL1        0.0383
     13 C          -8.4828  -16.1643   26.5195 C.ar    1  UNL1       -0.0011
     14 C          -9.6656  -17.7205   24.8078 C.ar    1  UNL1        0.1839
     15 N          -9.7714  -19.1522   25.2426 N.ar    1  UNL1       -0.1081
     16 N         -11.0389  -19.7171   24.6730 N.ar    1  UNL1       -0.0227
     17 N         -11.7164  -18.6344   23.8863 N.ar    1  UNL1       -0.0429
     18 N         -10.8676  -17.4005   23.9696 N.ar    1  UNL1       -0.2113
     19 C         -11.1682  -16.0786   23.3275 C.3     1  UNL1        0.1573
     20 C          -2.0782  -16.7476   21.8676 C.3     1  UNL1        0.0745
     21 C          -0.8889  -16.3063   21.0671 C.3     1  UNL1        0.0214
     22 C          -2.1501  -18.1509   22.3924 C.3     1  UNL1        0.0369
     23 C          -2.2313  -19.3053   21.4380 C.3     1  UNL1        0.0738
     24 N          -3.5647  -19.8964   21.0876 N.3     1  UNL1       -0.2726
     25 C          -3.6801  -20.8629   19.9464 C.3     1  UNL1        0.0721
     26 C          -5.0134  -21.4540   19.5961 C.3     1  UNL1        0.0174
     27 C          -6.2314  -21.0786   20.3870 C.3     1  UNL1        0.0031
     28 C          -6.1160  -20.1120   21.5282 C.3     1  UNL1        0.0204
     29 C          -4.7827  -19.5210   21.8785 C.3     1  UNL1        0.0724
     30 C          -7.3340  -19.7366   22.3191 C.3     1  UNL1        0.0277
     31 C          -8.5317  -19.1606   21.6237 C.ar    1  UNL1       -0.0220
     32 C          -9.7042  -20.0380   21.2985 C.ar    1  UNL1       -0.0020
     33 C         -10.9019  -19.4620   20.6031 C.ar    1  UNL1        0.0293
     34 C         -10.9272  -18.0087   20.2328 C.ar    1  UNL1        0.1401
     35 F         -12.1250  -17.4327   19.5373 F       1  UNL1       -0.2042
     36 C          -9.7549  -17.1313   20.5579 C.ar    1  UNL1        0.0293
     37 C          -8.5571  -17.7073   21.2534 C.ar    1  UNL1       -0.0020
@<TRIPOS>BOND
     1     7     8    1
     2     8     9   ar
     3     9    10   ar
     4    10     1    1
     5     1     2   am
     6     2     3    2
     7     2     4   am
     8     4    20    1
     9    20    21    1
    10    20    22    1
    11    22    23    1
    12    23    24    1
    13    24    25    1
    14    25    26    1
    15    26    27    1
    16    27    28    1
    17    28    30    1
    18    30    31    1
    19    31    32   ar
    20    32    33   ar
    21    33    34   ar
    22    34    35    1
    23    34    36   ar
    24    36    37   ar
    25    28    29    1
    26    10    11   ar
    27    11    12   ar
    28    12    14    1
    29    14    15   ar
    30    15    16   ar
    31    16    17   ar
    32    17    18   ar
    33    18    19    1
    34    12    13   ar
    35    13     8   ar
    36    29    24    1
    37    18    14   ar
    38    37    31   ar
    39     1     5    1
    40     4     6    1
@<TRIPOS>MOLECULE
*****
 37 40 0 0 0
SMALL
GASTEIGER

@<TRIPOS>ATOM
      1 N          -9.8419  -18.2089   25.6388 N.am    1  UNL1       -0.2683
      2 C          -8.9824  -16.9964   25.8416 C.2     1  UNL1        0.3044
      3 O          -9.3629  -15.6924   25.2052 O.2     1  UNL1       -0.2525
      4 N          -7.7425  -17.0878   26.6808 N.am    1  UNL1       -0.2903
      5 H          -9.5922  -19.0647   26.0565 H       1  UNL1        0.1564
      6 H          -7.4928  -17.9436   27.0985 H       1  UNL1        0.1509
      7 C         -14.9885  -18.7257   25.1433 C.3     1  UNL1        0.0311
      8 C         -13.6551  -18.3759   24.5519 C.ar    1  UNL1       -0.0205
      9 C         -12.4152  -18.4673   25.3910 C.ar    1  UNL1        0.0105
     10 C         -11.0818  -18.1175   24.7996 C.ar    1  UNL1        0.0514
     11 C         -10.9884  -17.6762   23.3691 C.ar    1  UNL1        0.0178
     12 C         -12.2283  -17.5848   22.5299 C.ar    1  UNL1        0.0383
     13 C         -13.5617  -17.9347   23.1213 C.ar    1  UNL1       -0.0011
     14 C         -12.1349  -17.1436   21.0993 C.ar    1  UNL1        0.1839
     15 N         -12.7381  -15.8986   20.5195 N.ar    1  UNL1       -0.1081
     16 N         -12.3980  -15.8553   19.0592 N.ar    1  UNL1       -0.0227
     17 N         -11.5845  -17.0737   18.7365 N.ar    1  UNL1       -0.0429
     18 N         -11.4219  -17.8698   19.9974 N.ar    1  UNL1       -0.2113
     19 C         -10.6772  -19.1648   20.1325 C.3     1  UNL1        0.1573
     20 C          -6.8831  -15.8752   26.8836 C.3     1  UNL1        0.0745
     21 C          -7.2241  -14.8854   27.9578 C.3     1  UNL1        0.0214
     22 C          -5.6826  -15.6526   26.0122 C.3     1  UNL1        0.0369
     23 C          -5.8612  -15.3012   24.5649 C.3     1  UNL1        0.0738
     24 N          -6.2256  -16.3667   23.5739 N.3     1  UNL1       -0.2726
     25 C          -7.6092  -16.4125   22.9966 C.3     1  UNL1        0.0721
     26 C          -7.9735  -17.4780   22.0057 C.3     1  UNL1        0.0174
     27 C          -6.9541  -18.4977   21.5920 C.3     1  UNL1        0.0031
     28 C          -5.5705  -18.4519   22.1693 C.3     1  UNL1        0.0204
     29 C          -5.2062  -17.3864   23.1602 C.3     1  UNL1        0.0724
     30 C          -4.5511  -19.4715   21.7556 C.3     1  UNL1        0.0277
     31 C          -3.3035  -19.0389   21.0441 C.ar    1  UNL1       -0.0220
     32 C          -3.3220  -18.8269   19.5592 C.ar    1  UNL1       -0.0020
     33 C          -2.0744  -18.3943   18.8478 C.ar    1  UNL1        0.0293
     34 C          -0.8082  -18.1737   19.6211 C.ar    1  UNL1        0.1401
     35 F           0.4395  -17.7410   18.9096 F       1  UNL1       -0.2042
     36 C          -0.7896  -18.3856   21.1059 C.ar    1  UNL1        0.0293
     37 C          -2.0373  -18.8183   21.8175 C.ar    1  UNL1       -0.0020
@<TRIPOS>BOND
     1     7     8    1
     2     8     9   ar
     3     9    10   ar
     4    10     1    1
     5     1     2   am
     6     2     3    2
     7     2     4   am
     8     4    20    1
     9    20    21    1
    10    20    22    1
    11    22    23    1
    12    23    24    1
    13    24    25    1
    14    25    26    1
    15    26    27    1
    16    27    28    1
    17    28    30    1
    18    30    31    1
    19    31    32   ar
    20    32    33   ar
    21    33    34   ar
    22    34    35    1
    23    34    36   ar
    24    36    37   ar
    25    28    29    1
    26    10    11   ar
    27    11    12   ar
    28    12    14    1
    29    14    15   ar
    30    15    16   ar
    31    16    17   ar
    32    17    18   ar
    33    18    19    1
    34    12    13   ar
    35    13     8   ar
    36    29    24    1
    37    18    14   ar
    38    37    31   ar
    39     1     5    1
    40     4     6    1
@<TRIPOS>MOLECULE
*****
 37 40 0 0 0
SMALL
GASTEIGER

@<TRIPOS>ATOM
      1 N         -14.9527   -2.8276   20.3224 N.am    1  UNL1       -0.2683
      2 C         -16.3009   -2.9897   19.6852 C.2     1  UNL1        0.3044
      3 O         -16.4875   -2.6667   18.2323 O.2     1  UNL1       -0.2525
      4 N         -17.4625   -3.4748   20.5009 N.am    1  UNL1       -0.2903
      5 H         -14.8302   -3.0395   21.2760 H       1  UNL1        0.1564
      6 H         -17.3400   -3.6868   21.4544 H       1  UNL1        0.1509
      7 C         -10.2058   -3.5926   18.3521 C.3     1  UNL1        0.0311
      8 C         -11.4176   -2.7249   18.5216 C.ar    1  UNL1       -0.0205
      9 C         -12.5792   -3.2100   19.3372 C.ar    1  UNL1        0.0105
     10 C         -13.7910   -2.3424   19.5067 C.ar    1  UNL1        0.0514
     11 C         -13.8413   -0.9897   18.8605 C.ar    1  UNL1        0.0178
     12 C         -12.6797   -0.5046   18.0448 C.ar    1  UNL1        0.0383
     13 C         -11.4679   -1.3722   17.8753 C.ar    1  UNL1       -0.0011
     14 C         -12.7299    0.8481   17.3986 C.ar    1  UNL1        0.1839
     15 N         -11.7031    1.9322   17.5416 N.ar    1  UNL1       -0.1081
     16 N         -12.1542    3.1084   16.7273 N.ar    1  UNL1       -0.0227
     17 N         -13.4599    2.7512   16.0810 N.ar    1  UNL1       -0.0429
     18 N         -13.8157    1.3543   16.4959 N.ar    1  UNL1       -0.2113
     19 C         -15.0419    0.5966   16.0809 C.3     1  UNL1        0.1573
     20 C         -18.8107   -3.6370   19.8637 C.3     1  UNL1        0.0745
     21 C         -19.8662   -2.5904   20.0652 C.3     1  UNL1        0.0214
     22 C         -19.1034   -4.8456   19.0250 C.3     1  UNL1        0.0369
     23 C         -19.1747   -6.2015   19.6626 C.3     1  UNL1        0.0738
     24 N         -18.1528   -7.2453   19.3216 N.3     1  UNL1       -0.2726
     25 C         -18.1605   -8.5642   20.0361 C.3     1  UNL1        0.0721
     26 C         -17.1386   -9.6079   19.6952 C.3     1  UNL1        0.0174
     27 C         -16.1089   -9.3327   18.6397 C.3     1  UNL1        0.0031
     28 C         -16.1011   -8.0139   17.9252 C.3     1  UNL1        0.0204
     29 C         -17.1231   -6.9702   18.2661 C.3     1  UNL1        0.0724
     30 C         -15.0714   -7.7388   16.8697 C.3     1  UNL1        0.0277
     31 C         -13.6293   -7.5822   17.2515 C.ar    1  UNL1       -0.0220
     32 C         -13.2657   -7.0280   18.5972 C.ar    1  UNL1       -0.0020
     33 C         -11.8236   -6.8715   18.9790 C.ar    1  UNL1        0.0293
     34 C         -10.7451   -7.2691   18.0152 C.ar    1  UNL1        0.1401
     35 F          -9.3030   -7.1125   18.3971 F       1  UNL1       -0.2042
     36 C         -11.1087   -7.8232   16.6696 C.ar    1  UNL1        0.0293
     37 C         -12.5509   -7.9798   16.2878 C.ar    1  UNL1       -0.0020
@<TRIPOS>BOND
     1     7     8    1
     2     8     9   ar
     3     9    10   ar
     4    10     1    1
     5     1     2   am
     6     2     3    2
     7     2     4   am
     8     4    20    1
     9    20    21    1
    10    20    22    1
    11    22    23    1
    12    23    24    1
    13    24    25    1
    14    25    26    1
    15    26    27    1
    16    27    28    1
    17    28    30    1
    18    30    31    1
    19    31    32   ar
    20    32    33   ar
    21    33    34   ar
    22    34    35    1
    23    34    36   ar
    24    36    37   ar
    25    28    29    1
    26    10    11   ar
    27    11    12   ar
    28    12    14    1
    29    14    15   ar
    30    15    16   ar
    31    16    17   ar
    32    17    18   ar
    33    18    19    1
    34    12    13   ar
    35    13     8   ar
    36    29    24    1
    37    18    14   ar
    38    37    31   ar
    39     1     5    1
    40     4     6    1
