@<TRIPOS>MOLECULE
*****
 46 51 0 0 0
SMALL
GASTEIGER

@<TRIPOS>ATOM
      1 C          -2.6747    4.8977   22.1543 C.ar    1  UNL1        0.1348
      2 C          -2.0799    6.0193   22.9531 C.ar    1  UNL1        0.0346
      3 C          -0.6630    5.9265   23.4366 C.ar    1  UNL1        0.0065
      4 C           0.1590    4.7120   23.1213 C.ar    1  UNL1        0.0432
      5 C          -0.4359    3.5905   22.3225 C.ar    1  UNL1        0.1256
      6 N          -1.8527    3.6833   21.8390 N.ar    1  UNL1       -0.2222
      7 C           1.5759    4.6192   23.6049 C.ar    1  UNL1        0.0850
      8 C           2.0419    3.9012   24.8367 C.ar    1  UNL1        0.1005
      9 N           3.5296    4.0663   24.9346 N.ar    1  UNL1       -0.2264
     10 C           3.9831    4.8863   23.7633 C.ar    1  UNL1        0.1474
     11 C           5.3394    5.3660   23.3389 C.ar    1  UNL1        0.0332
     12 C           5.4883    6.1874   22.0926 C.ar    1  UNL1       -0.0174
     13 C           6.8447    6.6671   21.6682 C.3     1  UNL1        0.0312
     14 C           4.2809    6.5292   21.2708 C.ar    1  UNL1        0.0149
     15 C           2.9246    6.0495   21.6952 C.ar    1  UNL1        0.0811
     16 N           2.7756    5.2280   22.9415 N.ar    1  UNL1       -0.2888
     17 C           1.1729    3.1500   25.8012 C.ar    1  UNL1        0.0385
     18 C           0.7115    1.7615   25.4706 C.ar    1  UNL1        0.0079
     19 C          -0.1576    1.0103   26.4351 C.ar    1  UNL1        0.0578
     20 C          -0.5653    1.6475   27.7304 C.ar    1  UNL1        0.2250
     21 N          -0.1040    3.0360   28.0610 N.ar    1  UNL1       -0.2101
     22 C           0.7651    3.7872   27.0964 C.ar    1  UNL1        0.1036
     23 O          -1.4344    0.8963   28.6949 O.3     1  UNL1       -0.4561
     24 C          -1.2991   -0.5919   28.8240 C.3     1  UNL1        0.2542
     25 C          -5.1640    4.1750   22.3300 C.2     1  UNL1        0.2414
     26 O          -4.8196    3.2664   23.4729 O.2     1  UNL1       -0.2733
     27 N          -4.0916    4.9906   21.6708 N.am    1  UNL1       -0.2682
     28 H          -4.3177    5.5869   20.9207 H       1  UNL1        0.1563
     29 C          -6.5809    4.2678   21.8465 C.3     1  UNL1        0.1319
     30 C          -6.8646    4.6555   20.4254 C.3     1  UNL1        0.0270
     31 C          -8.0025    4.9004   23.9271 C.3     1  UNL1        0.0862
     32 N          -7.7142    3.9730   22.7839 N.3     1  UNL1       -0.2902
     33 H          -8.5615    3.9313   22.2176 H       1  UNL1        0.1237
     34 C           0.3862    2.3760   22.0072 C.1     1  UNL1       -0.0404
     35 C           1.2081    1.1615   21.6919 C.1     1  UNL1       -0.0583
     36 C           2.0302   -0.0530   21.3766 C.ar    1  UNL1        0.0420
     37 C           1.9794   -0.6575   20.0048 C.ar    1  UNL1        0.0083
     38 C           2.8014   -1.8719   19.6895 C.ar    1  UNL1        0.0018
     39 C           3.6741   -2.4818   20.7461 C.ar    1  UNL1        0.0137
     40 C           4.4961   -3.6963   20.4308 C.ar    1  UNL1        0.0594
     41 C           4.4454   -4.3009   19.0589 C.3     1  UNL1        0.0521
     42 N           5.3689   -4.3062   21.4873 N.ar    1  UNL1       -0.2481
     43 C           5.4197   -3.7016   22.8592 C.ar    1  UNL1        0.0984
     44 C           4.5977   -2.4872   23.1744 C.ar    1  UNL1        0.0207
     45 C           3.7249   -1.8773   22.1179 C.ar    1  UNL1        0.0033
     46 C           2.9029   -0.6629   22.4332 C.ar    1  UNL1        0.0083
@<TRIPOS>BOND
     1    31    32    1
     2    32    29    1
     3    29    30    1
     4    29    25    1
     5    25    26    2
     6    25    27   am
     7    27     1    1
     8     1     2   ar
     9     2     3   ar
    10     3     4   ar
    11     4     7    1
    12     7     8   ar
    13     8    17    1
    14    17    18   ar
    15    18    19   ar
    16    19    20   ar
    17    20    23    1
    18    23    24    1
    19    20    21   ar
    20    21    22   ar
    21     8     9   ar
    22     9    10   ar
    23    10    11   ar
    24    11    12   ar
    25    12    13    1
    26    12    14   ar
    27    14    15   ar
    28    15    16   ar
    29     4     5   ar
    30     5    34    1
    31    34    35    3
    32    35    36    1
    33    36    37   ar
    34    37    38   ar
    35    38    39   ar
    36    39    40   ar
    37    40    41    1
    38    40    42   ar
    39    42    43   ar
    40    43    44   ar
    41    44    45   ar
    42    45    46   ar
    43     5     6   ar
    44     6     1   ar
    45    16     7   ar
    46    46    36   ar
    47    22    17   ar
    48    16    10   ar
    49    45    39   ar
    50    32    33    1
    51    27    28    1
@<TRIPOS>MOLECULE
*****
 46 51 0 0 0
SMALL
GASTEIGER

@<TRIPOS>ATOM
      1 C           4.1881   -0.8341   30.7392 C.ar    1  UNL1        0.1348
      2 C           5.4972   -1.4097   31.1918 C.ar    1  UNL1        0.0346
      3 C           6.4684   -1.9482   30.1834 C.ar    1  UNL1        0.0065
      4 C           6.1305   -1.9110   28.7224 C.ar    1  UNL1        0.0432
      5 C           4.8214   -1.3353   28.2699 C.ar    1  UNL1        0.1256
      6 N           3.8502   -0.7968   29.2783 N.ar    1  UNL1       -0.2222
      7 C           7.1017   -2.4494   27.7141 C.ar    1  UNL1        0.0850
      8 C           8.1504   -1.6582   26.9901 C.ar    1  UNL1        0.1005
      9 N           8.8915   -2.5934   26.0811 N.ar    1  UNL1       -0.2264
     10 C           8.3009   -3.9626   26.2434 C.ar    1  UNL1        0.1474
     11 C           8.6274   -5.2790   25.6026 C.ar    1  UNL1        0.0332
     12 C           7.8477   -6.5063   25.9710 C.ar    1  UNL1       -0.0174
     13 C           8.1742   -7.8226   25.3302 C.3     1  UNL1        0.0312
     14 C           6.7415   -6.4174   26.9802 C.ar    1  UNL1        0.0149
     15 C           6.4150   -5.1010   27.6210 C.ar    1  UNL1        0.0811
     16 N           7.1947   -3.8736   27.2526 N.ar    1  UNL1       -0.2888
     17 C           8.4120   -0.1896   27.1473 C.ar    1  UNL1        0.0385
     18 C           7.8229    0.7859   26.1718 C.ar    1  UNL1        0.0079
     19 C           8.0846    2.2545   26.3291 C.ar    1  UNL1        0.0578
     20 C           8.9353    2.7477   27.4618 C.ar    1  UNL1        0.2250
     21 N           9.5244    1.7722   28.4372 N.ar    1  UNL1       -0.2101
     22 C           9.2627    0.3036   28.2800 C.ar    1  UNL1        0.1036
     23 O           9.1970    4.2163   27.6191 O.3     1  UNL1       -0.4561
     24 C           8.1093    5.2072   27.3277 C.3     1  UNL1        0.2542
     25 C           3.2054    1.1693   32.0700 C.2     1  UNL1        0.2414
     26 O           4.1652    2.0958   31.3841 O.2     1  UNL1       -0.2733
     27 N           3.2169   -0.2956   31.7476 N.am    1  UNL1       -0.2682
     28 H           2.5870   -0.9037   32.1978 H       1  UNL1        0.1563
     29 C           2.2343    1.7077   33.0784 C.3     1  UNL1        0.1319
     30 C           2.6938    2.0141   34.4731 C.3     1  UNL1        0.0270
     31 C           0.4389    2.1411   31.2512 C.3     1  UNL1        0.0862
     32 N           0.8036    1.9398   32.6922 N.3     1  UNL1       -0.2902
     33 H           0.2753    1.1309   33.0194 H       1  UNL1        0.1237
     34 C           4.4834   -1.2981   26.8089 C.1     1  UNL1       -0.0404
     35 C           4.1455   -1.2608   25.3479 C.1     1  UNL1       -0.0583
     36 C           3.8076   -1.2236   23.8869 C.ar    1  UNL1        0.0420
     37 C           2.9070   -0.1497   23.3526 C.ar    1  UNL1        0.0083
     38 C           2.5690   -0.1125   21.8917 C.ar    1  UNL1        0.0018
     39 C           3.1318   -1.1492   20.9651 C.ar    1  UNL1        0.0137
     40 C           2.7938   -1.1120   19.5040 C.ar    1  UNL1        0.0594
     41 C           1.8932   -0.0381   18.9697 C.3     1  UNL1        0.0521
     42 N           3.3565   -2.1487   18.5774 N.ar    1  UNL1       -0.2481
     43 C           4.2572   -3.2227   19.1119 C.ar    1  UNL1        0.0984
     44 C           4.5951   -3.2598   20.5728 C.ar    1  UNL1        0.0207
     45 C           4.0324   -2.2231   21.4994 C.ar    1  UNL1        0.0033
     46 C           4.3703   -2.2603   22.9603 C.ar    1  UNL1        0.0083
@<TRIPOS>BOND
     1    31    32    1
     2    32    29    1
     3    29    30    1
     4    29    25    1
     5    25    26    2
     6    25    27   am
     7    27     1    1
     8     1     2   ar
     9     2     3   ar
    10     3     4   ar
    11     4     7    1
    12     7     8   ar
    13     8    17    1
    14    17    18   ar
    15    18    19   ar
    16    19    20   ar
    17    20    23    1
    18    23    24    1
    19    20    21   ar
    20    21    22   ar
    21     8     9   ar
    22     9    10   ar
    23    10    11   ar
    24    11    12   ar
    25    12    13    1
    26    12    14   ar
    27    14    15   ar
    28    15    16   ar
    29     4     5   ar
    30     5    34    1
    31    34    35    3
    32    35    36    1
    33    36    37   ar
    34    37    38   ar
    35    38    39   ar
    36    39    40   ar
    37    40    41    1
    38    40    42   ar
    39    42    43   ar
    40    43    44   ar
    41    44    45   ar
    42    45    46   ar
    43     5     6   ar
    44     6     1   ar
    45    16     7   ar
    46    46    36   ar
    47    22    17   ar
    48    16    10   ar
    49    45    39   ar
    50    32    33    1
    51    27    28    1
@<TRIPOS>MOLECULE
*****
 46 51 0 0 0
SMALL
GASTEIGER

@<TRIPOS>ATOM
      1 C          -2.7785    4.9375   22.2369 C.ar    1  UNL1        0.1348
      2 C          -2.2381    5.8756   23.2751 C.ar    1  UNL1        0.0346
      3 C          -0.8097    5.7611   23.7185 C.ar    1  UNL1        0.0065
      4 C           0.0782    4.7086   23.1238 C.ar    1  UNL1        0.0432
      5 C          -0.4623    3.7705   22.0856 C.ar    1  UNL1        0.1256
      6 N          -1.8906    3.8849   21.6422 N.ar    1  UNL1       -0.2222
      7 C           1.5066    4.5941   23.5673 C.ar    1  UNL1        0.0850
      8 C           1.9972    3.8598   24.7797 C.ar    1  UNL1        0.1005
      9 N           3.4890    4.0057   24.8380 N.ar    1  UNL1       -0.2264
     10 C           3.9203    4.8303   23.6615 C.ar    1  UNL1        0.1474
     11 C           5.2704    5.2970   23.2039 C.ar    1  UNL1        0.0332
     12 C           5.3953    6.1274   21.9610 C.ar    1  UNL1       -0.0174
     13 C           6.7454    6.5941   21.5033 C.3     1  UNL1        0.0312
     14 C           4.1701    6.4911   21.1756 C.ar    1  UNL1        0.0149
     15 C           2.8200    6.0243   21.6332 C.ar    1  UNL1        0.0811
     16 N           2.6951    5.1939   22.8762 N.ar    1  UNL1       -0.2888
     17 C           1.1456    3.1109   25.7616 C.ar    1  UNL1        0.0385
     18 C           0.7165    3.7708   27.0385 C.ar    1  UNL1        0.0079
     19 C          -0.1351    3.0219   28.0204 C.ar    1  UNL1        0.0578
     20 C          -0.5576    1.6132   27.7253 C.ar    1  UNL1        0.2250
     21 N          -0.1285    0.9534   26.4484 N.ar    1  UNL1       -0.2101
     22 C           0.7231    1.7023   25.4666 C.ar    1  UNL1        0.1036
     23 O          -1.4092    0.8643   28.7072 O.3     1  UNL1       -0.4561
     24 C          -1.3597   -0.6341   28.7528 C.3     1  UNL1        0.2542
     25 C          -5.2700    4.2391   22.4709 C.2     1  UNL1        0.2414
     26 O          -4.9048    3.3118   23.5920 O.2     1  UNL1       -0.2733
     27 N          -4.2069    5.0519   21.7934 N.am    1  UNL1       -0.2682
     28 H          -4.4466    5.6605   21.0576 H       1  UNL1        0.1563
     29 C          -6.6984    4.3536   22.0275 C.3     1  UNL1        0.1319
     30 C          -7.0183    4.8570   20.6511 C.3     1  UNL1        0.0270
     31 C          -8.2068    4.8854   24.0748 C.3     1  UNL1        0.0862
     32 N          -7.8068    3.9646   22.9603 N.3     1  UNL1       -0.2902
     33 H          -8.6372    3.8190   22.3862 H       1  UNL1        0.1237
     34 C           0.4257    2.7179   21.4909 C.1     1  UNL1       -0.0404
     35 C           1.3136    1.6654   20.8961 C.1     1  UNL1       -0.0583
     36 C           2.2015    0.6127   20.3013 C.ar    1  UNL1        0.0420
     37 C           1.9051   -0.8388   20.5363 C.ar    1  UNL1        0.0083
     38 C           2.7931   -1.8913   19.9415 C.ar    1  UNL1        0.0018
     39 C           3.9773   -1.4923   19.1118 C.ar    1  UNL1        0.0137
     40 C           4.8652   -2.5449   18.5171 C.ar    1  UNL1        0.0594
     41 C           4.5689   -3.9964   18.7520 C.3     1  UNL1        0.0521
     42 N           6.0495   -2.1459   17.6874 N.ar    1  UNL1       -0.2481
     43 C           6.3458   -0.6943   17.4525 C.ar    1  UNL1        0.0984
     44 C           5.4579    0.3582   18.0472 C.ar    1  UNL1        0.0207
     45 C           4.2736   -0.0408   18.8769 C.ar    1  UNL1        0.0033
     46 C           3.3857    1.0117   19.4717 C.ar    1  UNL1        0.0083
@<TRIPOS>BOND
     1    31    32    1
     2    32    29    1
     3    29    30    1
     4    29    25    1
     5    25    26    2
     6    25    27   am
     7    27     1    1
     8     1     2   ar
     9     2     3   ar
    10     3     4   ar
    11     4     7    1
    12     7     8   ar
    13     8    17    1
    14    17    18   ar
    15    18    19   ar
    16    19    20   ar
    17    20    23    1
    18    23    24    1
    19    20    21   ar
    20    21    22   ar
    21     8     9   ar
    22     9    10   ar
    23    10    11   ar
    24    11    12   ar
    25    12    13    1
    26    12    14   ar
    27    14    15   ar
    28    15    16   ar
    29     4     5   ar
    30     5    34    1
    31    34    35    3
    32    35    36    1
    33    36    37   ar
    34    37    38   ar
    35    38    39   ar
    36    39    40   ar
    37    40    41    1
    38    40    42   ar
    39    42    43   ar
    40    43    44   ar
    41    44    45   ar
    42    45    46   ar
    43     5     6   ar
    44     6     1   ar
    45    16     7   ar
    46    46    36   ar
    47    22    17   ar
    48    16    10   ar
    49    45    39   ar
    50    32    33    1
    51    27    28    1
@<TRIPOS>MOLECULE
*****
 46 51 0 0 0
SMALL
GASTEIGER

@<TRIPOS>ATOM
      1 C          -0.5746    2.6761   27.2215 C.ar    1  UNL1        0.1348
      2 C          -1.4773    3.7972   26.7993 C.ar    1  UNL1        0.0346
      3 C          -1.6152    4.1423   25.3460 C.ar    1  UNL1        0.0065
      4 C          -0.8505    3.3663   24.3150 C.ar    1  UNL1        0.0432
      5 C           0.0522    2.2453   24.7372 C.ar    1  UNL1        0.1256
      6 N           0.1902    1.9002   26.1905 N.ar    1  UNL1       -0.2222
      7 C          -0.9884    3.7114   22.8618 C.ar    1  UNL1        0.0850
      8 C           0.0982    4.2426   21.9747 C.ar    1  UNL1        0.1005
      9 N          -0.4790    4.4454   20.6051 N.ar    1  UNL1       -0.2264
     10 C          -1.9225    4.0395   20.6458 C.ar    1  UNL1        0.1474
     11 C          -2.9909    4.0244   19.5930 C.ar    1  UNL1        0.0332
     12 C          -4.3741    3.5556   19.9350 C.ar    1  UNL1       -0.0174
     13 C          -5.4425    3.5405   18.8822 C.3     1  UNL1        0.0312
     14 C          -4.6890    3.1020   21.3296 C.ar    1  UNL1        0.0149
     15 C          -3.6206    3.1171   22.3824 C.ar    1  UNL1        0.0811
     16 N          -2.2373    3.5859   22.0405 N.ar    1  UNL1       -0.2888
     17 C           1.5137    4.5220   22.3851 C.ar    1  UNL1        0.0385
     18 C           2.6511    3.9306   21.6061 C.ar    1  UNL1        0.0079
     19 C           4.0666    4.2100   22.0165 C.ar    1  UNL1        0.0578
     20 C           4.3447    5.0808   23.2058 C.ar    1  UNL1        0.2250
     21 N           3.2073    5.6721   23.9847 N.ar    1  UNL1       -0.2101
     22 C           1.7919    5.3927   23.5743 C.ar    1  UNL1        0.1036
     23 O           5.7601    5.3602   23.6162 O.3     1  UNL1       -0.4561
     24 C           6.7353    5.9114   22.6186 C.3     1  UNL1        0.2542
     25 C           0.8384    2.6410   29.4014 C.2     1  UNL1        0.2414
     26 O           1.9756    3.2961   28.6749 O.2     1  UNL1       -0.2733
     27 N          -0.4366    2.3310   28.6747 N.am    1  UNL1       -0.2682
     28 H          -1.1829    1.9010   29.1515 H       1  UNL1        0.1563
     29 C           0.9764    2.2959   30.8546 C.3     1  UNL1        0.1319
     30 C           0.5166    3.2656   31.9027 C.3     1  UNL1        0.0270
     31 C           2.0861    0.0358   30.2138 C.3     1  UNL1        0.0862
     32 N           1.5741    0.9812   31.2598 N.3     1  UNL1       -0.2902
     33 H           2.3593    1.1921   31.8758 H       1  UNL1        0.1237
     34 C           0.8170    1.4692   23.7062 C.1     1  UNL1       -0.0404
     35 C           1.5818    0.6933   22.6752 C.1     1  UNL1       -0.0583
     36 C           2.3466   -0.0827   21.6442 C.ar    1  UNL1        0.0420
     37 C           3.1002   -1.3173   22.0413 C.ar    1  UNL1        0.0083
     38 C           3.8650   -2.0933   21.0103 C.ar    1  UNL1        0.0018
     39 C           3.8760   -1.6346   19.5822 C.ar    1  UNL1        0.0137
     40 C           4.6408   -2.4107   18.5511 C.ar    1  UNL1        0.0594
     41 C           5.3945   -3.6452   18.9483 C.3     1  UNL1        0.0521
     42 N           4.6519   -1.9520   17.1230 N.ar    1  UNL1       -0.2481
     43 C           3.8982   -0.7174   16.7259 C.ar    1  UNL1        0.0984
     44 C           3.1334    0.0586   17.7569 C.ar    1  UNL1        0.0207
     45 C           3.1224   -0.4001   19.1851 C.ar    1  UNL1        0.0033
     46 C           2.3576    0.3759   20.2161 C.ar    1  UNL1        0.0083
@<TRIPOS>BOND
     1    31    32    1
     2    32    29    1
     3    29    30    1
     4    29    25    1
     5    25    26    2
     6    25    27   am
     7    27     1    1
     8     1     2   ar
     9     2     3   ar
    10     3     4   ar
    11     4     7    1
    12     7     8   ar
    13     8    17    1
    14    17    18   ar
    15    18    19   ar
    16    19    20   ar
    17    20    23    1
    18    23    24    1
    19    20    21   ar
    20    21    22   ar
    21     8     9   ar
    22     9    10   ar
    23    10    11   ar
    24    11    12   ar
    25    12    13    1
    26    12    14   ar
    27    14    15   ar
    28    15    16   ar
    29     4     5   ar
    30     5    34    1
    31    34    35    3
    32    35    36    1
    33    36    37   ar
    34    37    38   ar
    35    38    39   ar
    36    39    40   ar
    37    40    41    1
    38    40    42   ar
    39    42    43   ar
    40    43    44   ar
    41    44    45   ar
    42    45    46   ar
    43     5     6   ar
    44     6     1   ar
    45    16     7   ar
    46    46    36   ar
    47    22    17   ar
    48    16    10   ar
    49    45    39   ar
    50    32    33    1
    51    27    28    1
@<TRIPOS>MOLECULE
*****
 46 51 0 0 0
SMALL
GASTEIGER

@<TRIPOS>ATOM
      1 C          -2.9814    4.5714   24.3193 C.ar    1  UNL1        0.1348
      2 C          -2.5572    4.9777   25.6995 C.ar    1  UNL1        0.0346
      3 C          -1.2534    4.4891   26.2577 C.ar    1  UNL1        0.0065
      4 C          -0.3739    3.5942   25.4358 C.ar    1  UNL1        0.0432
      5 C          -0.7982    3.1879   24.0556 C.ar    1  UNL1        0.1256
      6 N          -2.1019    3.6765   23.4974 N.ar    1  UNL1       -0.2222
      7 C           0.9298    3.1057   25.9940 C.ar    1  UNL1        0.0850
      8 C           2.2962    3.5282   25.5418 C.ar    1  UNL1        0.1005
      9 N           3.3069    2.7924   26.3708 N.ar    1  UNL1       -0.2264
     10 C           2.5651    1.9152   27.3353 C.ar    1  UNL1        0.1474
     11 C           3.0376    0.9652   28.3956 C.ar    1  UNL1        0.0332
     12 C           2.0410    0.2088   29.2230 C.ar    1  UNL1       -0.0174
     13 C           2.5136   -0.7413   30.2832 C.3     1  UNL1        0.0312
     14 C           0.5719    0.4023   28.9901 C.ar    1  UNL1        0.0149
     15 C           0.0994    1.3523   27.9299 C.ar    1  UNL1        0.0811
     16 N           1.0960    2.1088   27.1025 N.ar    1  UNL1       -0.2888
     17 C           2.5988    4.5134   24.4520 C.ar    1  UNL1        0.0385
     18 C           3.3193    4.0655   23.2149 C.ar    1  UNL1        0.0079
     19 C           3.6219    5.0508   22.1250 C.ar    1  UNL1        0.0578
     20 C           3.2040    6.4839   22.2723 C.ar    1  UNL1        0.2250
     21 N           2.4835    6.9317   23.5093 N.ar    1  UNL1       -0.2101
     22 C           2.1809    5.9464   24.5992 C.ar    1  UNL1        0.1036
     23 O           3.5066    7.4691   21.1824 O.3     1  UNL1       -0.4561
     24 C           2.5063    7.7110   20.0912 C.3     1  UNL1        0.2542
     25 C          -5.5726    4.4264   24.1981 C.2     1  UNL1        0.2414
     26 O          -5.5564    3.3043   25.1934 O.2     1  UNL1       -0.2733
     27 N          -4.2851    5.0599   23.7611 N.am    1  UNL1       -0.2682
     28 H          -4.2957    5.7964   23.1078 H       1  UNL1        0.1563
     29 C          -6.8763    4.9150   23.6399 C.3     1  UNL1        0.1319
     30 C          -7.6196    6.0210   24.3286 C.3     1  UNL1        0.0270
     31 C          -6.7018    4.4347   21.0926 C.3     1  UNL1        0.0862
     32 N          -7.4367    4.2976   22.3930 N.3     1  UNL1       -0.2902
     33 H          -7.5289    3.2983   22.5751 H       1  UNL1        0.1237
     34 C           0.0814    2.2930   23.2336 C.1     1  UNL1       -0.0404
     35 C           0.9608    1.3981   22.4116 C.1     1  UNL1       -0.0583
     36 C           1.8404    0.5032   21.5896 C.ar    1  UNL1        0.0420
     37 C           2.5925   -0.6168   22.2451 C.ar    1  UNL1        0.0083
     38 C           3.4719   -1.5117   21.4231 C.ar    1  UNL1        0.0018
     39 C           3.5993   -1.2865   19.9456 C.ar    1  UNL1        0.0137
     40 C           4.4788   -2.1815   19.1236 C.ar    1  UNL1        0.0594
     41 C           5.2309   -3.3015   19.7791 C.3     1  UNL1        0.0521
     42 N           4.6061   -1.9563   17.6461 N.ar    1  UNL1       -0.2481
     43 C           3.8539   -0.8362   16.9906 C.ar    1  UNL1        0.0984
     44 C           2.9745    0.0587   17.8126 C.ar    1  UNL1        0.0207
     45 C           2.8471   -0.1665   19.2901 C.ar    1  UNL1        0.0033
     46 C           1.9677    0.7284   20.1121 C.ar    1  UNL1        0.0083
@<TRIPOS>BOND
     1    31    32    1
     2    32    29    1
     3    29    30    1
     4    29    25    1
     5    25    26    2
     6    25    27   am
     7    27     1    1
     8     1     2   ar
     9     2     3   ar
    10     3     4   ar
    11     4     7    1
    12     7     8   ar
    13     8    17    1
    14    17    18   ar
    15    18    19   ar
    16    19    20   ar
    17    20    23    1
    18    23    24    1
    19    20    21   ar
    20    21    22   ar
    21     8     9   ar
    22     9    10   ar
    23    10    11   ar
    24    11    12   ar
    25    12    13    1
    26    12    14   ar
    27    14    15   ar
    28    15    16   ar
    29     4     5   ar
    30     5    34    1
    31    34    35    3
    32    35    36    1
    33    36    37   ar
    34    37    38   ar
    35    38    39   ar
    36    39    40   ar
    37    40    41    1
    38    40    42   ar
    39    42    43   ar
    40    43    44   ar
    41    44    45   ar
    42    45    46   ar
    43     5     6   ar
    44     6     1   ar
    45    16     7   ar
    46    46    36   ar
    47    22    17   ar
    48    16    10   ar
    49    45    39   ar
    50    32    33    1
    51    27    28    1
@<TRIPOS>MOLECULE
*****
 46 51 0 0 0
SMALL
GASTEIGER

@<TRIPOS>ATOM
      1 C           6.9198   -2.7949   28.0446 C.ar    1  UNL1        0.1348
      2 C           7.8066   -3.0882   26.8709 C.ar    1  UNL1        0.0346
      3 C           7.4434   -2.5740   25.5095 C.ar    1  UNL1        0.0065
      4 C           6.1933   -1.7665   25.3216 C.ar    1  UNL1        0.0432
      5 C           5.3065   -1.4732   26.4953 C.ar    1  UNL1        0.1256
      6 N           5.6698   -1.9874   27.8568 N.ar    1  UNL1       -0.2222
      7 C           5.8301   -1.2522   23.9601 C.ar    1  UNL1        0.0850
      8 C           5.9778    0.1624   23.4836 C.ar    1  UNL1        0.1005
      9 N           5.4944    0.2266   22.0651 N.ar    1  UNL1       -0.2264
     10 C           5.0480   -1.1484   21.6649 C.ar    1  UNL1        0.1474
     11 C           4.4794   -1.6863   20.3853 C.ar    1  UNL1        0.0332
     12 C           4.1183   -3.1381   20.2769 C.ar    1  UNL1       -0.0174
     13 C           3.5497   -3.6760   18.9973 C.3     1  UNL1        0.0312
     14 C           4.3257   -4.0521   21.4481 C.ar    1  UNL1        0.0149
     15 C           4.8944   -3.5142   22.7277 C.ar    1  UNL1        0.0811
     16 N           5.2555   -2.0623   22.8361 N.ar    1  UNL1       -0.2888
     17 C           6.5146    1.3112   24.2850 C.ar    1  UNL1        0.0385
     18 C           5.5862    2.3834   24.7737 C.ar    1  UNL1        0.0079
     19 C           6.1230    3.5322   25.5750 C.ar    1  UNL1        0.0578
     20 C           7.5881    3.6088   25.8877 C.ar    1  UNL1        0.2250
     21 N           8.5163    2.5367   25.3991 N.ar    1  UNL1       -0.2101
     22 C           7.9795    1.3879   24.5977 C.ar    1  UNL1        0.1036
     23 O           8.1248    4.7576   26.6891 O.3     1  UNL1       -0.4561
     24 C           7.4367    5.1755   27.9546 C.3     1  UNL1        0.2542
     25 C           6.9137   -4.7078   29.8026 C.2     1  UNL1        0.2414
     26 O           6.1812   -5.5924   28.8376 O.2     1  UNL1       -0.2733
     27 N           7.2830   -3.3091   29.4061 N.am    1  UNL1       -0.2682
     28 H           7.7637   -2.7286   30.0394 H       1  UNL1        0.1563
     29 C           7.2770   -5.2221   31.1641 C.3     1  UNL1        0.1319
     30 C           8.4616   -6.1267   31.3327 C.3     1  UNL1        0.0270
     31 C           5.9456   -3.4273   32.4893 C.3     1  UNL1        0.0862
     32 N           6.4556   -4.8317   32.3570 N.3     1  UNL1       -0.2902
     33 H           5.6394   -5.4434   32.3653 H       1  UNL1        0.1237
     34 C           4.0564   -0.6656   26.3075 C.1     1  UNL1       -0.0404
     35 C           2.8064    0.1418   26.1197 C.1     1  UNL1       -0.0583
     36 C           1.5563    0.9494   25.9319 C.ar    1  UNL1        0.0420
     37 C           0.6585    1.2248   27.1015 C.ar    1  UNL1        0.0083
     38 C          -0.5915    2.0323   26.9137 C.ar    1  UNL1        0.0018
     39 C          -0.9438    2.5644   25.5562 C.ar    1  UNL1        0.0137
     40 C          -2.1939    3.3719   25.3684 C.ar    1  UNL1        0.0594
     41 C          -3.0916    3.6474   26.5381 C.3     1  UNL1        0.0521
     42 N          -2.5462    3.9040   24.0109 N.ar    1  UNL1       -0.2481
     43 C          -1.6483    3.6285   22.8412 C.ar    1  UNL1        0.0984
     44 C          -0.3983    2.8210   23.0290 C.ar    1  UNL1        0.0207
     45 C          -0.0460    2.2890   24.3865 C.ar    1  UNL1        0.0033
     46 C           1.2040    1.4815   24.5744 C.ar    1  UNL1        0.0083
@<TRIPOS>BOND
     1    31    32    1
     2    32    29    1
     3    29    30    1
     4    29    25    1
     5    25    26    2
     6    25    27   am
     7    27     1    1
     8     1     2   ar
     9     2     3   ar
    10     3     4   ar
    11     4     7    1
    12     7     8   ar
    13     8    17    1
    14    17    18   ar
    15    18    19   ar
    16    19    20   ar
    17    20    23    1
    18    23    24    1
    19    20    21   ar
    20    21    22   ar
    21     8     9   ar
    22     9    10   ar
    23    10    11   ar
    24    11    12   ar
    25    12    13    1
    26    12    14   ar
    27    14    15   ar
    28    15    16   ar
    29     4     5   ar
    30     5    34    1
    31    34    35    3
    32    35    36    1
    33    36    37   ar
    34    37    38   ar
    35    38    39   ar
    36    39    40   ar
    37    40    41    1
    38    40    42   ar
    39    42    43   ar
    40    43    44   ar
    41    44    45   ar
    42    45    46   ar
    43     5     6   ar
    44     6     1   ar
    45    16     7   ar
    46    46    36   ar
    47    22    17   ar
    48    16    10   ar
    49    45    39   ar
    50    32    33    1
    51    27    28    1
@<TRIPOS>MOLECULE
*****
 46 51 0 0 0
SMALL
GASTEIGER

@<TRIPOS>ATOM
      1 C           5.6267   -2.2678   26.2349 C.ar    1  UNL1        0.1348
      2 C           6.7211   -1.8368   25.3041 C.ar    1  UNL1        0.0346
      3 C           6.5185   -0.6529   24.4055 C.ar    1  UNL1        0.0065
      4 C           5.2215    0.0999   24.4378 C.ar    1  UNL1        0.0432
      5 C           4.1272   -0.3311   25.3687 C.ar    1  UNL1        0.1256
      6 N           4.3298   -1.5150   26.2672 N.ar    1  UNL1       -0.2222
      7 C           5.0189    1.2838   23.5393 C.ar    1  UNL1        0.0850
      8 C           4.5948    1.2369   22.1013 C.ar    1  UNL1        0.1005
      9 N           4.5186    2.6466   21.5942 N.ar    1  UNL1       -0.2264
     10 C           4.8957    3.5647   22.7189 C.ar    1  UNL1        0.1474
     11 C           4.9974    5.0588   22.8037 C.ar    1  UNL1        0.0332
     12 C           5.4084    5.7107   24.0906 C.ar    1  UNL1       -0.0174
     13 C           5.5101    7.2049   24.1754 C.3     1  UNL1        0.0312
     14 C           5.7176    4.8685   25.2928 C.ar    1  UNL1        0.0149
     15 C           5.6158    3.3744   25.2080 C.ar    1  UNL1        0.0811
     16 N           5.2049    2.7225   23.9210 N.ar    1  UNL1       -0.2888
     17 C           4.2988   -0.0021   21.3093 C.ar    1  UNL1        0.0385
     18 C           2.8835   -0.3373   20.9421 C.ar    1  UNL1        0.0079
     19 C           2.5875   -1.5763   20.1502 C.ar    1  UNL1        0.0578
     20 C           3.7067   -2.4801   19.7253 C.ar    1  UNL1        0.2250
     21 N           5.1219   -2.1449   20.0925 N.ar    1  UNL1       -0.2101
     22 C           5.4179   -0.9059   20.8844 C.ar    1  UNL1        0.1036
     23 O           3.4107   -3.7191   18.9333 O.3     1  UNL1       -0.4561
     24 C           4.3906   -4.8547   18.9233 C.3     1  UNL1        0.2542
     25 C           6.4661   -3.2714   28.4795 C.2     1  UNL1        0.2414
     26 O           6.9003   -1.9071   28.9271 O.2     1  UNL1       -0.2733
     27 N           5.8293   -3.4517   27.1335 N.am    1  UNL1       -0.2682
     28 H           5.5443   -4.3471   26.8397 H       1  UNL1        0.1563
     29 C           6.6687   -4.4553   29.3781 C.3     1  UNL1        0.1319
     30 C           6.8562   -4.2542   30.8527 C.3     1  UNL1        0.0270
     31 C           7.9724   -6.6033   28.7176 C.3     1  UNL1        0.0862
     32 N           6.6838   -5.8401   28.8020 N.3     1  UNL1       -0.2902
     33 H           6.0459   -6.4009   29.3669 H       1  UNL1        0.1237
     34 C           2.8301    0.4218   25.4011 C.1     1  UNL1       -0.0404
     35 C           1.5331    1.1745   25.4334 C.1     1  UNL1       -0.0583
     36 C           0.2361    1.9274   25.4657 C.ar    1  UNL1        0.0420
     37 C          -0.5034    2.0920   26.7603 C.ar    1  UNL1        0.0083
     38 C          -1.8004    2.8448   26.7926 C.ar    1  UNL1        0.0018
     39 C          -2.3578    3.4331   25.5303 C.ar    1  UNL1        0.0137
     40 C          -3.6549    4.1859   25.5627 C.ar    1  UNL1        0.0594
     41 C          -4.3944    4.3505   26.8573 C.3     1  UNL1        0.0521
     42 N          -4.2123    4.7741   24.3004 N.ar    1  UNL1       -0.2481
     43 C          -3.4727    4.6095   23.0058 C.ar    1  UNL1        0.0984
     44 C          -2.1757    3.8566   22.9735 C.ar    1  UNL1        0.0207
     45 C          -1.6183    3.2684   24.2358 C.ar    1  UNL1        0.0033
     46 C          -0.3213    2.5156   24.2035 C.ar    1  UNL1        0.0083
@<TRIPOS>BOND
     1    31    32    1
     2    32    29    1
     3    29    30    1
     4    29    25    1
     5    25    26    2
     6    25    27   am
     7    27     1    1
     8     1     2   ar
     9     2     3   ar
    10     3     4   ar
    11     4     7    1
    12     7     8   ar
    13     8    17    1
    14    17    18   ar
    15    18    19   ar
    16    19    20   ar
    17    20    23    1
    18    23    24    1
    19    20    21   ar
    20    21    22   ar
    21     8     9   ar
    22     9    10   ar
    23    10    11   ar
    24    11    12   ar
    25    12    13    1
    26    12    14   ar
    27    14    15   ar
    28    15    16   ar
    29     4     5   ar
    30     5    34    1
    31    34    35    3
    32    35    36    1
    33    36    37   ar
    34    37    38   ar
    35    38    39   ar
    36    39    40   ar
    37    40    41    1
    38    40    42   ar
    39    42    43   ar
    40    43    44   ar
    41    44    45   ar
    42    45    46   ar
    43     5     6   ar
    44     6     1   ar
    45    16     7   ar
    46    46    36   ar
    47    22    17   ar
    48    16    10   ar
    49    45    39   ar
    50    32    33    1
    51    27    28    1
@<TRIPOS>MOLECULE
*****
 46 51 0 0 0
SMALL
GASTEIGER

@<TRIPOS>ATOM
      1 C           2.8428   -0.1677   29.8303 C.ar    1  UNL1        0.1348
      2 C           2.2649    1.1923   30.0876 C.ar    1  UNL1        0.0346
      3 C           1.9372    2.0978   28.9376 C.ar    1  UNL1        0.0065
      4 C           2.1874    1.6433   27.5302 C.ar    1  UNL1        0.0432
      5 C           2.7653    0.2833   27.2729 C.ar    1  UNL1        0.1256
      6 N           3.0930   -0.6222   28.4230 N.ar    1  UNL1       -0.2222
      7 C           1.8597    2.5488   26.3801 C.ar    1  UNL1        0.0850
      8 C           2.8506    3.2775   25.5215 C.ar    1  UNL1        0.1005
      9 N           2.0869    4.0637   24.4975 N.ar    1  UNL1       -0.2264
     10 C           0.6240    3.8209   24.7232 C.ar    1  UNL1        0.1474
     11 C          -0.5984    4.3314   24.0195 C.ar    1  UNL1        0.0332
     12 C          -1.9612    3.9056   24.4794 C.ar    1  UNL1       -0.0174
     13 C          -3.1836    4.4161   23.7757 C.3     1  UNL1        0.0312
     14 C          -2.1017    2.9694   25.6429 C.ar    1  UNL1        0.0149
     15 C          -0.8793    2.4589   26.3466 C.ar    1  UNL1        0.0811
     16 N           0.4836    2.8847   25.8867 N.ar    1  UNL1       -0.2888
     17 C           4.3432    3.2286   25.6623 C.ar    1  UNL1        0.0385
     18 C           5.1726    2.5383   24.6202 C.ar    1  UNL1        0.0079
     19 C           6.6652    2.4894   24.7610 C.ar    1  UNL1        0.0578
     20 C           7.3284    3.1307   25.9437 C.ar    1  UNL1        0.2250
     21 N           6.4990    3.8209   26.9857 N.ar    1  UNL1       -0.2101
     22 C           5.0065    3.8698   26.8449 C.ar    1  UNL1        0.1036
     23 O           8.8210    3.0818   26.0844 O.3     1  UNL1       -0.4561
     24 C           9.5340    1.7624   26.0567 C.3     1  UNL1        0.2542
     25 C           4.5991   -1.2830   31.3864 C.2     1  UNL1        0.2414
     26 O           5.7002   -0.5872   30.6423 O.2     1  UNL1       -0.2733
     27 N           3.1705   -1.0732   30.9804 N.am    1  UNL1       -0.2682
     28 H           2.4478   -1.5299   31.4688 H       1  UNL1        0.1563
     29 C           4.9268   -2.1885   32.5365 C.3     1  UNL1        0.1319
     30 C           5.9812   -3.2443   32.3830 C.3     1  UNL1        0.0270
     31 C           4.6052   -0.9636   34.8050 C.3     1  UNL1        0.0862
     32 N           4.2001   -2.0382   33.8400 N.3     1  UNL1       -0.2902
     33 H           3.2190   -1.8757   33.6132 H       1  UNL1        0.1237
     34 C           3.0155   -0.1713   25.8655 C.1     1  UNL1       -0.0404
     35 C           3.2658   -0.6260   24.4581 C.1     1  UNL1       -0.0583
     36 C           3.5160   -1.0806   23.0507 C.ar    1  UNL1        0.0420
     37 C           4.1745   -2.4040   22.7959 C.ar    1  UNL1        0.0083
     38 C           4.4247   -2.8585   21.3885 C.ar    1  UNL1        0.0018
     39 C           4.0164   -1.9897   20.2360 C.ar    1  UNL1        0.0137
     40 C           4.2667   -2.4443   18.8285 C.ar    1  UNL1        0.0594
     41 C           4.9252   -3.7677   18.5737 C.3     1  UNL1        0.0521
     42 N           3.8584   -1.5754   17.6760 N.ar    1  UNL1       -0.2481
     43 C           3.1999   -0.2519   17.9308 C.ar    1  UNL1        0.0984
     44 C           2.9497    0.2026   19.3382 C.ar    1  UNL1        0.0207
     45 C           3.3580   -0.6663   20.4908 C.ar    1  UNL1        0.0033
     46 C           3.1077   -0.2117   21.8981 C.ar    1  UNL1        0.0083
@<TRIPOS>BOND
     1    31    32    1
     2    32    29    1
     3    29    30    1
     4    29    25    1
     5    25    26    2
     6    25    27   am
     7    27     1    1
     8     1     2   ar
     9     2     3   ar
    10     3     4   ar
    11     4     7    1
    12     7     8   ar
    13     8    17    1
    14    17    18   ar
    15    18    19   ar
    16    19    20   ar
    17    20    23    1
    18    23    24    1
    19    20    21   ar
    20    21    22   ar
    21     8     9   ar
    22     9    10   ar
    23    10    11   ar
    24    11    12   ar
    25    12    13    1
    26    12    14   ar
    27    14    15   ar
    28    15    16   ar
    29     4     5   ar
    30     5    34    1
    31    34    35    3
    32    35    36    1
    33    36    37   ar
    34    37    38   ar
    35    38    39   ar
    36    39    40   ar
    37    40    41    1
    38    40    42   ar
    39    42    43   ar
    40    43    44   ar
    41    44    45   ar
    42    45    46   ar
    43     5     6   ar
    44     6     1   ar
    45    16     7   ar
    46    46    36   ar
    47    22    17   ar
    48    16    10   ar
    49    45    39   ar
    50    32    33    1
    51    27    28    1
@<TRIPOS>MOLECULE
*****
 46 51 0 0 0
SMALL
GASTEIGER

@<TRIPOS>ATOM
      1 C           6.0107   -2.6059   27.4674 C.ar    1  UNL1        0.1348
      2 C           7.1776   -2.2690   26.5873 C.ar    1  UNL1        0.0346
      3 C           7.0606   -1.1679   25.5754 C.ar    1  UNL1        0.0065
      4 C           5.7766   -0.4037   25.4436 C.ar    1  UNL1        0.0432
      5 C           4.6097   -0.7407   26.3237 C.ar    1  UNL1        0.1256
      6 N           4.7267   -1.8418   27.3356 N.ar    1  UNL1       -0.2222
      7 C           5.6596    0.6973   24.4317 C.ar    1  UNL1        0.0850
      8 C           5.5613    0.5220   22.9452 C.ar    1  UNL1        0.1005
      9 N           5.4613    1.8834   22.3234 N.ar    1  UNL1       -0.2264
     10 C           5.4978    2.9002   23.4256 C.ar    1  UNL1        0.1474
     11 C           5.4353    4.3988   23.4112 C.ar    1  UNL1        0.0332
     12 C           5.4953    5.1644   24.6997 C.ar    1  UNL1       -0.0174
     13 C           5.4327    6.6630   24.6852 C.3     1  UNL1        0.0312
     14 C           5.6178    4.4314   26.0027 C.ar    1  UNL1        0.0149
     15 C           5.6804    2.9328   26.0172 C.ar    1  UNL1        0.0811
     16 N           5.6204    2.1671   24.7286 N.ar    1  UNL1       -0.2888
     17 C           5.5628   -0.7853   22.2097 C.ar    1  UNL1        0.0385
     18 C           4.4297   -1.7509   22.3940 C.ar    1  UNL1        0.0079
     19 C           4.4312   -3.0581   21.6584 C.ar    1  UNL1        0.0578
     20 C           5.5656   -3.3999   20.7385 C.ar    1  UNL1        0.2250
     21 N           6.6986   -2.4343   20.5542 N.ar    1  UNL1       -0.2101
     22 C           6.6972   -1.1270   21.2898 C.ar    1  UNL1        0.1036
     23 O           5.5671   -4.7071   20.0029 O.3     1  UNL1       -0.4561
     24 C           4.5521   -4.9644   18.9289 C.3     1  UNL1        0.2542
     25 C           6.8970   -3.4818   29.7471 C.2     1  UNL1        0.2414
     26 O           7.5494   -2.1556   30.0031 O.2     1  UNL1       -0.2733
     27 N           6.1277   -3.7070   28.4793 N.am    1  UNL1       -0.2682
     28 H           5.6995   -4.5775   28.3113 H       1  UNL1        0.1563
     29 C           7.0140   -4.5829   30.7590 C.3     1  UNL1        0.1319
     30 C           7.4969   -5.9395   30.3387 C.3     1  UNL1        0.0270
     31 C           5.7175   -3.2036   32.5384 C.3     1  UNL1        0.0862
     32 N           6.6482   -4.3275   32.1910 N.3     1  UNL1       -0.2902
     33 H           6.2200   -5.1838   32.5428 H       1  UNL1        0.1237
     34 C           3.3256    0.0235   26.1919 C.1     1  UNL1       -0.0404
     35 C           2.0416    0.7876   26.0602 C.1     1  UNL1       -0.0583
     36 C           0.7575    1.5518   25.9284 C.ar    1  UNL1        0.0420
     37 C          -0.1270    1.7440   27.1245 C.ar    1  UNL1        0.0083
     38 C          -1.4110    2.5081   26.9927 C.ar    1  UNL1        0.0018
     39 C          -1.8105    3.0800   25.6648 C.ar    1  UNL1        0.0137
     40 C          -3.0946    3.8442   25.5330 C.ar    1  UNL1        0.0594
     41 C          -3.9790    4.0364   26.7291 C.3     1  UNL1        0.0521
     42 N          -3.4941    4.4160   24.2051 N.ar    1  UNL1       -0.2481
     43 C          -2.6095    4.2237   23.0090 C.ar    1  UNL1        0.0984
     44 C          -1.3255    3.4596   23.1408 C.ar    1  UNL1        0.0207
     45 C          -0.9260    2.8877   24.4687 C.ar    1  UNL1        0.0033
     46 C           0.3580    2.1236   24.6005 C.ar    1  UNL1        0.0083
@<TRIPOS>BOND
     1    31    32    1
     2    32    29    1
     3    29    30    1
     4    29    25    1
     5    25    26    2
     6    25    27   am
     7    27     1    1
     8     1     2   ar
     9     2     3   ar
    10     3     4   ar
    11     4     7    1
    12     7     8   ar
    13     8    17    1
    14    17    18   ar
    15    18    19   ar
    16    19    20   ar
    17    20    23    1
    18    23    24    1
    19    20    21   ar
    20    21    22   ar
    21     8     9   ar
    22     9    10   ar
    23    10    11   ar
    24    11    12   ar
    25    12    13    1
    26    12    14   ar
    27    14    15   ar
    28    15    16   ar
    29     4     5   ar
    30     5    34    1
    31    34    35    3
    32    35    36    1
    33    36    37   ar
    34    37    38   ar
    35    38    39   ar
    36    39    40   ar
    37    40    41    1
    38    40    42   ar
    39    42    43   ar
    40    43    44   ar
    41    44    45   ar
    42    45    46   ar
    43     5     6   ar
    44     6     1   ar
    45    16     7   ar
    46    46    36   ar
    47    22    17   ar
    48    16    10   ar
    49    45    39   ar
    50    32    33    1
    51    27    28    1
