@<TRIPOS>MOLECULE
*****
 27 30 0 0 0
SMALL
GASTEIGER

@<TRIPOS>ATOM
      1 C          -7.9817  -18.0561   23.1275 C.2     1  UNL1        0.0020
      2 C          -7.3781  -19.0429   22.1725 C.2     1  UNL1        0.0130
      3 C          -5.9198  -18.9603   21.8308 C.3     1  UNL1        0.1542
      4 C          -6.7744  -20.0297   21.2176 C.3     1  UNL1        0.0614
      5 C          -6.1708  -21.0164   20.2627 C.3     1  UNL1        0.0725
      6 N          -4.7126  -20.9337   19.9209 N.3     1  UNL1       -0.2972
      7 C          -3.8580  -19.8643   20.5341 C.3     1  UNL1        0.0725
      8 C          -4.4616  -18.8776   21.4891 C.3     1  UNL1        0.0614
      9 O          -5.0653  -17.8908   22.4440 O.3     1  UNL1       -0.4785
     10 C          -5.6689  -16.9041   23.3990 C.ar    1  UNL1        0.1386
     11 C          -4.8143  -15.8346   24.0122 C.ar    1  UNL1        0.0369
     12 C          -5.4180  -14.8478   24.9671 C.ar    1  UNL1        0.0031
     13 C          -6.8762  -14.9305   25.3089 C.ar    1  UNL1        0.0002
     14 C          -7.7308  -15.9999   24.6957 C.ar    1  UNL1        0.0030
     15 C          -7.1271  -16.9867   23.7407 C.ar    1  UNL1        0.0338
     16 H          -4.6534  -20.8141   18.9097 H       1  UNL1        0.1233
     17 C         -12.3563  -18.3041   24.1527 C.ar    1  UNL1        0.0531
     18 C         -11.8931  -17.3884   23.0587 C.ar    1  UNL1        0.0045
     19 C         -10.4349  -17.3057   22.7170 C.ar    1  UNL1        0.0001
     20 C          -9.4399  -18.1388   23.4692 C.ar    1  UNL1       -0.0001
     21 C          -9.9031  -19.0545   24.5633 C.ar    1  UNL1        0.0001
     22 C         -11.3613  -19.1372   24.9050 C.ar    1  UNL1        0.0045
     23 N         -14.2442  -18.4919   25.9277 N.am    1  UNL1       -0.3253
     24 C         -13.8145  -18.3868   24.4944 C.2     1  UNL1        0.2427
     25 O         -14.8431  -18.3643   23.4028 O.2     1  UNL1       -0.2704
     26 H         -15.2013  -18.5462   26.1520 H       1  UNL1        0.1453
     27 H         -13.5691  -18.5067   26.6441 H       1  UNL1        0.1453
@<TRIPOS>BOND
     1    23    24   am
     2    24    25    2
     3    24    17    1
     4    17    18   ar
     5    18    19   ar
     6    19    20   ar
     7    20     1    1
     8     1     2    2
     9     2     3    1
    10     3     4    1
    11     4     5    1
    12     5     6    1
    13     6     7    1
    14     7     8    1
    15     3     9    1
    16     9    10    1
    17    10    11   ar
    18    11    12   ar
    19    12    13   ar
    20    13    14   ar
    21    14    15   ar
    22    20    21   ar
    23    21    22   ar
    24    22    17   ar
    25    15     1    1
    26     8     3    1
    27    15    10   ar
    28    23    26    1
    29    23    27    1
    30     6    16    1
@<TRIPOS>MOLECULE
*****
 27 30 0 0 0
SMALL
GASTEIGER

@<TRIPOS>ATOM
      1 C          -7.3399  -17.0470   23.1996 C.2     1  UNL1        0.0020
      2 C          -8.5285  -17.2304   22.3032 C.2     1  UNL1        0.0130
      3 C          -9.8789  -16.7444   22.7393 C.3     1  UNL1        0.1542
      4 C          -9.7171  -17.4139   21.4068 C.3     1  UNL1        0.0614
      5 C         -10.9057  -17.5973   20.5104 C.3     1  UNL1        0.0725
      6 N         -12.2561  -17.1112   20.9465 N.3     1  UNL1       -0.2972
      7 C         -12.4179  -16.4417   22.2790 C.3     1  UNL1        0.0725
      8 C         -11.2293  -16.2583   23.1754 C.3     1  UNL1        0.0614
      9 O         -10.0406  -16.0748   24.0718 O.3     1  UNL1       -0.4785
     10 C          -8.8520  -15.8914   24.9682 C.ar    1  UNL1        0.1386
     11 C          -9.0138  -15.2218   26.3008 C.ar    1  UNL1        0.0369
     12 C          -7.8252  -15.0384   27.1971 C.ar    1  UNL1        0.0031
     13 C          -6.4748  -15.5245   26.7610 C.ar    1  UNL1        0.0002
     14 C          -6.3130  -16.1940   25.4286 C.ar    1  UNL1        0.0030
     15 C          -7.5017  -16.3775   24.5321 C.ar    1  UNL1        0.0338
     16 H         -12.8748  -17.9222   20.9474 H       1  UNL1        0.1233
     17 C          -3.2887  -18.5052   21.8914 C.ar    1  UNL1        0.0531
     18 C          -4.5257  -19.2261   21.4442 C.ar    1  UNL1        0.0045
     19 C          -5.8761  -18.7401   21.8803 C.ar    1  UNL1        0.0001
     20 C          -5.9895  -17.5330   22.7635 C.ar    1  UNL1       -0.0001
     21 C          -4.7524  -16.8120   23.2108 C.ar    1  UNL1        0.0001
     22 C          -3.4020  -17.2981   22.7747 C.ar    1  UNL1        0.0045
     23 N          -0.8389  -18.0077   21.1837 N.am    1  UNL1       -0.3253
     24 C          -1.9383  -18.9913   21.4553 C.2     1  UNL1        0.2427
     25 O          -1.6874  -20.4610   21.2908 O.2     1  UNL1       -0.2704
     26 H           0.0474  -18.3267   20.8975 H       1  UNL1        0.1453
     27 H          -1.0036  -17.0431   21.2916 H       1  UNL1        0.1453
@<TRIPOS>BOND
     1    23    24   am
     2    24    25    2
     3    24    17    1
     4    17    18   ar
     5    18    19   ar
     6    19    20   ar
     7    20     1    1
     8     1     2    2
     9     2     3    1
    10     3     4    1
    11     4     5    1
    12     5     6    1
    13     6     7    1
    14     7     8    1
    15     3     9    1
    16     9    10    1
    17    10    11   ar
    18    11    12   ar
    19    12    13   ar
    20    13    14   ar
    21    14    15   ar
    22    20    21   ar
    23    21    22   ar
    24    22    17   ar
    25    15     1    1
    26     8     3    1
    27    15    10   ar
    28    23    26    1
    29    23    27    1
    30     6    16    1
@<TRIPOS>MOLECULE
*****
 27 30 0 0 0
SMALL
GASTEIGER

@<TRIPOS>ATOM
      1 C          -6.9485  -17.5936   22.4955 C.2     1  UNL1        0.0020
      2 C          -6.0549  -18.5108   21.7142 C.2     1  UNL1        0.0130
      3 C          -4.6132  -18.6615   22.1000 C.3     1  UNL1        0.1542
      4 C          -5.1614  -19.4279   20.9329 C.3     1  UNL1        0.0614
      5 C          -4.2678  -20.3451   20.1517 C.3     1  UNL1        0.0725
      6 N          -2.8262  -20.4958   20.5375 N.3     1  UNL1       -0.2972
      7 C          -2.2780  -19.7294   21.7046 C.3     1  UNL1        0.0725
      8 C          -3.1716  -18.8123   22.4859 C.3     1  UNL1        0.0614
      9 O          -4.0651  -17.8951   23.2672 O.3     1  UNL1       -0.4785
     10 C          -4.9587  -16.9779   24.0484 C.ar    1  UNL1        0.1386
     11 C          -4.4106  -16.2114   25.2156 C.ar    1  UNL1        0.0369
     12 C          -5.3041  -15.2943   25.9968 C.ar    1  UNL1        0.0031
     13 C          -6.7457  -15.1435   25.6109 C.ar    1  UNL1        0.0002
     14 C          -7.2939  -15.9099   24.4439 C.ar    1  UNL1        0.0030
     15 C          -6.4003  -16.8272   23.6625 C.ar    1  UNL1        0.0338
     16 H          -2.2738  -20.2272   19.7232 H       1  UNL1        0.1233
     17 C         -11.2734  -17.1413   21.3379 C.ar    1  UNL1        0.0531
     18 C         -10.3795  -15.9377   21.3839 C.ar    1  UNL1        0.0045
     19 C          -8.9379  -16.0884   21.7697 C.ar    1  UNL1        0.0001
     20 C          -8.3901  -17.4428   22.1096 C.ar    1  UNL1       -0.0001
     21 C          -9.2840  -18.6465   22.0637 C.ar    1  UNL1        0.0001
     22 C         -10.7257  -18.4958   21.6778 C.ar    1  UNL1        0.0045
     23 N         -13.7546  -17.8745   21.5749 N.am    1  UNL1       -0.3253
     24 C         -12.7151  -16.9905   20.9521 C.2     1  UNL1        0.2427
     25 O         -13.1173  -15.9558   19.9433 O.2     1  UNL1       -0.2704
     26 H         -14.7008  -17.7755   21.3217 H       1  UNL1        0.1453
     27 H         -13.4907  -18.5536   22.2370 H       1  UNL1        0.1453
@<TRIPOS>BOND
     1    23    24   am
     2    24    25    2
     3    24    17    1
     4    17    18   ar
     5    18    19   ar
     6    19    20   ar
     7    20     1    1
     8     1     2    2
     9     2     3    1
    10     3     4    1
    11     4     5    1
    12     5     6    1
    13     6     7    1
    14     7     8    1
    15     3     9    1
    16     9    10    1
    17    10    11   ar
    18    11    12   ar
    19    12    13   ar
    20    13    14   ar
    21    14    15   ar
    22    20    21   ar
    23    21    22   ar
    24    22    17   ar
    25    15     1    1
    26     8     3    1
    27    15    10   ar
    28    23    26    1
    29    23    27    1
    30     6    16    1
@<TRIPOS>MOLECULE
*****
 27 30 0 0 0
SMALL
GASTEIGER

@<TRIPOS>ATOM
      1 C          -5.6328  -17.1830   23.0829 C.2     1  UNL1        0.0020
      2 C          -5.6996  -16.3750   24.3450 C.2     1  UNL1        0.0130
      3 C          -7.0097  -16.1979   25.0536 C.3     1  UNL1        0.1542
      4 C          -5.7664  -15.5671   25.6070 C.3     1  UNL1        0.0614
      5 C          -5.8333  -14.7591   26.8690 C.3     1  UNL1        0.0725
      6 N          -7.1434  -14.5820   27.5776 N.3     1  UNL1       -0.2972
      7 C          -8.3867  -15.2128   27.0243 C.3     1  UNL1        0.0725
      8 C          -8.3199  -16.0207   25.7623 C.3     1  UNL1        0.0614
      9 O          -8.2531  -16.8287   24.5002 O.3     1  UNL1       -0.4785
     10 C          -8.1863  -17.6366   23.2381 C.ar    1  UNL1        0.1386
     11 C          -9.4296  -18.2675   22.6847 C.ar    1  UNL1        0.0369
     12 C          -9.3628  -19.0754   21.4227 C.ar    1  UNL1        0.0031
     13 C          -8.0526  -19.2526   20.7140 C.ar    1  UNL1        0.0002
     14 C          -6.8093  -18.6218   21.2674 C.ar    1  UNL1        0.0030
     15 C          -6.8761  -17.8138   22.5295 C.ar    1  UNL1        0.0338
     16 H          -7.3188  -13.5783   27.6258 H       1  UNL1        0.1233
     17 C          -1.7024  -17.7144   20.9569 C.ar    1  UNL1        0.0531
     18 C          -2.0495  -16.3911   21.5720 C.ar    1  UNL1        0.0045
     19 C          -3.3596  -16.2140   22.2807 C.ar    1  UNL1        0.0001
     20 C          -4.3227  -17.3601   22.3742 C.ar    1  UNL1       -0.0001
     21 C          -3.9756  -18.6835   21.7591 C.ar    1  UNL1        0.0001
     22 C          -2.6655  -18.8606   21.0505 C.ar    1  UNL1        0.0045
     23 N           0.5244  -16.7189   20.0623 N.am    1  UNL1       -0.3253
     24 C          -0.3923  -17.8915   20.2483 C.2     1  UNL1        0.2427
     25 O           0.0011  -19.2414   19.7256 O.2     1  UNL1       -0.2704
     26 H           1.3842  -16.8352   19.5972 H       1  UNL1        0.1453
     27 H           0.2661  -15.8330   20.4054 H       1  UNL1        0.1453
@<TRIPOS>BOND
     1    23    24   am
     2    24    25    2
     3    24    17    1
     4    17    18   ar
     5    18    19   ar
     6    19    20   ar
     7    20     1    1
     8     1     2    2
     9     2     3    1
    10     3     4    1
    11     4     5    1
    12     5     6    1
    13     6     7    1
    14     7     8    1
    15     3     9    1
    16     9    10    1
    17    10    11   ar
    18    11    12   ar
    19    12    13   ar
    20    13    14   ar
    21    14    15   ar
    22    20    21   ar
    23    21    22   ar
    24    22    17   ar
    25    15     1    1
    26     8     3    1
    27    15    10   ar
    28    23    26    1
    29    23    27    1
    30     6    16    1
@<TRIPOS>MOLECULE
*****
 27 30 0 0 0
SMALL
GASTEIGER

@<TRIPOS>ATOM
      1 C           3.8758    0.5736   34.2871 C.2     1  UNL1        0.0020
      2 C           4.0290    0.9114   35.7406 C.2     1  UNL1        0.0130
      3 C           3.2458    2.0449   36.3337 C.3     1  UNL1        0.1542
      4 C           4.1823    1.2493   37.1939 C.3     1  UNL1        0.0614
      5 C           4.3355    1.5872   38.6473 C.3     1  UNL1        0.0725
      6 N           3.5522    2.7207   39.2404 N.3     1  UNL1       -0.2972
      7 C           2.6157    3.5162   38.3802 C.3     1  UNL1        0.0725
      8 C           2.4625    3.1783   36.9268 C.3     1  UNL1        0.0614
      9 O           2.3093    2.8405   35.4734 O.3     1  UNL1       -0.4785
     10 C           2.1560    2.5026   34.0200 C.ar    1  UNL1        0.1386
     11 C           1.2195    3.2981   33.1597 C.ar    1  UNL1        0.0369
     12 C           1.0663    2.9602   31.7063 C.ar    1  UNL1        0.0031
     13 C           1.8496    1.8268   31.1132 C.ar    1  UNL1        0.0002
     14 C           2.7861    1.0312   31.9734 C.ar    1  UNL1        0.0030
     15 C           2.9393    1.3691   33.4269 C.ar    1  UNL1        0.0338
     16 H           4.2308    3.3787   39.6237 H       1  UNL1        0.1233
     17 C           6.2256   -2.8268   32.5078 C.ar    1  UNL1        0.0531
     18 C           6.7853   -1.4353   32.4846 C.ar    1  UNL1        0.0045
     19 C           6.0020   -0.3019   33.0777 C.ar    1  UNL1        0.0001
     20 C           4.6590   -0.5599   33.6940 C.ar    1  UNL1       -0.0001
     21 C           4.0993   -1.9514   33.7172 C.ar    1  UNL1        0.0001
     22 C           4.8826   -3.0848   33.1241 C.ar    1  UNL1        0.0045
     23 N           6.6080   -5.3777   32.1974 N.am    1  UNL1       -0.3253
     24 C           7.0088   -3.9602   31.9146 C.2     1  UNL1        0.2427
     25 O           8.1930   -3.6761   31.0387 O.2     1  UNL1       -0.2704
     26 H           7.1221   -6.1216   31.8081 H       1  UNL1        0.1453
     27 H           5.8309   -5.5642   32.7723 H       1  UNL1        0.1453
@<TRIPOS>BOND
     1    23    24   am
     2    24    25    2
     3    24    17    1
     4    17    18   ar
     5    18    19   ar
     6    19    20   ar
     7    20     1    1
     8     1     2    2
     9     2     3    1
    10     3     4    1
    11     4     5    1
    12     5     6    1
    13     6     7    1
    14     7     8    1
    15     3     9    1
    16     9    10    1
    17    10    11   ar
    18    11    12   ar
    19    12    13   ar
    20    13    14   ar
    21    14    15   ar
    22    20    21   ar
    23    21    22   ar
    24    22    17   ar
    25    15     1    1
    26     8     3    1
    27    15    10   ar
    28    23    26    1
    29    23    27    1
    30     6    16    1
@<TRIPOS>MOLECULE
*****
 27 30 0 0 0
SMALL
GASTEIGER

@<TRIPOS>ATOM
      1 C          -1.7106    3.6140   26.7107 C.2     1  UNL1        0.0020
      2 C          -1.3440    2.3009   27.3365 C.2     1  UNL1        0.0130
      3 C          -0.2111    2.2276   28.3168 C.3     1  UNL1        0.1542
      4 C          -0.9775    0.9879   27.9623 C.3     1  UNL1        0.0614
      5 C          -0.6109   -0.3251   28.5881 C.3     1  UNL1        0.0725
      6 N           0.5220   -0.3984   29.5684 N.3     1  UNL1       -0.2972
      7 C           1.2885    0.8413   29.9229 C.3     1  UNL1        0.0725
      8 C           0.9219    2.1543   29.2971 C.3     1  UNL1        0.0614
      9 O           0.5554    3.4674   28.6713 O.3     1  UNL1       -0.4785
     10 C           0.1888    4.7803   28.0455 C.ar    1  UNL1        0.1386
     11 C           0.9553    6.0201   28.4000 C.ar    1  UNL1        0.0369
     12 C           0.5887    7.3331   27.7742 C.ar    1  UNL1        0.0031
     13 C          -0.5442    7.4064   26.7939 C.ar    1  UNL1        0.0002
     14 C          -1.3107    6.1667   26.4394 C.ar    1  UNL1        0.0030
     15 C          -0.9441    4.8536   27.0652 C.ar    1  UNL1        0.0338
     16 H           1.1965   -1.0633   29.1898 H       1  UNL1        0.1233
     17 C          -5.1095    3.8338   23.7698 C.ar    1  UNL1        0.0531
     18 C          -3.7128    3.5817   23.2843 C.ar    1  UNL1        0.0045
     19 C          -2.5798    3.5084   24.2646 C.ar    1  UNL1        0.0001
     20 C          -2.8435    3.6873   25.7304 C.ar    1  UNL1       -0.0001
     21 C          -4.2403    3.9394   26.2159 C.ar    1  UNL1        0.0001
     22 C          -5.3732    4.0127   25.2356 C.ar    1  UNL1        0.0045
     23 N          -7.6598    3.9144   23.2804 N.am    1  UNL1       -0.3253
     24 C          -6.2424    3.9071   22.7894 C.2     1  UNL1        0.2427
     25 O          -5.9580    3.9731   21.3181 O.2     1  UNL1       -0.2704
     26 H          -8.4034    3.9626   22.6370 H       1  UNL1        0.1453
     27 H          -7.8464    3.8711   24.2461 H       1  UNL1        0.1453
@<TRIPOS>BOND
     1    23    24   am
     2    24    25    2
     3    24    17    1
     4    17    18   ar
     5    18    19   ar
     6    19    20   ar
     7    20     1    1
     8     1     2    2
     9     2     3    1
    10     3     4    1
    11     4     5    1
    12     5     6    1
    13     6     7    1
    14     7     8    1
    15     3     9    1
    16     9    10    1
    17    10    11   ar
    18    11    12   ar
    19    12    13   ar
    20    13    14   ar
    21    14    15   ar
    22    20    21   ar
    23    21    22   ar
    24    22    17   ar
    25    15     1    1
    26     8     3    1
    27    15    10   ar
    28    23    26    1
    29    23    27    1
    30     6    16    1
@<TRIPOS>MOLECULE
*****
 27 30 0 0 0
SMALL
GASTEIGER

@<TRIPOS>ATOM
      1 C           7.0254   -4.2015   24.0401 C.2     1  UNL1        0.0020
      2 C           6.5112   -3.3534   25.1655 C.2     1  UNL1        0.0130
      3 C           6.8187   -3.7252   26.5858 C.3     1  UNL1        0.1542
      4 C           5.9970   -2.5055   26.2909 C.3     1  UNL1        0.0614
      5 C           5.4828   -1.6575   27.4163 C.3     1  UNL1        0.0725
      6 N           5.7903   -2.0293   28.8366 N.3     1  UNL1       -0.2972
      7 C           6.6120   -3.2491   29.1315 C.3     1  UNL1        0.0725
      8 C           7.1262   -4.0970   28.0061 C.3     1  UNL1        0.0614
      9 O           7.6404   -4.9450   26.8807 O.3     1  UNL1       -0.4785
     10 C           8.1546   -5.7930   25.7553 C.ar    1  UNL1        0.1386
     11 C           8.9764   -7.0128   26.0501 C.ar    1  UNL1        0.0369
     12 C           9.4906   -7.8607   24.9248 C.ar    1  UNL1        0.0031
     13 C           9.1830   -7.4890   23.5045 C.ar    1  UNL1        0.0002
     14 C           8.3613   -6.2692   23.2096 C.ar    1  UNL1        0.0030
     15 C           7.8471   -5.4212   24.3350 C.ar    1  UNL1        0.0338
     16 H           4.8948   -2.1565   29.3081 H       1  UNL1        0.1233
     17 C           6.1029   -3.0861   19.7792 C.ar    1  UNL1        0.0531
     18 C           4.9997   -3.5281   20.6945 C.ar    1  UNL1        0.0045
     19 C           5.3073   -3.8999   22.1148 C.ar    1  UNL1        0.0001
     20 C           6.7179   -3.8297   22.6198 C.ar    1  UNL1       -0.0001
     21 C           7.8211   -3.3877   21.7045 C.ar    1  UNL1        0.0001
     22 C           7.5136   -3.0159   20.2842 C.ar    1  UNL1        0.0045
     23 N           4.3858   -2.7913   17.8519 N.am    1  UNL1       -0.3253
     24 C           5.7954   -2.7143   18.3589 C.2     1  UNL1        0.2427
     25 O           6.8975   -2.2656   17.4457 O.2     1  UNL1       -0.2704
     26 H           4.1840   -2.5473   16.9197 H       1  UNL1        0.1453
     27 H           3.6625   -3.0858   18.4513 H       1  UNL1        0.1453
@<TRIPOS>BOND
     1    23    24   am
     2    24    25    2
     3    24    17    1
     4    17    18   ar
     5    18    19   ar
     6    19    20   ar
     7    20     1    1
     8     1     2    2
     9     2     3    1
    10     3     4    1
    11     4     5    1
    12     5     6    1
    13     6     7    1
    14     7     8    1
    15     3     9    1
    16     9    10    1
    17    10    11   ar
    18    11    12   ar
    19    12    13   ar
    20    13    14   ar
    21    14    15   ar
    22    20    21   ar
    23    21    22   ar
    24    22    17   ar
    25    15     1    1
    26     8     3    1
    27    15    10   ar
    28    23    26    1
    29    23    27    1
    30     6    16    1
@<TRIPOS>MOLECULE
*****
 27 30 0 0 0
SMALL
GASTEIGER

@<TRIPOS>ATOM
      1 C           6.5975   -3.8961   24.1979 C.2     1  UNL1        0.0020
      2 C           7.1885   -5.2117   24.6102 C.2     1  UNL1        0.0130
      3 C           7.4065   -5.5135   26.0633 C.3     1  UNL1        0.1542
      4 C           7.7794   -6.5273   25.0226 C.3     1  UNL1        0.0614
      5 C           8.3703   -7.8428   25.4350 C.3     1  UNL1        0.0725
      6 N           8.5884   -8.1446   26.8880 N.3     1  UNL1       -0.2972
      7 C           8.2155   -7.1308   27.9287 C.3     1  UNL1        0.0725
      8 C           7.6246   -5.8152   27.5164 C.3     1  UNL1        0.0614
      9 O           7.0336   -4.4996   27.1040 O.3     1  UNL1       -0.4785
     10 C           6.4427   -3.1840   26.6917 C.ar    1  UNL1        0.1386
     11 C           6.0698   -2.1702   27.7324 C.ar    1  UNL1        0.0369
     12 C           5.4788   -0.8546   27.3200 C.ar    1  UNL1        0.0031
     13 C           5.2608   -0.5529   25.8670 C.ar    1  UNL1        0.0002
     14 C           5.6336   -1.5667   24.8263 C.ar    1  UNL1        0.0030
     15 C           6.2246   -2.8823   25.2386 C.ar    1  UNL1        0.0338
     16 H           9.5843   -8.3325   27.0035 H       1  UNL1        0.1233
     17 C           5.9433   -2.9909   19.8387 C.ar    1  UNL1        0.0531
     18 C           7.2939   -2.7760   20.4549 C.ar    1  UNL1        0.0045
     19 C           7.5119   -3.0778   21.9079 C.ar    1  UNL1        0.0001
     20 C           6.3794   -3.5944   22.7448 C.ar    1  UNL1       -0.0001
     21 C           5.0287   -3.8093   22.1287 C.ar    1  UNL1        0.0001
     22 C           4.8107   -3.5076   20.6756 C.ar    1  UNL1        0.0045
     23 N           4.3438   -2.7553   17.8050 N.am    1  UNL1       -0.3253
     24 C           5.7252   -2.6892   18.3856 C.2     1  UNL1        0.2427
     25 O           6.8887   -2.3214   17.5132 O.2     1  UNL1       -0.2704
     26 H           4.2007   -2.5572   16.8513 H       1  UNL1        0.1453
     27 H           3.5802   -2.9967   18.3776 H       1  UNL1        0.1453
@<TRIPOS>BOND
     1    23    24   am
     2    24    25    2
     3    24    17    1
     4    17    18   ar
     5    18    19   ar
     6    19    20   ar
     7    20     1    1
     8     1     2    2
     9     2     3    1
    10     3     4    1
    11     4     5    1
    12     5     6    1
    13     6     7    1
    14     7     8    1
    15     3     9    1
    16     9    10    1
    17    10    11   ar
    18    11    12   ar
    19    12    13   ar
    20    13    14   ar
    21    14    15   ar
    22    20    21   ar
    23    21    22   ar
    24    22    17   ar
    25    15     1    1
    26     8     3    1
    27    15    10   ar
    28    23    26    1
    29    23    27    1
    30     6    16    1
@<TRIPOS>MOLECULE
*****
 27 30 0 0 0
SMALL
GASTEIGER

@<TRIPOS>ATOM
      1 C          -1.2286    2.9481   25.6516 C.2     1  UNL1        0.0020
      2 C          -0.4076    2.6675   24.4280 C.2     1  UNL1        0.0130
      3 C          -0.9579    2.9795   23.0679 C.3     1  UNL1        0.1542
      4 C           0.4133    2.3869   23.2043 C.3     1  UNL1        0.0614
      5 C           1.2342    2.1064   21.9807 C.3     1  UNL1        0.0725
      6 N           0.6840    2.4184   20.6206 N.3     1  UNL1       -0.2972
      7 C          -0.6872    3.0109   20.4841 C.3     1  UNL1        0.0725
      8 C          -1.5081    3.2915   21.7078 C.3     1  UNL1        0.0614
      9 O          -2.3291    3.5721   22.9314 O.3     1  UNL1       -0.4785
     10 C          -3.1501    3.8526   24.1551 C.ar    1  UNL1        0.1386
     11 C          -4.5213    4.4452   24.0187 C.ar    1  UNL1        0.0369
     12 C          -5.3423    4.7258   25.2423 C.ar    1  UNL1        0.0031
     13 C          -4.7920    4.4138   26.6024 C.ar    1  UNL1        0.0002
     14 C          -3.4208    3.8212   26.7389 C.ar    1  UNL1        0.0030
     15 C          -2.5998    3.5406   25.5152 C.ar    1  UNL1        0.0338
     16 H           0.6800    1.5432   20.0967 H       1  UNL1        0.1233
     17 C           0.4222    2.0121   29.7319 C.ar    1  UNL1        0.0531
     18 C          -0.3704    0.9783   28.9883 C.ar    1  UNL1        0.0045
     19 C          -0.9206    1.2903   27.6282 C.ar    1  UNL1        0.0001
     20 C          -0.6783    2.6361   27.0117 C.ar    1  UNL1       -0.0001
     21 C           0.1143    3.6700   27.7554 C.ar    1  UNL1        0.0001
     22 C           0.6646    3.3580   29.1155 C.ar    1  UNL1        0.0045
     23 N           0.5060    2.4783   32.2864 N.am    1  UNL1       -0.3253
     24 C           0.9725    1.7001   31.0920 C.2     1  UNL1        0.2427
     25 O           1.9893    0.6098   31.2577 O.2     1  UNL1       -0.2704
     26 H           0.8671    2.2735   33.1791 H       1  UNL1        0.1453
     27 H          -0.1614    3.1939   32.1777 H       1  UNL1        0.1453
@<TRIPOS>BOND
     1    23    24   am
     2    24    25    2
     3    24    17    1
     4    17    18   ar
     5    18    19   ar
     6    19    20   ar
     7    20     1    1
     8     1     2    2
     9     2     3    1
    10     3     4    1
    11     4     5    1
    12     5     6    1
    13     6     7    1
    14     7     8    1
    15     3     9    1
    16     9    10    1
    17    10    11   ar
    18    11    12   ar
    19    12    13   ar
    20    13    14   ar
    21    14    15   ar
    22    20    21   ar
    23    21    22   ar
    24    22    17   ar
    25    15     1    1
    26     8     3    1
    27    15    10   ar
    28    23    26    1
    29    23    27    1
    30     6    16    1
