@<TRIPOS>MOLECULE
*****
 27 30 0 0 0
SMALL
GASTEIGER

@<TRIPOS>ATOM
      1 C          -6.3370  -19.5663   20.4362 C.2     1  UNL1        0.0000
      2 O          -5.6313  -20.8460   20.0980 O.2     1  UNL1        0.0000
      3 N          -5.5438  -18.3291   20.7365 N.am    1  UNL1        0.0000
      4 H          -6.0070  -17.4892   20.9585 H       1  UNL1        0.0000
      5 C          -4.0448  -18.3716   20.6986 C.ar    1  UNL1        0.0000
      6 C          -3.2704  -18.6489   21.9529 C.ar    1  UNL1        0.0000
      7 C          -1.7715  -18.6913   21.9150 C.ar    1  UNL1        0.0000
      8 C          -1.0470  -18.4565   20.6227 C.ar    1  UNL1        0.0000
      9 C          -1.8214  -18.1793   19.3684 C.ar    1  UNL1        0.0000
     10 C          -3.3203  -18.1368   19.4063 C.ar    1  UNL1        0.0000
     11 B          -0.8399  -17.9880   18.2504 B       1  UNL1        0.0000
     12 O          -1.1797  -17.6900   16.8201 O.3     1  UNL1        0.0000
     13 O           0.5412  -18.1470   18.8138 O.3     1  UNL1        0.0000
     14 C           0.4132  -18.4366   20.2799 C.3     1  UNL1        0.0000
     15 H          -2.1432  -17.6379   16.7208 H       1  UNL1        0.0000
     16 C          -8.1614  -18.3837   22.8698 C.3     1  UNL1        0.0000
     17 C          -8.6745  -18.9802   21.5927 C.ar    1  UNL1        0.0000
     18 C          -7.8359  -19.5238   20.4741 C.ar    1  UNL1        0.0000
     19 N          -8.7594  -20.0174   19.4001 N.ar    1  UNL1        0.0000
     20 N         -10.1688  -19.7789   19.8549 N.ar    1  UNL1        0.0000
     21 N         -10.1163  -19.1379   21.2100 N.ar    1  UNL1        0.0000
     22 C         -11.2981  -18.7268   22.0372 C.ar    1  UNL1        0.0000
     23 C         -12.3947  -17.9076   21.4235 C.ar    1  UNL1        0.0000
     24 C         -13.5765  -17.4965   22.2507 C.ar    1  UNL1        0.0000
     25 C         -13.6617  -17.9045   23.6916 C.ar    1  UNL1        0.0000
     26 C         -12.5652  -18.7236   24.3053 C.ar    1  UNL1        0.0000
     27 N         -11.3834  -19.1348   23.4781 N.ar    1  UNL1        0.0000
@<TRIPOS>BOND
     1    16    17    1
     2    17    18   ar
     3    18     1    1
     4     1     2    2
     5     1     3   am
     6     3     5    1
     7     5     6   ar
     8     6     7   ar
     9     7     8   ar
    10     8     9   ar
    11     9    10   ar
    12     9    11    1
    13    11    12    1
    14    11    13    1
    15    13    14    1
    16    18    19   ar
    17    19    20   ar
    18    20    21   ar
    19    21    22    1
    20    22    23   ar
    21    23    24   ar
    22    24    25   ar
    23    25    26   ar
    24    26    27   ar
    25    21    17   ar
    26    27    22   ar
    27    10     5   ar
    28    14     8    1
    29     3     4    1
    30    12    15    1
@<TRIPOS>MOLECULE
*****
 27 30 0 0 0
SMALL
GASTEIGER

@<TRIPOS>ATOM
      1 C           5.7240   -3.4009   19.9127 C.2     1  UNL1        0.0000
      2 O           5.2783   -4.8235   19.7467 O.2     1  UNL1        0.0000
      3 N           6.7628   -3.0553   20.9381 N.am    1  UNL1        0.0000
      4 H           7.0554   -2.1216   21.0471 H       1  UNL1        0.0000
      5 C           7.3559   -4.1322   21.7975 C.ar    1  UNL1        0.0000
      6 C           8.4108   -5.0411   21.2397 C.ar    1  UNL1        0.0000
      7 C           9.0038   -6.1180   22.0991 C.ar    1  UNL1        0.0000
      8 C           8.5419   -6.2860   23.5163 C.ar    1  UNL1        0.0000
      9 C           7.4871   -5.3772   24.0741 C.ar    1  UNL1        0.0000
     10 C           6.8940   -4.3003   23.2147 C.ar    1  UNL1        0.0000
     11 B           7.2331   -5.7799   25.4965 B       1  UNL1        0.0000
     12 O           6.2533   -5.1377   26.4331 O.3     1  UNL1        0.0000
     13 O           8.1311   -6.9377   25.8178 O.3     1  UNL1        0.0000
     14 C           8.9400   -7.2505   24.5940 C.3     1  UNL1        0.0000
     15 H           5.7994   -4.4112   25.9780 H       1  UNL1        0.0000
     16 C           3.7342   -1.0195   20.9222 C.3     1  UNL1        0.0000
     17 C           4.2163   -1.2294   19.5174 C.ar    1  UNL1        0.0000
     18 C           5.1309   -2.3240   19.0533 C.ar    1  UNL1        0.0000
     19 N           5.3483   -2.1526   17.5791 N.ar    1  UNL1        0.0000
     20 N           4.5681   -0.9520   17.1320 N.ar    1  UNL1        0.0000
     21 N           3.8685   -0.3814   18.3299 N.ar    1  UNL1        0.0000
     22 C           2.9774    0.8252   18.3388 C.ar    1  UNL1        0.0000
     23 C           1.4873    0.6569   18.3724 C.ar    1  UNL1        0.0000
     24 C           0.5962    1.8636   18.3813 C.ar    1  UNL1        0.0000
     25 C           1.1954    3.2385   18.3566 C.ar    1  UNL1        0.0000
     26 C           2.6856    3.4068   18.3230 C.ar    1  UNL1        0.0000
     27 N           3.5766    2.2001   18.3141 N.ar    1  UNL1        0.0000
@<TRIPOS>BOND
     1    16    17    1
     2    17    18   ar
     3    18     1    1
     4     1     2    2
     5     1     3   am
     6     3     5    1
     7     5     6   ar
     8     6     7   ar
     9     7     8   ar
    10     8     9   ar
    11     9    10   ar
    12     9    11    1
    13    11    12    1
    14    11    13    1
    15    13    14    1
    16    18    19   ar
    17    19    20   ar
    18    20    21   ar
    19    21    22    1
    20    22    23   ar
    21    23    24   ar
    22    24    25   ar
    23    25    26   ar
    24    26    27   ar
    25    21    17   ar
    26    27    22   ar
    27    10     5   ar
    28    14     8    1
    29     3     4    1
    30    12    15    1
@<TRIPOS>MOLECULE
*****
 27 30 0 0 0
SMALL
GASTEIGER

@<TRIPOS>ATOM
      1 C           6.5136   -3.4360   22.1767 C.2     1  UNL1        0.0000
      2 O           7.2116   -2.1986   21.6954 O.2     1  UNL1        0.0000
      3 N           5.0323   -3.5817   21.9913 N.am    1  UNL1        0.0000
      4 H           4.5742   -4.3938   22.3073 H       1  UNL1        0.0000
      5 C           4.2489   -2.4899   21.3245 C.ar    1  UNL1        0.0000
      6 C           3.4522   -1.5256   22.1522 C.ar    1  UNL1        0.0000
      7 C           2.6688   -0.4340   21.4854 C.ar    1  UNL1        0.0000
      8 C           2.6823   -0.3067   19.9909 C.ar    1  UNL1        0.0000
      9 C           3.4790   -1.2710   19.1632 C.ar    1  UNL1        0.0000
     10 C           4.2624   -2.3626   19.8300 C.ar    1  UNL1        0.0000
     11 B           3.3025   -0.8996   17.7207 B       1  UNL1        0.0000
     12 O           3.9229   -1.5993   16.5479 O.3     1  UNL1        0.0000
     13 O           2.3966    0.2942   17.6568 O.3     1  UNL1        0.0000
     14 C           2.0133    0.6608   19.0599 C.3     1  UNL1        0.0000
     15 H           4.4645   -2.3399   16.8627 H       1  UNL1        0.0000
     16 C           6.5384   -4.1026   25.3712 C.3     1  UNL1        0.0000
     17 C           7.3083   -4.8340   24.3119 C.ar    1  UNL1        0.0000
     18 C           7.2970   -4.5277   22.8435 C.ar    1  UNL1        0.0000
     19 N           8.2064   -5.5046   22.1591 N.ar    1  UNL1        0.0000
     20 N           8.7799   -6.4148   23.2044 N.ar    1  UNL1        0.0000
     21 N           8.2249   -6.0004   24.5349 N.ar    1  UNL1        0.0000
     22 C           8.5324   -6.6400   25.8564 C.ar    1  UNL1        0.0000
     23 C           8.1439   -8.0669   26.1075 C.ar    1  UNL1        0.0000
     24 C           8.4514   -8.7065   27.4290 C.ar    1  UNL1        0.0000
     25 C           9.1474   -7.9192   28.4994 C.ar    1  UNL1        0.0000
     26 C           9.5359   -6.4923   28.2483 C.ar    1  UNL1        0.0000
     27 N           9.2284   -5.8527   26.9268 N.ar    1  UNL1        0.0000
@<TRIPOS>BOND
     1    16    17    1
     2    17    18   ar
     3    18     1    1
     4     1     2    2
     5     1     3   am
     6     3     5    1
     7     5     6   ar
     8     6     7   ar
     9     7     8   ar
    10     8     9   ar
    11     9    10   ar
    12     9    11    1
    13    11    12    1
    14    11    13    1
    15    13    14    1
    16    18    19   ar
    17    19    20   ar
    18    20    21   ar
    19    21    22    1
    20    22    23   ar
    21    23    24   ar
    22    24    25   ar
    23    25    26   ar
    24    26    27   ar
    25    21    17   ar
    26    27    22   ar
    27    10     5   ar
    28    14     8    1
    29     3     4    1
    30    12    15    1
@<TRIPOS>MOLECULE
*****
 27 30 0 0 0
SMALL
GASTEIGER

@<TRIPOS>ATOM
      1 C           0.6056    1.7321   21.0346 C.2     1  UNL1        0.0000
      2 O           1.8248    2.5611   20.7586 O.2     1  UNL1        0.0000
      3 N           0.6806    0.2364   20.9494 N.am    1  UNL1        0.0000
      4 H          -0.1197   -0.3077   21.1306 H       1  UNL1        0.0000
      5 C           1.9748   -0.4303   20.5881 C.ar    1  UNL1        0.0000
      6 C           2.9064   -0.8945   21.6682 C.ar    1  UNL1        0.0000
      7 C           4.2006   -1.5612   21.3069 C.ar    1  UNL1        0.0000
      8 C           4.5632   -1.7636   19.8655 C.ar    1  UNL1        0.0000
      9 C           3.6316   -1.2994   18.7854 C.ar    1  UNL1        0.0000
     10 C           2.3374   -0.6327   19.1467 C.ar    1  UNL1        0.0000
     11 B           4.2535   -1.6332   17.4619 B       1  UNL1        0.0000
     12 O           3.6631   -1.3467   16.1131 O.3     1  UNL1        0.0000
     13 O           5.5695   -2.3037   17.7239 O.3     1  UNL1        0.0000
     14 C           5.7609   -2.3843   19.2094 C.3     1  UNL1        0.0000
     15 H           2.8056   -0.9065   16.2223 H       1  UNL1        0.0000
     16 C          -0.1620    2.9766   23.9521 C.3     1  UNL1        0.0000
     17 C          -1.0415    2.9708   22.7370 C.ar    1  UNL1        0.0000
     18 C          -0.6887    2.3988   21.3959 C.ar    1  UNL1        0.0000
     19 N          -1.8573    2.6104   20.4797 N.ar    1  UNL1        0.0000
     20 N          -2.9324    3.3133   21.2544 N.ar    1  UNL1        0.0000
     21 N          -2.4282    3.5360   22.6495 N.ar    1  UNL1        0.0000
     22 C          -3.1789    4.2063   23.7618 C.ar    1  UNL1        0.0000
     23 C          -4.3496    3.5174   24.3982 C.ar    1  UNL1        0.0000
     24 C          -5.1003    4.1877   25.5105 C.ar    1  UNL1        0.0000
     25 C          -4.6803    5.5468   25.9863 C.ar    1  UNL1        0.0000
     26 C          -3.5096    6.2357   25.3499 C.ar    1  UNL1        0.0000
     27 N          -2.7589    5.5654   24.2376 N.ar    1  UNL1        0.0000
@<TRIPOS>BOND
     1    16    17    1
     2    17    18   ar
     3    18     1    1
     4     1     2    2
     5     1     3   am
     6     3     5    1
     7     5     6   ar
     8     6     7   ar
     9     7     8   ar
    10     8     9   ar
    11     9    10   ar
    12     9    11    1
    13    11    12    1
    14    11    13    1
    15    13    14    1
    16    18    19   ar
    17    19    20   ar
    18    20    21   ar
    19    21    22    1
    20    22    23   ar
    21    23    24   ar
    22    24    25   ar
    23    25    26   ar
    24    26    27   ar
    25    21    17   ar
    26    27    22   ar
    27    10     5   ar
    28    14     8    1
    29     3     4    1
    30    12    15    1
@<TRIPOS>MOLECULE
*****
 27 30 0 0 0
SMALL
GASTEIGER

@<TRIPOS>ATOM
      1 C           6.2668   -2.8112   21.5247 C.2     1  UNL1        0.0000
      2 O           6.6904   -1.4094   21.8497 O.2     1  UNL1        0.0000
      3 N           5.1336   -3.0504   20.5714 N.am    1  UNL1        0.0000
      4 H           4.8556   -3.9704   20.3582 H       1  UNL1        0.0000
      5 C           4.4240   -1.8877   19.9431 C.ar    1  UNL1        0.0000
      6 C           5.1496   -0.9998   18.9761 C.ar    1  UNL1        0.0000
      7 C           4.4400    0.1628   18.3478 C.ar    1  UNL1        0.0000
      8 C           3.0048    0.4374   18.6865 C.ar    1  UNL1        0.0000
      9 C           2.2792   -0.4505   19.6534 C.ar    1  UNL1        0.0000
     10 C           2.9888   -1.6130   20.2817 C.ar    1  UNL1        0.0000
     11 B           0.8773    0.0644   19.7932 B       1  UNL1        0.0000
     12 O          -0.1955   -0.5237   20.6612 O.3     1  UNL1        0.0000
     13 O           0.7364    1.2705   18.9125 O.3     1  UNL1        0.0000
     14 C           2.0513    1.5011   18.2285 C.3     1  UNL1        0.0000
     15 H           0.1546   -1.2989   21.1274 H       1  UNL1        0.0000
     16 C           6.3770   -3.4951   24.7137 C.3     1  UNL1        0.0000
     17 C           7.0270   -4.2881   23.6189 C.ar    1  UNL1        0.0000
     18 C           6.9764   -3.9738   22.1531 C.ar    1  UNL1        0.0000
     19 N           7.7599   -5.0262   21.4260 N.ar    1  UNL1        0.0000
     20 N           8.2948   -5.9909   22.4424 N.ar    1  UNL1        0.0000
     21 N           7.8419   -5.5349   23.7977 N.ar    1  UNL1        0.0000
     22 C           8.1497   -6.2073   25.1027 C.ar    1  UNL1        0.0000
     23 C           7.7259   -7.6277   25.3328 C.ar    1  UNL1        0.0000
     24 C           8.0337   -8.3002   26.6378 C.ar    1  UNL1        0.0000
     25 C           8.7654   -7.5523   27.7127 C.ar    1  UNL1        0.0000
     26 C           9.1892   -6.1319   27.4825 C.ar    1  UNL1        0.0000
     27 N           8.8814   -5.4594   26.1776 N.ar    1  UNL1        0.0000
@<TRIPOS>BOND
     1    16    17    1
     2    17    18   ar
     3    18     1    1
     4     1     2    2
     5     1     3   am
     6     3     5    1
     7     5     6   ar
     8     6     7   ar
     9     7     8   ar
    10     8     9   ar
    11     9    10   ar
    12     9    11    1
    13    11    12    1
    14    11    13    1
    15    13    14    1
    16    18    19   ar
    17    19    20   ar
    18    20    21   ar
    19    21    22    1
    20    22    23   ar
    21    23    24   ar
    22    24    25   ar
    23    25    26   ar
    24    26    27   ar
    25    21    17   ar
    26    27    22   ar
    27    10     5   ar
    28    14     8    1
    29     3     4    1
    30    12    15    1
@<TRIPOS>MOLECULE
*****
 27 30 0 0 0
SMALL
GASTEIGER

@<TRIPOS>ATOM
      1 C           6.3397   -3.8736   23.0404 C.2     1  UNL1        0.0000
      2 O           7.7732   -4.2052   22.7490 O.2     1  UNL1        0.0000
      3 N           5.8454   -3.8622   24.4566 N.am    1  UNL1        0.0000
      4 H           4.9045   -3.6445   24.6478 H       1  UNL1        0.0000
      5 C           6.7847   -4.1825   25.5814 C.ar    1  UNL1        0.0000
      6 C           7.5930   -3.0908   26.2175 C.ar    1  UNL1        0.0000
      7 C           8.5322   -3.4111   27.3423 C.ar    1  UNL1        0.0000
      8 C           8.6631   -4.8232   27.8310 C.ar    1  UNL1        0.0000
      9 C           7.8548   -5.9150   27.1949 C.ar    1  UNL1        0.0000
     10 C           6.9156   -5.5946   26.0701 C.ar    1  UNL1        0.0000
     11 B           8.1927   -7.2036   27.8843 B       1  UNL1        0.0000
     12 O           7.6148   -8.5510   27.5672 O.3     1  UNL1        0.0000
     13 O           9.2098   -6.9083   28.9465 O.3     1  UNL1        0.0000
     14 C           9.5006   -5.4371   28.9136 C.3     1  UNL1        0.0000
     15 H           6.9797   -8.4671   26.8388 H       1  UNL1        0.0000
     16 C           4.8963   -0.9957   22.5073 C.3     1  UNL1        0.0000
     17 C           4.7370   -2.2304   21.6706 C.ar    1  UNL1        0.0000
     18 C           5.4004   -3.5532   21.9156 C.ar    1  UNL1        0.0000
     19 N           4.9597   -4.4995   20.8384 N.ar    1  UNL1        0.0000
     20 N           4.0238   -3.7615   19.9276 N.ar    1  UNL1        0.0000
     21 N           3.8862   -2.3591   20.4419 N.ar    1  UNL1        0.0000
     22 C           3.0454   -1.2757   19.8342 C.ar    1  UNL1        0.0000
     23 C           1.6876   -0.9754   20.3967 C.ar    1  UNL1        0.0000
     24 C           0.8469    0.1080   19.7891 C.ar    1  UNL1        0.0000
     25 C           1.3638    0.8911   18.6189 C.ar    1  UNL1        0.0000
     26 C           2.7216    0.5909   18.0563 C.ar    1  UNL1        0.0000
     27 N           3.5623   -0.4925   18.6640 N.ar    1  UNL1        0.0000
@<TRIPOS>BOND
     1    16    17    1
     2    17    18   ar
     3    18     1    1
     4     1     2    2
     5     1     3   am
     6     3     5    1
     7     5     6   ar
     8     6     7   ar
     9     7     8   ar
    10     8     9   ar
    11     9    10   ar
    12     9    11    1
    13    11    12    1
    14    11    13    1
    15    13    14    1
    16    18    19   ar
    17    19    20   ar
    18    20    21   ar
    19    21    22    1
    20    22    23   ar
    21    23    24   ar
    22    24    25   ar
    23    25    26   ar
    24    26    27   ar
    25    21    17   ar
    26    27    22   ar
    27    10     5   ar
    28    14     8    1
    29     3     4    1
    30    12    15    1
@<TRIPOS>MOLECULE
*****
 27 30 0 0 0
SMALL
GASTEIGER

@<TRIPOS>ATOM
      1 C           4.0990   -0.6379   32.3672 C.2     1  UNL1        0.0000
      2 O           3.1580   -1.6261   31.7444 O.2     1  UNL1        0.0000
      3 N           5.5730   -0.7399   32.1083 N.am    1  UNL1        0.0000
      4 H           6.1906   -0.0913   32.5171 H       1  UNL1        0.0000
      5 C           6.1059   -1.8302   31.2266 C.ar    1  UNL1        0.0000
      6 C           6.4534   -1.5364   29.7974 C.ar    1  UNL1        0.0000
      7 C           6.9863   -2.6267   28.9158 C.ar    1  UNL1        0.0000
      8 C           7.1718   -4.0107   29.4635 C.ar    1  UNL1        0.0000
      9 C           6.8244   -4.3045   30.8928 C.ar    1  UNL1        0.0000
     10 C           6.2914   -3.2143   31.7744 C.ar    1  UNL1        0.0000
     11 B           7.1115   -5.7539   31.1511 B       1  UNL1        0.0000
     12 O           6.9092   -6.4748   32.4509 O.3     1  UNL1        0.0000
     13 O           7.6364   -6.3560   29.8814 O.3     1  UNL1        0.0000
     14 C           7.6737   -5.2786   28.8384 C.3     1  UNL1        0.0000
     15 H           6.5597   -5.8571   33.1121 H       1  UNL1        0.0000
     16 C           4.7831   -0.2230   35.5310 C.3     1  UNL1        0.0000
     17 C           3.8805    0.6431   34.7031 C.ar    1  UNL1        0.0000
     18 C           3.5661    0.4524   33.2489 C.ar    1  UNL1        0.0000
     19 N           2.6252    1.5434   32.8311 N.ar    1  UNL1        0.0000
     20 N           2.3581    2.4083   34.0271 N.ar    1  UNL1        0.0000
     21 N           3.1339    1.8520   35.1841 N.ar    1  UNL1        0.0000
     22 C           3.1588    2.4070   36.5774 C.ar    1  UNL1        0.0000
     23 C           4.3033    3.2691   37.0210 C.ar    1  UNL1        0.0000
     24 C           4.3282    3.8241   38.4143 C.ar    1  UNL1        0.0000
     25 C           3.2085    3.5169   39.3641 C.ar    1  UNL1        0.0000
     26 C           2.0640    2.6548   38.9205 C.ar    1  UNL1        0.0000
     27 N           2.0391    2.0998   37.5272 N.ar    1  UNL1        0.0000
@<TRIPOS>BOND
     1    16    17    1
     2    17    18   ar
     3    18     1    1
     4     1     2    2
     5     1     3   am
     6     3     5    1
     7     5     6   ar
     8     6     7   ar
     9     7     8   ar
    10     8     9   ar
    11     9    10   ar
    12     9    11    1
    13    11    12    1
    14    11    13    1
    15    13    14    1
    16    18    19   ar
    17    19    20   ar
    18    20    21   ar
    19    21    22    1
    20    22    23   ar
    21    23    24   ar
    22    24    25   ar
    23    25    26   ar
    24    26    27   ar
    25    21    17   ar
    26    27    22   ar
    27    10     5   ar
    28    14     8    1
    29     3     4    1
    30    12    15    1
@<TRIPOS>MOLECULE
*****
 27 30 0 0 0
SMALL
GASTEIGER

@<TRIPOS>ATOM
      1 C          -1.9513    3.3212   21.0578 C.2     1  UNL1        0.0000
      2 O          -1.6585    4.4902   21.9509 O.2     1  UNL1        0.0000
      3 N          -3.3394    2.7567   20.9921 N.am    1  UNL1        0.0000
      4 H          -3.5315    1.9894   20.4059 H       1  UNL1        0.0000
      5 C          -4.4349    3.3612   21.8195 C.ar    1  UNL1        0.0000
      6 C          -4.4549    3.1529   23.3048 C.ar    1  UNL1        0.0000
      7 C          -5.5503    3.7574   24.1322 C.ar    1  UNL1        0.0000
      8 C          -6.6257    4.5702   23.4743 C.ar    1  UNL1        0.0000
      9 C          -6.6057    4.7785   21.9890 C.ar    1  UNL1        0.0000
     10 C          -5.5103    4.1740   21.1616 C.ar    1  UNL1        0.0000
     11 B          -7.7915    5.6211   21.6231 B       1  UNL1        0.0000
     12 O          -8.1597    6.0721   20.2407 O.3     1  UNL1        0.0000
     13 O          -8.5444    5.9336   22.8823 O.3     1  UNL1        0.0000
     14 C          -7.8239    5.2841   24.0264 C.3     1  UNL1        0.0000
     15 H          -7.5086    5.7340   19.6061 H       1  UNL1        0.0000
     16 C           0.3448    1.2622   22.1246 C.3     1  UNL1        0.0000
     17 C           0.1995    1.7703   20.7207 C.ar    1  UNL1        0.0000
     18 C          -0.8558    2.7167   20.2303 C.ar    1  UNL1        0.0000
     19 N          -0.6234    2.9525   18.7673 N.ar    1  UNL1        0.0000
     20 N           0.5755    2.1518   18.3535 N.ar    1  UNL1        0.0000
     21 N           1.0842    1.4211   19.5607 N.ar    1  UNL1        0.0000
     22 C           2.2694    0.5026   19.6009 C.ar    1  UNL1        0.0000
     23 C           2.0789   -0.9550   19.8998 C.ar    1  UNL1        0.0000
     24 C           3.2641   -1.8735   19.9400 C.ar    1  UNL1        0.0000
     25 C           4.6398   -1.3345   19.6814 C.ar    1  UNL1        0.0000
     26 C           4.8303    0.1231   19.3825 C.ar    1  UNL1        0.0000
     27 N           3.6451    1.0416   19.3422 N.ar    1  UNL1        0.0000
@<TRIPOS>BOND
     1    16    17    1
     2    17    18   ar
     3    18     1    1
     4     1     2    2
     5     1     3   am
     6     3     5    1
     7     5     6   ar
     8     6     7   ar
     9     7     8   ar
    10     8     9   ar
    11     9    10   ar
    12     9    11    1
    13    11    12    1
    14    11    13    1
    15    13    14    1
    16    18    19   ar
    17    19    20   ar
    18    20    21   ar
    19    21    22    1
    20    22    23   ar
    21    23    24   ar
    22    24    25   ar
    23    25    26   ar
    24    26    27   ar
    25    21    17   ar
    26    27    22   ar
    27    10     5   ar
    28    14     8    1
    29     3     4    1
    30    12    15    1
@<TRIPOS>MOLECULE
*****
 27 30 0 0 0
SMALL
GASTEIGER

@<TRIPOS>ATOM
      1 C           6.0726   -3.0530   23.6281 C.2     1  UNL1        0.0000
      2 O           6.7815   -1.7782   23.2780 O.2     1  UNL1        0.0000
      3 N           4.7398   -3.3631   23.0137 N.am    1  UNL1        0.0000
      4 H           4.2746   -4.1997   23.2435 H       1  UNL1        0.0000
      5 C           4.1159   -2.3984   22.0492 C.ar    1  UNL1        0.0000
      6 C           3.2180   -1.3081   22.5541 C.ar    1  UNL1        0.0000
      7 C           2.5941   -0.3435   21.5897 C.ar    1  UNL1        0.0000
      8 C           2.8680   -0.4693   20.1203 C.ar    1  UNL1        0.0000
      9 C           3.7659   -1.5596   19.6153 C.ar    1  UNL1        0.0000
     10 C           4.3898   -2.5242   20.5798 C.ar    1  UNL1        0.0000
     11 B           3.8511   -1.4359   18.1229 B       1  UNL1        0.0000
     12 O           4.6426   -2.3233   17.2085 O.3     1  UNL1        0.0000
     13 O           3.0059   -0.2691   17.7054 O.3     1  UNL1        0.0000
     14 C           2.3983    0.3284   18.9398 C.3     1  UNL1        0.0000
     15 H           5.0995   -3.0008   17.7310 H       1  UNL1        0.0000
     16 C           6.2522   -2.6827   26.8654 C.3     1  UNL1        0.0000
     17 C           6.7791   -3.8473   26.0806 C.ar    1  UNL1        0.0000
     18 C           6.6966   -4.0176   24.5926 C.ar    1  UNL1        0.0000
     19 N           7.3475   -5.3218   24.2384 N.ar    1  UNL1        0.0000
     20 N           7.8323   -5.9576   25.5075 N.ar    1  UNL1        0.0000
     21 N           7.4811   -5.0464   26.6461 N.ar    1  UNL1        0.0000
     22 C           7.7794   -5.2912   28.0956 C.ar    1  UNL1        0.0000
     23 C           9.2016   -5.3774   28.5645 C.ar    1  UNL1        0.0000
     24 C           9.4999   -5.6221   30.0140 C.ar    1  UNL1        0.0000
     25 C           8.3760   -5.7807   30.9946 C.ar    1  UNL1        0.0000
     26 C           6.9538   -5.6946   30.5257 C.ar    1  UNL1        0.0000
     27 N           6.6554   -5.4498   29.0762 N.ar    1  UNL1        0.0000
@<TRIPOS>BOND
     1    16    17    1
     2    17    18   ar
     3    18     1    1
     4     1     2    2
     5     1     3   am
     6     3     5    1
     7     5     6   ar
     8     6     7   ar
     9     7     8   ar
    10     8     9   ar
    11     9    10   ar
    12     9    11    1
    13    11    12    1
    14    11    13    1
    15    13    14    1
    16    18    19   ar
    17    19    20   ar
    18    20    21   ar
    19    21    22    1
    20    22    23   ar
    21    23    24   ar
    22    24    25   ar
    23    25    26   ar
    24    26    27   ar
    25    21    17   ar
    26    27    22   ar
    27    10     5   ar
    28    14     8    1
    29     3     4    1
    30    12    15    1
