@<TRIPOS>MOLECULE
*****
 34 38 0 0 0
SMALL
GASTEIGER

@<TRIPOS>ATOM
      1 N         -11.5362   -3.7558   18.6238 N.3     1  UNL1       -0.2658
      2 C         -10.6221   -2.5710   18.5212 C.3     1  UNL1        0.0625
      3 C         -10.0581   -3.9307   18.8092 C.3     1  UNL1        0.0164
      4 C         -10.9722   -5.1156   18.9118 C.3     1  UNL1        0.0035
      5 C         -12.4503   -4.9407   18.7264 C.3     1  UNL1        0.0248
      6 C         -13.0144   -3.5809   18.4384 C.3     1  UNL1        0.1039
      7 C         -13.5784   -2.2211   18.1504 C.2     1  UNL1        0.0716
      8 N         -14.9823   -1.7446   17.9222 N.2     1  UNL1       -0.2487
      9 C         -14.9358   -0.2652   17.6785 C.2     1  UNL1        0.0770
     10 C         -16.0129    0.7398   17.3960 C.2     1  UNL1        0.0184
     11 C         -15.6573    2.1825   17.1911 C.2     1  UNL1       -0.0027
     12 C         -14.2247    2.6203   17.2688 C.2     1  UNL1       -0.0213
     13 C         -13.1477    1.6153   17.5513 C.3     1  UNL1        0.0535
     14 C         -13.5032    0.1725   17.7562 C.2     1  UNL1       -0.0029
     15 C         -12.6643   -1.0363   18.0478 C.2     1  UNL1       -0.0079
     16 C         -11.1862   -1.2112   18.2332 C.3     1  UNL1        0.0433
     17 C         -13.9285   -4.7657   18.5410 C.ar    1  UNL1        0.0508
     18 C         -14.2690   -5.5587   17.3142 C.ar    1  UNL1        0.1399
     19 F         -13.6955   -5.1669   15.9847 F       1  UNL1       -0.2044
     20 C         -15.1832   -6.7436   17.4168 C.ar    1  UNL1        0.0295
     21 C         -15.7567   -7.1354   18.7463 C.ar    1  UNL1        0.0045
     22 C         -15.4162   -6.3424   19.9732 C.ar    1  UNL1        0.0295
     23 C         -14.5021   -5.1576   19.8705 C.ar    1  UNL1        0.1399
     24 F         -14.1615   -4.3646   21.0973 F       1  UNL1       -0.2044
     25 C         -16.6709   -8.3203   18.8489 C.2     1  UNL1        0.0013
     26 C         -16.1989   -9.6724   18.4029 C.2     1  UNL1        0.0151
     27 C         -17.1130  -10.8574   18.5055 C.2     1  UNL1        0.0729
     28 O         -18.5336  -10.7516   18.0356 O.co2   1  UNL1       -0.5446
     29 O         -16.6065  -12.1480   19.0779 O.co2   1  UNL1       -0.5446
     30 C         -10.9722   -5.1156   18.9118 C.3     1  UNL1        0.1054
     31 C         -10.4256   -5.1100   16.8622 C.3     1  UNL1        0.0368
     32 C         -10.9155   -6.1493   17.8264 C.3     1  UNL1        0.1486
     33 C         -11.4054   -7.1886   18.7906 C.3     1  UNL1        0.0368
     34 F         -10.8588   -7.1830   16.7410 F       1  UNL1       -0.2386
@<TRIPOS>UNITY_ATOM_ATTR
28 1
charge -1
@<TRIPOS>BOND
     1    31    32    1
     2    32    33    1
     3    32    34    1
     4    32    30    1
     5    30     1    1
     6     1     2    1
     7     2     3    1
     8     3     4    1
     9     4     5    1
    10     5     6    1
    11     6    17    1
    12    17    18   ar
    13    18    19    1
    14    18    20   ar
    15    20    21   ar
    16    21    25    1
    17    25    26    2
    18    26    27    1
    19    27    28   ar
    20    27    29   ar
    21    21    22   ar
    22    22    23   ar
    23    23    24    1
    24     6     7    1
    25     7     8    2
    26     8     9    1
    27     9    10    2
    28    10    11    1
    29    11    12    2
    30    12    13    1
    31    13    14    1
    32    14    15    2
    33    15    16    1
    34     6     1    1
    35    23    17   ar
    36    15     7    1
    37    16     2    1
    38    14     9    1
@<TRIPOS>MOLECULE
*****
 34 38 0 0 0
SMALL
GASTEIGER

@<TRIPOS>ATOM
      1 N         -12.2579   -2.7549   17.4276 N.3     1  UNL1       -0.2658
      2 C         -11.7275   -1.3627   17.2531 C.3     1  UNL1        0.0625
      3 C         -10.9399   -2.5344   16.7462 C.3     1  UNL1        0.0164
      4 C         -11.4703   -3.9266   16.9207 C.3     1  UNL1        0.0035
      5 C         -12.7882   -4.1471   17.6022 C.3     1  UNL1        0.0248
      6 C         -13.5758   -2.9754   18.1091 C.3     1  UNL1        0.1039
      7 C         -14.3633   -1.8037   18.6160 C.2     1  UNL1        0.0716
      8 N         -15.6833   -1.7116   19.3224 N.2     1  UNL1       -0.2487
      9 C         -15.9687   -0.2625   19.5845 C.2     1  UNL1        0.0770
     10 C         -17.1222    0.4292   20.2486 C.2     1  UNL1        0.0184
     11 C         -17.1321    1.9244   20.3681 C.2     1  UNL1       -0.0027
     12 C         -15.9884    2.7279   19.8236 C.2     1  UNL1       -0.0213
     13 C         -14.8349    2.0362   19.1595 C.3     1  UNL1        0.0535
     14 C         -14.8251    0.5410   19.0400 C.2     1  UNL1       -0.0029
     15 C         -13.8329   -0.4115   18.4414 C.2     1  UNL1       -0.0079
     16 C         -12.5150   -0.1910   17.7600 C.3     1  UNL1        0.0433
     17 C         -14.1062   -4.3676   18.2836 C.ar    1  UNL1        0.0508
     18 C         -13.7729   -5.1475   19.5207 C.ar    1  UNL1        0.1399
     19 F         -12.9093   -4.5353   20.5834 F       1  UNL1       -0.2044
     20 C         -14.3034   -6.5397   19.6953 C.ar    1  UNL1        0.0295
     21 C         -15.1671   -7.1520   18.6326 C.ar    1  UNL1        0.0045
     22 C         -15.5003   -6.3720   17.3954 C.ar    1  UNL1        0.0295
     23 C         -14.9699   -4.9799   17.2209 C.ar    1  UNL1        0.1399
     24 F         -15.3031   -4.1999   15.9838 F       1  UNL1       -0.2044
     25 C         -15.6974   -8.5442   18.8072 C.2     1  UNL1        0.0013
     26 C         -16.8912   -8.9962   18.0194 C.2     1  UNL1        0.0151
     27 C         -17.4216  -10.3884   18.1939 C.2     1  UNL1        0.0729
     28 O         -18.8592  -10.6872   17.8871 O.co2   1  UNL1       -0.5446
     29 O         -16.5145  -11.4818   18.6752 O.co2   1  UNL1       -0.5446
     30 C         -11.4703   -3.9266   16.9207 C.3     1  UNL1        0.1054
     31 C         -10.2965   -3.5781   18.6529 C.3     1  UNL1        0.0368
     32 C         -10.7150   -4.7952   17.8825 C.3     1  UNL1        0.1486
     33 C         -11.1334   -6.0122   17.1121 C.3     1  UNL1        0.0368
     34 F          -9.9596   -5.6637   18.8443 F       1  UNL1       -0.2386
@<TRIPOS>UNITY_ATOM_ATTR
28 1
charge -1
@<TRIPOS>BOND
     1    31    32    1
     2    32    33    1
     3    32    34    1
     4    32    30    1
     5    30     1    1
     6     1     2    1
     7     2     3    1
     8     3     4    1
     9     4     5    1
    10     5     6    1
    11     6    17    1
    12    17    18   ar
    13    18    19    1
    14    18    20   ar
    15    20    21   ar
    16    21    25    1
    17    25    26    2
    18    26    27    1
    19    27    28   ar
    20    27    29   ar
    21    21    22   ar
    22    22    23   ar
    23    23    24    1
    24     6     7    1
    25     7     8    2
    26     8     9    1
    27     9    10    2
    28    10    11    1
    29    11    12    2
    30    12    13    1
    31    13    14    1
    32    14    15    2
    33    15    16    1
    34     6     1    1
    35    23    17   ar
    36    15     7    1
    37    16     2    1
    38    14     9    1
@<TRIPOS>MOLECULE
*****
 34 38 0 0 0
SMALL
GASTEIGER

@<TRIPOS>ATOM
      1 N         -12.6512   -1.8991   17.5159 N.3     1  UNL1       -0.2658
      2 C         -12.2508   -0.4678   17.3133 C.3     1  UNL1        0.0625
      3 C         -11.4121   -1.5700   16.7374 C.3     1  UNL1        0.0164
      4 C         -11.8125   -3.0013   16.9400 C.3     1  UNL1        0.0035
      5 C         -13.0516   -3.3304   17.7186 C.3     1  UNL1        0.0248
      6 C         -13.8904   -2.2282   18.2945 C.3     1  UNL1        0.1039
      7 C         -14.7291   -1.1260   18.8704 C.2     1  UNL1        0.0716
      8 N         -15.9938   -1.1438   19.6768 N.2     1  UNL1       -0.2487
      9 C         -16.3751    0.2765   19.9725 C.2     1  UNL1        0.0770
     10 C         -17.5263    0.8699   20.7290 C.2     1  UNL1        0.0184
     11 C         -17.6485    2.3590   20.8620 C.2     1  UNL1       -0.0027
     12 C         -16.6194    3.2546   20.2383 C.2     1  UNL1       -0.0213
     13 C         -15.4681    2.6611   19.4818 C.3     1  UNL1        0.0535
     14 C         -15.3460    1.1721   19.3489 C.2     1  UNL1       -0.0029
     15 C         -14.3288    0.3053   18.6678 C.2     1  UNL1       -0.0079
     16 C         -13.0896    0.6344   17.8892 C.3     1  UNL1        0.0433
     17 C         -14.2907   -3.6595   18.4971 C.ar    1  UNL1        0.0508
     18 C         -15.1252   -4.3582   17.4650 C.ar    1  UNL1        0.1399
     19 F         -15.5594   -3.6256   16.2302 F       1  UNL1       -0.2044
     20 C         -15.5256   -5.7896   17.6677 C.ar    1  UNL1        0.0295
     21 C         -15.0914   -6.5221   18.9025 C.ar    1  UNL1        0.0045
     22 C         -14.2569   -5.8234   19.9347 C.ar    1  UNL1        0.0295
     23 C         -13.8566   -4.3922   19.7320 C.ar    1  UNL1        0.1399
     24 F         -13.0220   -3.6934   20.7641 F       1  UNL1       -0.2044
     25 C         -15.4918   -7.9534   19.1052 C.2     1  UNL1        0.0013
     26 C         -15.8596   -8.8036   17.9253 C.2     1  UNL1        0.0151
     27 C         -16.2600  -10.2349   18.1279 C.2     1  UNL1        0.0729
     28 O         -15.2154  -11.3114   18.1397 O.co2   1  UNL1       -0.5446
     29 O         -17.7048  -10.5898   18.3187 O.co2   1  UNL1       -0.5446
     30 C         -11.8125   -3.0013   16.9400 C.3     1  UNL1        0.1054
     31 C         -11.3308   -5.0656   17.0217 C.3     1  UNL1        0.0368
     32 C         -10.9803   -3.8613   17.8444 C.3     1  UNL1        0.1486
     33 C         -10.6298   -2.6570   18.6670 C.3     1  UNL1        0.0368
     34 F         -10.1481   -4.7213   18.7487 F       1  UNL1       -0.2386
@<TRIPOS>UNITY_ATOM_ATTR
28 1
charge -1
@<TRIPOS>BOND
     1    31    32    1
     2    32    33    1
     3    32    34    1
     4    32    30    1
     5    30     1    1
     6     1     2    1
     7     2     3    1
     8     3     4    1
     9     4     5    1
    10     5     6    1
    11     6    17    1
    12    17    18   ar
    13    18    19    1
    14    18    20   ar
    15    20    21   ar
    16    21    25    1
    17    25    26    2
    18    26    27    1
    19    27    28   ar
    20    27    29   ar
    21    21    22   ar
    22    22    23   ar
    23    23    24    1
    24     6     7    1
    25     7     8    2
    26     8     9    1
    27     9    10    2
    28    10    11    1
    29    11    12    2
    30    12    13    1
    31    13    14    1
    32    14    15    2
    33    15    16    1
    34     6     1    1
    35    23    17   ar
    36    15     7    1
    37    16     2    1
    38    14     9    1
@<TRIPOS>MOLECULE
*****
 34 38 0 0 0
SMALL
GASTEIGER

@<TRIPOS>ATOM
      1 N         -11.4782   -3.8499   18.5401 N.3     1  UNL1       -0.2658
      2 C         -10.4432   -2.7791   18.3607 C.3     1  UNL1        0.0625
      3 C         -10.0253   -4.1723   18.7272 C.3     1  UNL1        0.0164
      4 C         -11.0602   -5.2431   18.9066 C.3     1  UNL1        0.0035
      5 C         -12.5132   -4.9207   18.7195 C.3     1  UNL1        0.0248
      6 C         -12.9311   -3.5274   18.3530 C.3     1  UNL1        0.1039
      7 C         -13.3490   -2.1342   17.9865 C.2     1  UNL1        0.0716
      8 N         -14.6961   -1.5230   17.7380 N.2     1  UNL1       -0.2487
      9 C         -14.4937   -0.0745   17.4050 C.2     1  UNL1        0.0770
     10 C         -15.4597    1.0225   17.0684 C.2     1  UNL1        0.0184
     11 C         -14.9535    2.4035   16.7746 C.2     1  UNL1       -0.0027
     12 C         -13.4813    2.6876   16.8174 C.2     1  UNL1       -0.0213
     13 C         -12.5153    1.5906   17.1540 C.3     1  UNL1        0.0535
     14 C         -13.0215    0.2096   17.4478 C.2     1  UNL1       -0.0029
     15 C         -12.3140   -1.0634   17.8072 C.2     1  UNL1       -0.0079
     16 C         -10.8611   -1.3858   17.9943 C.3     1  UNL1        0.0433
     17 C         -13.9661   -4.5982   18.5323 C.ar    1  UNL1        0.0508
     18 C         -14.5597   -4.8482   19.8869 C.ar    1  UNL1        0.1399
     19 F         -14.1183   -4.0274   21.0623 F       1  UNL1       -0.2044
     20 C         -15.5947   -5.9191   20.0663 C.ar    1  UNL1        0.0295
     21 C         -16.0360   -6.7399   18.8909 C.ar    1  UNL1        0.0045
     22 C         -15.4424   -6.4899   17.5362 C.ar    1  UNL1        0.0295
     23 C         -14.4075   -5.4191   17.3570 C.ar    1  UNL1        0.1399
     24 F         -13.8138   -5.1691   16.0023 F       1  UNL1       -0.2044
     25 C         -17.0710   -7.8107   19.0703 C.2     1  UNL1        0.0013
     26 C         -18.3464   -7.5065   19.7988 C.2     1  UNL1        0.0151
     27 C         -19.3815   -8.5773   19.9782 C.2     1  UNL1        0.0729
     28 O         -19.5477   -9.6421   18.9348 O.co2   1  UNL1       -0.5446
     29 O         -20.2503   -8.5833   21.2009 O.co2   1  UNL1       -0.5446
     30 C         -11.0602   -5.2431   18.9066 C.3     1  UNL1        0.1054
     31 C         -11.7106   -7.2619   18.8714 C.3     1  UNL1        0.0368
     32 C         -11.0881   -6.3306   17.8738 C.3     1  UNL1        0.1486
     33 C         -10.4657   -5.3992   16.8763 C.3     1  UNL1        0.0368
     34 F         -11.1160   -7.4181   16.8411 F       1  UNL1       -0.2386
@<TRIPOS>UNITY_ATOM_ATTR
28 1
charge -1
@<TRIPOS>BOND
     1    31    32    1
     2    32    33    1
     3    32    34    1
     4    32    30    1
     5    30     1    1
     6     1     2    1
     7     2     3    1
     8     3     4    1
     9     4     5    1
    10     5     6    1
    11     6    17    1
    12    17    18   ar
    13    18    19    1
    14    18    20   ar
    15    20    21   ar
    16    21    25    1
    17    25    26    2
    18    26    27    1
    19    27    28   ar
    20    27    29   ar
    21    21    22   ar
    22    22    23   ar
    23    23    24    1
    24     6     7    1
    25     7     8    2
    26     8     9    1
    27     9    10    2
    28    10    11    1
    29    11    12    2
    30    12    13    1
    31    13    14    1
    32    14    15    2
    33    15    16    1
    34     6     1    1
    35    23    17   ar
    36    15     7    1
    37    16     2    1
    38    14     9    1
@<TRIPOS>MOLECULE
*****
 34 38 0 0 0
SMALL
GASTEIGER

@<TRIPOS>ATOM
      1 N           3.8521   -1.8434   20.3940 N.3     1  UNL1       -0.2658
      2 C           4.4786   -2.9282   21.2189 C.3     1  UNL1        0.0625
      3 C           4.4446   -3.0476   19.7241 C.3     1  UNL1        0.0164
      4 C           3.8180   -1.9627   18.8991 C.3     1  UNL1        0.0035
      5 C           3.2255   -0.7586   19.5690 C.3     1  UNL1        0.0248
      6 C           3.2595   -0.6392   21.0639 C.3     1  UNL1        0.1039
      7 C           3.2936   -0.5198   22.5588 C.2     1  UNL1        0.0716
      8 N           2.7933    0.5422   23.4925 N.2     1  UNL1       -0.2487
      9 C           3.1107    0.1137   24.8946 C.2     1  UNL1        0.0770
     10 C           2.8556    0.7603   26.2238 C.2     1  UNL1        0.0184
     11 C           3.2968    0.0800   27.4857 C.2     1  UNL1       -0.0027
     12 C           3.9933   -1.2468   27.4184 C.2     1  UNL1       -0.0213
     13 C           4.2484   -1.8934   26.0892 C.3     1  UNL1        0.0535
     14 C           3.8072   -1.2131   24.8273 C.2     1  UNL1       -0.0029
     15 C           3.9202   -1.6046   23.3837 C.2     1  UNL1       -0.0079
     16 C           4.5127   -2.8088   22.7138 C.3     1  UNL1        0.0433
     17 C           2.6330    0.4456   20.2389 C.ar    1  UNL1        0.0508
     18 C           1.1834    0.3597   19.8632 C.ar    1  UNL1        0.1399
     19 F           0.3603   -0.8111   20.3125 F       1  UNL1       -0.2044
     20 C           0.5568    1.4446   19.0382 C.ar    1  UNL1        0.0295
     21 C           1.3799    2.6154   18.5890 C.ar    1  UNL1        0.0045
     22 C           2.8296    2.7013   18.9648 C.ar    1  UNL1        0.0295
     23 C           3.4561    1.6165   19.7897 C.ar    1  UNL1        0.1399
     24 F           4.9057    1.7024   20.1655 F       1  UNL1       -0.2044
     25 C           0.7533    3.7002   17.7641 C.2     1  UNL1        0.0013
     26 C          -0.6884    3.5992   17.3627 C.2     1  UNL1        0.0151
     27 C          -1.3151    4.6841   16.5377 C.2     1  UNL1        0.0729
     28 O          -2.7906    4.6639   16.2683 O.co2   1  UNL1       -0.5446
     29 O          -0.4663    5.7890   15.9822 O.co2   1  UNL1       -0.5446
     30 C           3.8180   -1.9627   18.8991 C.3     1  UNL1        0.1054
     31 C           5.8609   -1.4091   19.0399 C.3     1  UNL1        0.0368
     32 C           4.7560   -1.1467   18.0600 C.3     1  UNL1        0.1486
     33 C           3.6511   -0.8843   17.0801 C.3     1  UNL1        0.0368
     34 F           5.6940   -0.3306   17.2209 F       1  UNL1       -0.2386
@<TRIPOS>UNITY_ATOM_ATTR
28 1
charge -1
@<TRIPOS>BOND
     1    31    32    1
     2    32    33    1
     3    32    34    1
     4    32    30    1
     5    30     1    1
     6     1     2    1
     7     2     3    1
     8     3     4    1
     9     4     5    1
    10     5     6    1
    11     6    17    1
    12    17    18   ar
    13    18    19    1
    14    18    20   ar
    15    20    21   ar
    16    21    25    1
    17    25    26    2
    18    26    27    1
    19    27    28   ar
    20    27    29   ar
    21    21    22   ar
    22    22    23   ar
    23    23    24    1
    24     6     7    1
    25     7     8    2
    26     8     9    1
    27     9    10    2
    28    10    11    1
    29    11    12    2
    30    12    13    1
    31    13    14    1
    32    14    15    2
    33    15    16    1
    34     6     1    1
    35    23    17   ar
    36    15     7    1
    37    16     2    1
    38    14     9    1
@<TRIPOS>MOLECULE
*****
 34 38 0 0 0
SMALL
GASTEIGER

@<TRIPOS>ATOM
      1 N           3.8477   -1.9010   20.3871 N.3     1  UNL1       -0.2658
      2 C           4.4651   -2.9974   21.2036 C.3     1  UNL1        0.0625
      3 C           4.4196   -3.1104   19.7086 C.3     1  UNL1        0.0164
      4 C           3.8021   -2.0140   18.8921 C.3     1  UNL1        0.0035
      5 C           3.2302   -0.8047   19.5706 C.3     1  UNL1        0.0248
      6 C           3.2758   -0.6917   21.0657 C.3     1  UNL1        0.1039
      7 C           3.3213   -0.5788   22.5607 C.2     1  UNL1        0.0716
      8 N           2.8415    0.4860   23.5020 N.2     1  UNL1       -0.2487
      9 C           3.1624    0.0478   24.9002 C.2     1  UNL1        0.0770
     10 C           2.9247    0.6924   26.2335 C.2     1  UNL1        0.0184
     11 C           3.3652    0.0013   27.4898 C.2     1  UNL1       -0.0027
     12 C           4.0433   -1.3344   27.4128 C.2     1  UNL1       -0.0213
     13 C           4.2810   -1.9790   26.0794 C.3     1  UNL1        0.0535
     14 C           3.8406   -1.2879   24.8231 C.2     1  UNL1       -0.0029
     15 C           3.9388   -1.6752   23.3773 C.2     1  UNL1       -0.0079
     16 C           4.5107   -2.8845   22.6987 C.3     1  UNL1        0.0433
     17 C           2.6583    0.4046   20.2492 C.ar    1  UNL1        0.0508
     18 C           3.4971    1.5593   19.7875 C.ar    1  UNL1        0.1399
     19 F           4.9533    1.6176   20.1424 F       1  UNL1       -0.2044
     20 C           2.8795    2.6557   18.9710 C.ar    1  UNL1        0.0295
     21 C           1.4233    2.5973   18.6161 C.ar    1  UNL1        0.0045
     22 C           0.5845    1.4426   19.0778 C.ar    1  UNL1        0.0295
     23 C           1.2020    0.3463   19.8943 C.ar    1  UNL1        0.1399
     24 F           0.3633   -0.8084   20.3560 F       1  UNL1       -0.2044
     25 C           0.8058    3.6937   17.7996 C.2     1  UNL1        0.0013
     26 C          -0.6451    3.6241   17.4255 C.2     1  UNL1        0.0151
     27 C          -1.2626    4.7205   16.6089 C.2     1  UNL1        0.0729
     28 O          -0.3929    5.7696   15.9822 O.co2   1  UNL1       -0.5446
     29 O          -2.7498    4.7677   16.4192 O.co2   1  UNL1       -0.5446
     30 C           3.8021   -2.0140   18.8921 C.3     1  UNL1        0.1054
     31 C           5.8529   -1.4830   19.0022 C.3     1  UNL1        0.0368
     32 C           4.7317   -1.1922   18.0492 C.3     1  UNL1        0.1486
     33 C           3.6105   -0.9014   17.0962 C.3     1  UNL1        0.0368
     34 F           5.6613   -0.3704   17.2063 F       1  UNL1       -0.2386
@<TRIPOS>UNITY_ATOM_ATTR
28 1
charge -1
@<TRIPOS>BOND
     1    31    32    1
     2    32    33    1
     3    32    34    1
     4    32    30    1
     5    30     1    1
     6     1     2    1
     7     2     3    1
     8     3     4    1
     9     4     5    1
    10     5     6    1
    11     6    17    1
    12    17    18   ar
    13    18    19    1
    14    18    20   ar
    15    20    21   ar
    16    21    25    1
    17    25    26    2
    18    26    27    1
    19    27    28   ar
    20    27    29   ar
    21    21    22   ar
    22    22    23   ar
    23    23    24    1
    24     6     7    1
    25     7     8    2
    26     8     9    1
    27     9    10    2
    28    10    11    1
    29    11    12    2
    30    12    13    1
    31    13    14    1
    32    14    15    2
    33    15    16    1
    34     6     1    1
    35    23    17   ar
    36    15     7    1
    37    16     2    1
    38    14     9    1
@<TRIPOS>MOLECULE
*****
 34 38 0 0 0
SMALL
GASTEIGER

@<TRIPOS>ATOM
      1 N           5.6113   -0.5269   18.8822 N.3     1  UNL1       -0.2658
      2 C           6.7339   -1.2040   18.1533 C.3     1  UNL1        0.0625
      3 C           5.9725   -0.0933   17.4924 C.3     1  UNL1        0.0164
      4 C           4.8500    0.5838   18.2214 C.3     1  UNL1        0.0035
      5 C           4.4888    0.1502   19.6112 C.3     1  UNL1        0.0248
      6 C           5.2502   -0.9605   20.2720 C.3     1  UNL1        0.1039
      7 C           6.0115   -2.0712   20.9328 C.2     1  UNL1        0.0716
      8 N           5.8844   -2.7100   22.2840 N.2     1  UNL1       -0.2487
      9 C           6.9284   -3.7819   22.3902 C.2     1  UNL1        0.0770
     10 C           7.2755   -4.7393   23.4914 C.2     1  UNL1        0.0184
     11 C           8.3949   -5.7205   23.3070 C.2     1  UNL1       -0.0027
     12 C           9.1673   -5.7442   22.0213 C.2     1  UNL1       -0.0213
     13 C           8.8202   -4.7867   20.9201 C.3     1  UNL1        0.0535
     14 C           7.7007   -3.8056   21.1045 C.2     1  UNL1       -0.0029
     15 C           7.1341   -2.7483   20.2039 C.2     1  UNL1       -0.0079
     16 C           7.4953   -2.3147   18.8141 C.3     1  UNL1        0.0433
     17 C           4.1276   -0.2834   21.0009 C.ar    1  UNL1        0.0508
     18 C           4.4001    0.9351   21.8321 C.ar    1  UNL1        0.1399
     19 F           5.7952    1.4765   21.9343 F       1  UNL1       -0.2044
     20 C           3.2775    1.6122   22.5610 C.ar    1  UNL1        0.0295
     21 C           1.8824    1.0707   22.4588 C.ar    1  UNL1        0.0045
     22 C           1.6098   -0.1479   21.6276 C.ar    1  UNL1        0.0295
     23 C           2.7324   -0.8249   20.8987 C.ar    1  UNL1        0.1399
     24 F           2.4600   -2.0435   20.0675 F       1  UNL1       -0.2044
     25 C           0.7598    1.7478   23.1878 C.2     1  UNL1        0.0013
     26 C           0.4724    1.3942   24.6169 C.2     1  UNL1        0.0151
     27 C          -0.6502    2.0713   25.3459 C.2     1  UNL1        0.0729
     28 O          -1.4937    3.0925   24.6418 O.co2   1  UNL1       -0.5446
     29 O          -0.9293    1.7272   26.7790 O.co2   1  UNL1       -0.5446
     30 C           4.8500    0.5838   18.2214 C.3     1  UNL1        0.1054
     31 C           3.7687   -0.9347   17.2090 C.3     1  UNL1        0.0368
     32 C           3.4150    0.3824   17.8337 C.3     1  UNL1        0.1486
     33 C           3.0614    1.6994   18.4584 C.3     1  UNL1        0.0368
     34 F           1.9801    0.1810   17.4460 F       1  UNL1       -0.2386
@<TRIPOS>UNITY_ATOM_ATTR
28 1
charge -1
@<TRIPOS>BOND
     1    31    32    1
     2    32    33    1
     3    32    34    1
     4    32    30    1
     5    30     1    1
     6     1     2    1
     7     2     3    1
     8     3     4    1
     9     4     5    1
    10     5     6    1
    11     6    17    1
    12    17    18   ar
    13    18    19    1
    14    18    20   ar
    15    20    21   ar
    16    21    25    1
    17    25    26    2
    18    26    27    1
    19    27    28   ar
    20    27    29   ar
    21    21    22   ar
    22    22    23   ar
    23    23    24    1
    24     6     7    1
    25     7     8    2
    26     8     9    1
    27     9    10    2
    28    10    11    1
    29    11    12    2
    30    12    13    1
    31    13    14    1
    32    14    15    2
    33    15    16    1
    34     6     1    1
    35    23    17   ar
    36    15     7    1
    37    16     2    1
    38    14     9    1
@<TRIPOS>MOLECULE
*****
 34 38 0 0 0
SMALL
GASTEIGER

@<TRIPOS>ATOM
      1 N          -1.1301    3.0896   21.4481 N.3     1  UNL1       -0.2658
      2 C          -2.1338    3.5844   22.4469 C.3     1  UNL1        0.0625
      3 C          -2.3510    3.8261   20.9825 C.3     1  UNL1        0.0164
      4 C          -1.3473    3.3313   19.9837 C.3     1  UNL1        0.0035
      5 C          -0.1263    2.5947   20.4493 C.3     1  UNL1        0.0248
      6 C           0.0908    2.3530   21.9137 C.3     1  UNL1        0.1039
      7 C           0.3080    2.1113   23.3781 C.2     1  UNL1        0.0716
      8 N           1.4078    1.4212   24.1293 N.2     1  UNL1       -0.2487
      9 C           1.0838    1.4896   25.5923 C.2     1  UNL1        0.0770
     10 C           1.8046    0.9796   26.8048 C.2     1  UNL1        0.0184
     11 C           1.2253    1.2020   28.1704 C.2     1  UNL1       -0.0027
     12 C          -0.0748    1.9343   28.3235 C.2     1  UNL1       -0.0213
     13 C          -0.7956    2.4443   27.1109 C.3     1  UNL1        0.0535
     14 C          -0.2163    2.2219   25.7453 C.2     1  UNL1       -0.0029
     15 C          -0.6958    2.6062   24.3769 C.2     1  UNL1       -0.0079
     16 C          -1.9167    3.3427   23.9113 C.3     1  UNL1        0.0433
     17 C           1.0946    1.8582   20.9149 C.ar    1  UNL1        0.0508
     18 C           2.2684    2.7150   20.5437 C.ar    1  UNL1        0.1399
     19 F           2.4385    4.0667   21.1713 F       1  UNL1       -0.2044
     20 C           3.2721    2.2201   19.5449 C.ar    1  UNL1        0.0295
     21 C           3.1020    0.8683   18.9173 C.ar    1  UNL1        0.0045
     22 C           1.9281    0.0115   19.2886 C.ar    1  UNL1        0.0295
     23 C           0.9245    0.5064   20.2873 C.ar    1  UNL1        0.1399
     24 F          -0.2494   -0.3505   20.6586 F       1  UNL1       -0.2044
     25 C           4.1058    0.3735   17.9185 C.2     1  UNL1        0.0013
     26 C           5.5217    0.1175   18.3421 C.2     1  UNL1        0.0151
     27 C           6.5256   -0.3774   17.3433 C.2     1  UNL1        0.0729
     28 O           7.2136    0.5918   16.4282 O.co2   1  UNL1       -0.5446
     29 O           6.8414   -1.8414   17.2596 O.co2   1  UNL1       -0.5446
     30 C          -1.3473    3.3313   19.9837 C.3     1  UNL1        0.1054
     31 C          -0.3709    3.3824   18.1011 C.3     1  UNL1        0.0368
     32 C          -0.5002    4.3320   19.2550 C.3     1  UNL1        0.1486
     33 C          -0.6294    5.2816   20.4089 C.3     1  UNL1        0.0368
     34 F           0.3469    5.3327   18.5263 F       1  UNL1       -0.2386
@<TRIPOS>UNITY_ATOM_ATTR
28 1
charge -1
@<TRIPOS>BOND
     1    31    32    1
     2    32    33    1
     3    32    34    1
     4    32    30    1
     5    30     1    1
     6     1     2    1
     7     2     3    1
     8     3     4    1
     9     4     5    1
    10     5     6    1
    11     6    17    1
    12    17    18   ar
    13    18    19    1
    14    18    20   ar
    15    20    21   ar
    16    21    25    1
    17    25    26    2
    18    26    27    1
    19    27    28   ar
    20    27    29   ar
    21    21    22   ar
    22    22    23   ar
    23    23    24    1
    24     6     7    1
    25     7     8    2
    26     8     9    1
    27     9    10    2
    28    10    11    1
    29    11    12    2
    30    12    13    1
    31    13    14    1
    32    14    15    2
    33    15    16    1
    34     6     1    1
    35    23    17   ar
    36    15     7    1
    37    16     2    1
    38    14     9    1
@<TRIPOS>MOLECULE
*****
 34 38 0 0 0
SMALL
GASTEIGER

@<TRIPOS>ATOM
      1 N           5.6219   -0.6807   30.0761 N.3     1  UNL1       -0.2658
      2 C           5.8515   -1.0998   28.6543 C.3     1  UNL1        0.0625
      3 C           5.1138    0.1720   28.9515 C.3     1  UNL1        0.0164
      4 C           4.8843    0.5912   30.3733 C.3     1  UNL1        0.0035
      5 C           5.3924   -0.2615   31.4979 C.3     1  UNL1        0.0248
      6 C           6.1300   -1.5333   31.2007 C.3     1  UNL1        0.1039
      7 C           6.8677   -2.8052   30.9035 C.2     1  UNL1        0.0716
      8 N           7.4808   -3.8422   31.7971 N.2     1  UNL1       -0.2487
      9 C           8.0892   -4.9023   30.9276 C.2     1  UNL1        0.0770
     10 C           8.8285   -6.1660   31.2541 C.2     1  UNL1        0.0184
     11 C           9.3307   -7.0477   30.1495 C.2     1  UNL1       -0.0027
     12 C           9.0936   -6.6659   28.7184 C.2     1  UNL1       -0.0213
     13 C           8.3544   -5.4022   28.3919 C.3     1  UNL1        0.0535
     14 C           7.8522   -4.5204   29.4965 C.2     1  UNL1       -0.0029
     15 C           7.0972   -3.2244   29.4816 C.2     1  UNL1       -0.0079
     16 C           6.5891   -2.3717   28.3570 C.3     1  UNL1        0.0433
     17 C           5.9005   -1.1142   32.6225 C.ar    1  UNL1        0.0508
     18 C           6.8684   -0.1878   33.2969 C.ar    1  UNL1        0.1399
     19 F           8.0659    0.3194   32.5495 F       1  UNL1       -0.2044
     20 C           6.6388    0.2313   34.7188 C.ar    1  UNL1        0.0295
     21 C           5.4413   -0.2759   35.4662 C.ar    1  UNL1        0.0045
     22 C           4.4733   -1.2023   34.7918 C.ar    1  UNL1        0.0295
     23 C           4.7029   -1.6214   33.3700 C.ar    1  UNL1        0.1399
     24 F           3.7350   -2.5478   32.6955 F       1  UNL1       -0.2044
     25 C           5.2118    0.1433   36.8880 C.2     1  UNL1        0.0013
     26 C           3.9139    0.7846   37.2806 C.2     1  UNL1        0.0151
     27 C           3.6843    1.2038   38.7025 C.2     1  UNL1        0.0729
     28 O           2.4510    0.7529   39.4275 O.co2   1  UNL1       -0.5446
     29 O           4.6880    2.0739   39.3993 O.co2   1  UNL1       -0.5446
     30 C           4.8843    0.5912   30.3733 C.3     1  UNL1        0.1054
     31 C           3.8340    1.6515   31.8808 C.3     1  UNL1        0.0368
     32 C           3.4942    0.5384   30.9345 C.3     1  UNL1        0.1486
     33 C           3.1545   -0.5747   29.9882 C.3     1  UNL1        0.0368
     34 F           2.1042    0.4856   31.4957 F       1  UNL1       -0.2386
@<TRIPOS>UNITY_ATOM_ATTR
28 1
charge -1
@<TRIPOS>BOND
     1    31    32    1
     2    32    33    1
     3    32    34    1
     4    32    30    1
     5    30     1    1
     6     1     2    1
     7     2     3    1
     8     3     4    1
     9     4     5    1
    10     5     6    1
    11     6    17    1
    12    17    18   ar
    13    18    19    1
    14    18    20   ar
    15    20    21   ar
    16    21    25    1
    17    25    26    2
    18    26    27    1
    19    27    28   ar
    20    27    29   ar
    21    21    22   ar
    22    22    23   ar
    23    23    24    1
    24     6     7    1
    25     7     8    2
    26     8     9    1
    27     9    10    2
    28    10    11    1
    29    11    12    2
    30    12    13    1
    31    13    14    1
    32    14    15    2
    33    15    16    1
    34     6     1    1
    35    23    17   ar
    36    15     7    1
    37    16     2    1
    38    14     9    1
