@<TRIPOS>MOLECULE
*****
 30 32 0 0 0
SMALL
GASTEIGER

@<TRIPOS>ATOM
      1 C          -6.5326  -21.0268   20.1459 C.3     1  UNL1        0.1387
      2 N          -5.6403  -20.0354   20.8320 N.ar    1  UNL1       -0.2434
      3 C          -6.2242  -19.0337   21.7837 C.ar    1  UNL1        0.2665
      4 C          -5.3319  -18.0422   22.4698 C.ar    1  UNL1        0.1487
      5 C          -3.8556  -18.0525   22.2042 C.ar    1  UNL1        0.2696
      6 O          -2.9632  -17.0610   22.8903 O.2     1  UNL1       -0.2669
      7 N          -3.2717  -19.0541   21.2525 N.ar    1  UNL1       -0.2467
      8 C          -1.7954  -19.0644   20.9869 C.3     1  UNL1        0.1382
      9 C          -4.1640  -20.0456   20.5664 C.ar    1  UNL1        0.3365
     10 O          -3.5801  -21.0473   19.6147 O.2     1  UNL1       -0.2461
     11 C          -5.9158  -17.0406   23.4215 C.3     1  UNL1        0.3248
     12 N          -7.3920  -17.0304   23.6871 N.pl3   1  UNL1       -0.2080
     13 C          -8.2843  -18.0218   23.0010 C.2     1  UNL1        0.3233
     14 N          -7.7005  -19.0235   22.0493 N.2     1  UNL1       -0.0219
     15 H          -7.7752  -16.3729   24.3117 H       1  UNL1        0.2928
     16 C          -9.7607  -18.0116   23.2666 C.ar    1  UNL1        0.0822
     17 C         -10.3400  -18.9124   24.3167 C.ar    1  UNL1        0.0082
     18 C         -11.8163  -18.9021   24.5824 C.ar    1  UNL1        0.0116
     19 C         -12.7132  -17.9911   23.7978 C.ar    1  UNL1        0.0577
     20 CL        -14.1894  -17.9808   24.0633 Cl      1  UNL1       -0.0822
     21 C         -12.1338  -17.0902   22.7476 C.ar    1  UNL1        0.0116
     22 C         -10.6575  -17.1005   22.4820 C.ar    1  UNL1        0.0082
     23 C          -5.9967  -15.9055   24.3988 C.3     1  UNL1        0.4451
     24 F          -6.0777  -14.7705   25.3761 F       1  UNL1       -0.1657
     25 F          -5.6091  -16.2639   24.9962 F       1  UNL1       -0.1657
     26 F          -6.7414  -15.0869   23.3863 F       1  UNL1       -0.1657
     27 C          -4.4676  -16.6566   23.4953 C.3     1  UNL1        0.4451
     28 F          -3.0195  -16.2726   23.5691 F       1  UNL1       -0.1657
     29 F          -4.4067  -15.6176   22.8685 F       1  UNL1       -0.1657
     30 F          -4.2242  -17.2786   23.9306 F       1  UNL1       -0.1657
@<TRIPOS>BOND
     1     1     2    1
     2     2     3   ar
     3     3     4   ar
     4     4     5   ar
     5     5     6    2
     6     5     7   ar
     7     7     8    1
     8     7     9   ar
     9     9    10    2
    10     4    11    1
    11    11    23    1
    12    23    24    1
    13    23    25    1
    14    23    26    1
    15    11    27    1
    16    27    28    1
    17    27    29    1
    18    27    30    1
    19    11    12    1
    20    12    13    1
    21    13    16    1
    22    16    17   ar
    23    17    18   ar
    24    18    19   ar
    25    19    20    1
    26    19    21   ar
    27    21    22   ar
    28    13    14    2
    29     9     2   ar
    30    22    16   ar
    31    14     3    1
    32    12    15    1
@<TRIPOS>MOLECULE
*****
 30 32 0 0 0
SMALL
GASTEIGER

@<TRIPOS>ATOM
      1 C          -8.4656  -19.6026   20.0716 C.3     1  UNL1        0.1387
      2 N          -8.7138  -18.7232   21.2612 N.ar    1  UNL1       -0.2434
      3 C          -7.5653  -18.0359   21.9384 C.ar    1  UNL1        0.2665
      4 C          -7.8135  -17.1565   23.1280 C.ar    1  UNL1        0.1487
      5 C          -9.2103  -16.9644   23.6403 C.ar    1  UNL1        0.2696
      6 O          -9.4585  -16.0851   24.8299 O.2     1  UNL1       -0.2669
      7 N         -10.3587  -17.6517   22.9630 N.ar    1  UNL1       -0.2467
      8 C         -11.7554  -17.4597   23.4753 C.3     1  UNL1        0.1382
      9 C         -10.1104  -18.5311   21.7735 C.ar    1  UNL1        0.3365
     10 O         -11.2590  -19.2184   21.0962 O.2     1  UNL1       -0.2461
     11 C          -6.6651  -16.4692   23.8053 C.3     1  UNL1        0.3248
     12 N          -5.2685  -16.6613   23.2930 N.pl3   1  UNL1       -0.2080
     13 C          -5.0203  -17.5407   22.1034 C.2     1  UNL1        0.3233
     14 N          -6.1687  -18.2280   21.4261 N.2     1  UNL1       -0.0219
     15 H          -4.5147  -16.2102   23.7375 H       1  UNL1        0.2928
     16 C          -3.6236  -17.7328   21.5911 C.ar    1  UNL1        0.0822
     17 C          -3.2277  -19.0360   20.9629 C.ar    1  UNL1        0.0082
     18 C          -1.8310  -19.2281   20.4506 C.ar    1  UNL1        0.0116
     19 C          -0.8302  -18.1168   20.5666 C.ar    1  UNL1        0.0577
     20 CL          0.5664  -18.3088   20.0543 Cl      1  UNL1       -0.0822
     21 C          -1.2261  -16.8135   21.1949 C.ar    1  UNL1        0.0116
     22 C          -2.6228  -16.6215   21.7071 C.ar    1  UNL1        0.0082
     23 C          -5.9107  -15.6118   24.7778 C.3     1  UNL1        0.4451
     24 F          -5.1564  -14.7543   25.7502 F       1  UNL1       -0.1657
     25 F          -6.1056  -16.0171   25.4361 F       1  UNL1       -0.1657
     26 F          -5.4489  -14.7383   23.6493 F       1  UNL1       -0.1657
     27 C          -7.7998  -15.9793   24.6554 C.3     1  UNL1        0.4451
     28 F          -8.9345  -15.4894   25.5054 F       1  UNL1       -0.1657
     29 F          -7.9956  -14.8472   24.2603 F       1  UNL1       -0.1657
     30 F          -7.8911  -16.6431   25.0873 F       1  UNL1       -0.1657
@<TRIPOS>BOND
     1     1     2    1
     2     2     3   ar
     3     3     4   ar
     4     4     5   ar
     5     5     6    2
     6     5     7   ar
     7     7     8    1
     8     7     9   ar
     9     9    10    2
    10     4    11    1
    11    11    23    1
    12    23    24    1
    13    23    25    1
    14    23    26    1
    15    11    27    1
    16    27    28    1
    17    27    29    1
    18    27    30    1
    19    11    12    1
    20    12    13    1
    21    13    16    1
    22    16    17   ar
    23    17    18   ar
    24    18    19   ar
    25    19    20    1
    26    19    21   ar
    27    21    22   ar
    28    13    14    2
    29     9     2   ar
    30    22    16   ar
    31    14     3    1
    32    12    15    1
@<TRIPOS>MOLECULE
*****
 30 32 0 0 0
SMALL
GASTEIGER

@<TRIPOS>ATOM
      1 C          -5.0046  -16.5182   24.2539 C.3     1  UNL1        0.1387
      2 N          -4.6885  -17.4329   23.1079 N.ar    1  UNL1       -0.2434
      3 C          -5.7937  -18.1637   22.4047 C.ar    1  UNL1        0.2665
      4 C          -5.4776  -19.0784   21.2586 C.ar    1  UNL1        0.1487
      5 C          -4.0562  -19.2623   20.8159 C.ar    1  UNL1        0.2696
      6 O          -3.7401  -20.1770   19.6698 O.2     1  UNL1       -0.2669
      7 N          -2.9511  -18.5316   21.5191 N.ar    1  UNL1       -0.2467
      8 C          -1.5297  -18.7155   21.0763 C.3     1  UNL1        0.1382
      9 C          -3.2672  -17.6169   22.6651 C.ar    1  UNL1        0.3365
     10 O          -2.1620  -16.8861   23.3684 O.2     1  UNL1       -0.2461
     11 C          -6.5827  -19.8092   20.5554 C.3     1  UNL1        0.3248
     12 N          -8.0040  -19.6253   20.9982 N.pl3   1  UNL1       -0.2080
     13 C          -8.3201  -18.7106   22.1442 C.2     1  UNL1        0.3233
     14 N          -7.2150  -17.9798   22.8475 N.2     1  UNL1       -0.0219
     15 H          -8.7294  -20.1049   20.5366 H       1  UNL1        0.2928
     16 C          -9.7415  -18.5267   22.5870 C.ar    1  UNL1        0.0822
     17 C         -10.7638  -17.9963   21.6260 C.ar    1  UNL1        0.0082
     18 C         -12.1851  -17.8124   22.0688 C.ar    1  UNL1        0.0116
     19 C         -12.5841  -18.1589   23.4726 C.ar    1  UNL1        0.0577
     20 CL        -14.0054  -17.9750   23.9154 Cl      1  UNL1       -0.0822
     21 C         -11.5618  -18.6893   24.4336 C.ar    1  UNL1        0.0116
     22 C         -10.1405  -18.8731   23.9908 C.ar    1  UNL1        0.0082
     23 C          -7.2782  -20.7129   19.5808 C.3     1  UNL1        0.4451
     24 F          -7.9736  -21.6165   18.6062 F       1  UNL1       -0.1657
     25 F          -6.9640  -21.3974   19.8419 F       1  UNL1       -0.1657
     26 F          -7.9591  -19.5260   18.9663 F       1  UNL1       -0.1657
     27 C          -5.4029  -20.3070   19.7741 C.3     1  UNL1        0.4451
     28 F          -4.2232  -20.8048   18.9929 F       1  UNL1       -0.1657
     29 F          -5.1549  -21.3869   20.2725 F       1  UNL1       -0.1657
     30 F          -5.3379  -19.6798   19.2863 F       1  UNL1       -0.1657
@<TRIPOS>BOND
     1     1     2    1
     2     2     3   ar
     3     3     4   ar
     4     4     5   ar
     5     5     6    2
     6     5     7   ar
     7     7     8    1
     8     7     9   ar
     9     9    10    2
    10     4    11    1
    11    11    23    1
    12    23    24    1
    13    23    25    1
    14    23    26    1
    15    11    27    1
    16    27    28    1
    17    27    29    1
    18    27    30    1
    19    11    12    1
    20    12    13    1
    21    13    16    1
    22    16    17   ar
    23    17    18   ar
    24    18    19   ar
    25    19    20    1
    26    19    21   ar
    27    21    22   ar
    28    13    14    2
    29     9     2   ar
    30    22    16   ar
    31    14     3    1
    32    12    15    1
@<TRIPOS>MOLECULE
*****
 30 32 0 0 0
SMALL
GASTEIGER

@<TRIPOS>ATOM
      1 C          -5.5090  -19.9072   21.7577 C.3     1  UNL1        0.1387
      2 N          -6.8532  -19.6322   21.1513 N.ar    1  UNL1       -0.2434
      3 C          -7.7650  -18.6186   21.7769 C.ar    1  UNL1        0.2665
      4 C          -9.1091  -18.3436   21.1705 C.ar    1  UNL1        0.1487
      5 C          -9.5414  -19.0822   19.9385 C.ar    1  UNL1        0.2696
      6 O         -10.8856  -18.8072   19.3322 O.2     1  UNL1       -0.2669
      7 N          -8.6296  -20.0958   19.3130 N.ar    1  UNL1       -0.2467
      8 C          -9.0620  -20.8344   18.0811 C.3     1  UNL1        0.1382
      9 C          -7.2855  -20.3708   19.9194 C.ar    1  UNL1        0.3365
     10 O          -6.3737  -21.3844   19.2938 O.2     1  UNL1       -0.2461
     11 C         -10.0209  -17.3300   21.7960 C.3     1  UNL1        0.3248
     12 N          -9.5885  -16.5915   23.0279 N.pl3   1  UNL1       -0.2080
     13 C          -8.2444  -16.8665   23.6343 C.2     1  UNL1        0.3233
     14 N          -7.3326  -17.8801   23.0087 N.2     1  UNL1       -0.0219
     15 H         -10.1870  -15.9262   23.4384 H       1  UNL1        0.2928
     16 C          -7.8121  -16.1279   24.8662 C.ar    1  UNL1        0.0822
     17 C          -8.7842  -15.9040   25.9864 C.ar    1  UNL1        0.0082
     18 C          -8.3519  -15.1654   27.2183 C.ar    1  UNL1        0.0116
     19 C          -6.9474  -14.6507   27.3300 C.ar    1  UNL1        0.0577
     20 CL         -6.5151  -13.9122   28.5619 Cl      1  UNL1       -0.0822
     21 C          -5.9752  -14.8746   26.2098 C.ar    1  UNL1        0.0116
     22 C          -6.4076  -15.6132   24.9779 C.ar    1  UNL1        0.0082
     23 C         -11.2285  -16.4691   22.0208 C.3     1  UNL1        0.4451
     24 F         -12.4361  -15.6082   22.2457 F       1  UNL1       -0.1657
     25 F         -11.1098  -15.9734   21.4079 F       1  UNL1       -0.1657
     26 F         -11.6017  -17.3032   23.2103 F       1  UNL1       -0.1657
     27 C         -10.8726  -17.7696   20.6421 C.3     1  UNL1        0.4451
     28 F         -11.7244  -18.2092   19.4884 F       1  UNL1       -0.1657
     29 F         -11.6109  -18.6058   21.1236 F       1  UNL1       -0.1657
     30 F         -10.5443  -17.2946   20.0925 F       1  UNL1       -0.1657
@<TRIPOS>BOND
     1     1     2    1
     2     2     3   ar
     3     3     4   ar
     4     4     5   ar
     5     5     6    2
     6     5     7   ar
     7     7     8    1
     8     7     9   ar
     9     9    10    2
    10     4    11    1
    11    11    23    1
    12    23    24    1
    13    23    25    1
    14    23    26    1
    15    11    27    1
    16    27    28    1
    17    27    29    1
    18    27    30    1
    19    11    12    1
    20    12    13    1
    21    13    16    1
    22    16    17   ar
    23    17    18   ar
    24    18    19   ar
    25    19    20    1
    26    19    21   ar
    27    21    22   ar
    28    13    14    2
    29     9     2   ar
    30    22    16   ar
    31    14     3    1
    32    12    15    1
@<TRIPOS>MOLECULE
*****
 30 32 0 0 0
SMALL
GASTEIGER

@<TRIPOS>ATOM
      1 C          -6.9510  -19.5333   20.7477 C.3     1  UNL1        0.1387
      2 N          -6.3287  -18.5972   21.7409 N.ar    1  UNL1       -0.2434
      3 C          -7.1846  -17.9141   22.7660 C.ar    1  UNL1        0.2665
      4 C          -6.5624  -16.9780   23.7593 C.ar    1  UNL1        0.1487
      5 C          -5.0841  -16.7251   23.7274 C.ar    1  UNL1        0.2696
      6 O          -4.4618  -15.7890   24.7207 O.2     1  UNL1       -0.2669
      7 N          -4.2283  -17.4082   22.7024 N.ar    1  UNL1       -0.2467
      8 C          -2.7500  -17.1553   22.6705 C.3     1  UNL1        0.1382
      9 C          -4.8505  -18.3443   21.7091 C.ar    1  UNL1        0.3365
     10 O          -3.9946  -19.0274   20.6840 O.2     1  UNL1       -0.2461
     11 C          -7.4182  -16.2949   24.7844 C.3     1  UNL1        0.3248
     12 N          -8.8964  -16.5479   24.8162 N.pl3   1  UNL1       -0.2080
     13 C          -9.5186  -17.4840   23.8229 C.2     1  UNL1        0.3233
     14 N          -8.6628  -18.1671   22.7978 N.2     1  UNL1       -0.0219
     15 H          -9.4581  -16.0995   25.4890 H       1  UNL1        0.2928
     16 C         -10.9969  -17.7369   23.8548 C.ar    1  UNL1        0.0822
     17 C         -11.5791  -18.6514   24.8914 C.ar    1  UNL1        0.0082
     18 C         -13.0573  -18.9043   24.9233 C.ar    1  UNL1        0.0116
     19 C         -13.9533  -18.2427   23.9185 C.ar    1  UNL1        0.0577
     20 CL        -15.4314  -18.4956   23.9503 Cl      1  UNL1       -0.0822
     21 C         -13.3709  -17.3282   22.8818 C.ar    1  UNL1        0.0116
     22 C         -11.8928  -17.0753   22.8500 C.ar    1  UNL1        0.0082
     23 C          -7.8077  -15.4182   25.9375 C.3     1  UNL1        0.4451
     24 F          -8.1972  -14.5416   27.0906 F       1  UNL1       -0.1657
     25 F          -7.6755  -14.7195   25.5773 F       1  UNL1       -0.1657
     26 F          -8.1063  -16.6352   26.7619 F       1  UNL1       -0.1657
     27 C          -6.0753  -15.7375   25.1530 C.3     1  UNL1        0.4451
     28 F          -4.7324  -15.1801   25.5217 F       1  UNL1       -0.1657
     29 F          -5.7567  -16.3679   26.1416 F       1  UNL1       -0.1657
     30 F          -6.0256  -15.2050   24.5619 F       1  UNL1       -0.1657
@<TRIPOS>BOND
     1     1     2    1
     2     2     3   ar
     3     3     4   ar
     4     4     5   ar
     5     5     6    2
     6     5     7   ar
     7     7     8    1
     8     7     9   ar
     9     9    10    2
    10     4    11    1
    11    11    23    1
    12    23    24    1
    13    23    25    1
    14    23    26    1
    15    11    27    1
    16    27    28    1
    17    27    29    1
    18    27    30    1
    19    11    12    1
    20    12    13    1
    21    13    16    1
    22    16    17   ar
    23    17    18   ar
    24    18    19   ar
    25    19    20    1
    26    19    21   ar
    27    21    22   ar
    28    13    14    2
    29     9     2   ar
    30    22    16   ar
    31    14     3    1
    32    12    15    1
@<TRIPOS>MOLECULE
*****
 30 32 0 0 0
SMALL
GASTEIGER

@<TRIPOS>ATOM
      1 C          -7.3086  -15.9697   24.2771 C.3     1  UNL1        0.1387
      2 N          -8.2654  -16.7476   23.4231 N.ar    1  UNL1       -0.2434
      3 C          -7.7477  -17.6018   22.3039 C.ar    1  UNL1        0.2665
      4 C          -8.7045  -18.3798   21.4499 C.ar    1  UNL1        0.1487
      5 C         -10.1789  -18.3035   21.7150 C.ar    1  UNL1        0.2696
      6 O         -11.1357  -19.0814   20.8610 O.2     1  UNL1       -0.2669
      7 N         -10.6966  -17.4493   22.8341 N.ar    1  UNL1       -0.2467
      8 C         -12.1710  -17.3731   23.0992 C.3     1  UNL1        0.1382
      9 C          -9.7398  -16.6714   23.6882 C.ar    1  UNL1        0.3365
     10 O         -10.2574  -15.8172   24.8073 O.2     1  UNL1       -0.2461
     11 C          -8.1869  -19.2339   20.3308 C.3     1  UNL1        0.3248
     12 N          -6.7125  -19.3101   20.0657 N.pl3   1  UNL1       -0.2080
     13 C          -5.7557  -18.5322   20.9198 C.2     1  UNL1        0.3233
     14 N          -6.2733  -17.6781   22.0389 N.2     1  UNL1       -0.0219
     15 H          -6.3727  -19.8708   19.3312 H       1  UNL1        0.2928
     16 C          -4.2812  -18.6085   20.6546 C.ar    1  UNL1        0.0822
     17 C          -3.7581  -18.4094   19.2630 C.ar    1  UNL1        0.0082
     18 C          -2.2837  -18.4856   18.9979 C.ar    1  UNL1        0.0116
     19 C          -1.3324  -18.7610   20.1245 C.ar    1  UNL1        0.0577
     20 CL          0.1420  -18.8373   19.8594 Cl      1  UNL1       -0.0822
     21 C          -1.8555  -18.9602   21.5162 C.ar    1  UNL1        0.0116
     22 C          -3.3299  -18.8839   21.7812 C.ar    1  UNL1        0.0082
     23 C          -8.1805  -20.1752   19.1628 C.3     1  UNL1        0.4451
     24 F          -8.1742  -21.1164   17.9950 F       1  UNL1       -0.1657
     25 F          -8.6579  -19.7463   18.6899 F       1  UNL1       -0.1657
     26 F          -7.2748  -21.1037   19.9161 F       1  UNL1       -0.1657
     27 C          -9.6591  -19.4846   20.1902 C.3     1  UNL1        0.4451
     28 F         -11.1313  -19.7352   20.0497 F       1  UNL1       -0.1657
     29 F         -10.0261  -18.6422   19.3954 F       1  UNL1       -0.1657
     30 F          -9.7017  -20.0992   20.6961 F       1  UNL1       -0.1657
@<TRIPOS>BOND
     1     1     2    1
     2     2     3   ar
     3     3     4   ar
     4     4     5   ar
     5     5     6    2
     6     5     7   ar
     7     7     8    1
     8     7     9   ar
     9     9    10    2
    10     4    11    1
    11    11    23    1
    12    23    24    1
    13    23    25    1
    14    23    26    1
    15    11    27    1
    16    27    28    1
    17    27    29    1
    18    27    30    1
    19    11    12    1
    20    12    13    1
    21    13    16    1
    22    16    17   ar
    23    17    18   ar
    24    18    19   ar
    25    19    20    1
    26    19    21   ar
    27    21    22   ar
    28    13    14    2
    29     9     2   ar
    30    22    16   ar
    31    14     3    1
    32    12    15    1
@<TRIPOS>MOLECULE
*****
 30 32 0 0 0
SMALL
GASTEIGER

@<TRIPOS>ATOM
      1 C           4.3722   -2.3150   23.2192 C.3     1  UNL1        0.1387
      2 N           4.2032   -1.9443   21.7756 N.ar    1  UNL1       -0.2434
      3 C           3.2063   -0.8947   21.3825 C.ar    1  UNL1        0.2665
      4 C           3.0374   -0.5240   19.9389 C.ar    1  UNL1        0.1487
      5 C           3.8653   -1.2030   18.8883 C.ar    1  UNL1        0.2696
      6 O           3.6963   -0.8324   17.4447 O.2     1  UNL1       -0.2669
      7 N           4.8621   -2.2527   19.2815 N.ar    1  UNL1       -0.2467
      8 C           5.6900   -2.9317   18.2309 C.3     1  UNL1        0.1382
      9 C           5.0311   -2.6233   20.7251 C.ar    1  UNL1        0.3365
     10 O           6.0280   -3.6730   21.1182 O.2     1  UNL1       -0.2461
     11 C           2.0405    0.5256   19.5457 C.3     1  UNL1        0.3248
     12 N           1.2127    1.2046   20.5962 N.pl3   1  UNL1       -0.2080
     13 C           1.3816    0.8339   22.0399 C.2     1  UNL1        0.3233
     14 N           2.3785   -0.2157   22.4330 N.2     1  UNL1       -0.0219
     15 H           0.5584    1.8935   20.3382 H       1  UNL1        0.2928
     16 C           0.5537    1.5129   23.0904 C.ar    1  UNL1        0.0822
     17 C           0.5788    1.0129   24.5043 C.ar    1  UNL1        0.0082
     18 C          -0.2492    1.6919   25.5549 C.ar    1  UNL1        0.0116
     19 C          -1.1021    2.8710   25.1914 C.ar    1  UNL1        0.0577
     20 CL         -1.9300    3.5500   26.2418 Cl      1  UNL1       -0.0822
     21 C          -1.1272    3.3711   23.7773 C.ar    1  UNL1        0.0116
     22 C          -0.2993    2.6921   22.7269 C.ar    1  UNL1        0.0082
     23 C           1.2339    1.4511   18.6838 C.3     1  UNL1        0.4451
     24 F           0.4273    2.3766   17.8219 F       1  UNL1       -0.1657
     25 F           0.7698    0.8945   18.3515 F       1  UNL1       -0.1657
     26 F           2.0146    2.6197   19.2080 F       1  UNL1       -0.1657
     27 C           2.5883    0.1680   18.1959 C.3     1  UNL1        0.4451
     28 F           3.1361   -0.1895   16.8460 F       1  UNL1       -0.1657
     29 F           3.4158    1.0301   17.9767 F       1  UNL1       -0.1657
     30 F           2.1403   -0.4808   18.0780 F       1  UNL1       -0.1657
@<TRIPOS>BOND
     1     1     2    1
     2     2     3   ar
     3     3     4   ar
     4     4     5   ar
     5     5     6    2
     6     5     7   ar
     7     7     8    1
     8     7     9   ar
     9     9    10    2
    10     4    11    1
    11    11    23    1
    12    23    24    1
    13    23    25    1
    14    23    26    1
    15    11    27    1
    16    27    28    1
    17    27    29    1
    18    27    30    1
    19    11    12    1
    20    12    13    1
    21    13    16    1
    22    16    17   ar
    23    17    18   ar
    24    18    19   ar
    25    19    20    1
    26    19    21   ar
    27    21    22   ar
    28    13    14    2
    29     9     2   ar
    30    22    16   ar
    31    14     3    1
    32    12    15    1
@<TRIPOS>MOLECULE
*****
 30 32 0 0 0
SMALL
GASTEIGER

@<TRIPOS>ATOM
      1 C           9.5360    0.2551   20.0519 C.3     1  UNL1        0.1387
      2 N           8.3100   -0.0168   19.2315 N.ar    1  UNL1       -0.2434
      3 C           7.3734   -1.1202   19.6256 C.ar    1  UNL1        0.2665
      4 C           6.1474   -1.3922   18.8052 C.ar    1  UNL1        0.1487
      5 C           5.8581   -0.5607   17.5906 C.ar    1  UNL1        0.2696
      6 O           4.6322   -0.8326   16.7702 O.2     1  UNL1       -0.2669
      7 N           6.7948    0.5426   17.1966 N.ar    1  UNL1       -0.2467
      8 C           6.5055    1.3741   15.9820 C.3     1  UNL1        0.1382
      9 C           8.0207    0.8145   18.0170 C.ar    1  UNL1        0.3365
     10 O           8.9574    1.9179   17.6229 O.2     1  UNL1       -0.2461
     11 C           5.2108   -2.4955   19.1993 C.3     1  UNL1        0.3248
     12 N           5.5001   -3.3269   20.4138 N.pl3   1  UNL1       -0.2080
     13 C           6.7261   -3.0550   21.2342 C.2     1  UNL1        0.3233
     14 N           7.6627   -1.9516   20.8401 N.2     1  UNL1       -0.0219
     15 H           4.8854   -4.0511   20.6724 H       1  UNL1        0.2928
     16 C           7.0154   -3.8864   22.4487 C.ar    1  UNL1        0.0822
     17 C           6.2637   -3.6395   23.7231 C.ar    1  UNL1        0.0082
     18 C           6.5530   -4.4710   24.9376 C.ar    1  UNL1        0.0116
     19 C           7.5940   -5.5493   24.8777 C.ar    1  UNL1        0.0577
     20 CL          7.8833   -6.3808   26.0922 Cl      1  UNL1       -0.0822
     21 C           8.3456   -5.7962   23.6033 C.ar    1  UNL1        0.0116
     22 C           8.0563   -4.9647   22.3888 C.ar    1  UNL1        0.0082
     23 C           4.0314   -3.4218   19.1678 C.3     1  UNL1        0.4451
     24 F           2.8521   -4.3482   19.1362 F       1  UNL1       -0.1657
     25 F           3.5335   -2.9594   19.5846 F       1  UNL1       -0.1657
     26 F           4.8305   -4.4122   18.3738 F       1  UNL1       -0.1657
     27 C           4.5119   -1.9858   17.9738 C.3     1  UNL1        0.4451
     28 F           3.8129   -1.4761   16.7484 F       1  UNL1       -0.1657
     29 F           3.6413   -1.2604   18.4122 F       1  UNL1       -0.1657
     30 F           4.9590   -2.3726   17.4390 F       1  UNL1       -0.1657
@<TRIPOS>BOND
     1     1     2    1
     2     2     3   ar
     3     3     4   ar
     4     4     5   ar
     5     5     6    2
     6     5     7   ar
     7     7     8    1
     8     7     9   ar
     9     9    10    2
    10     4    11    1
    11    11    23    1
    12    23    24    1
    13    23    25    1
    14    23    26    1
    15    11    27    1
    16    27    28    1
    17    27    29    1
    18    27    30    1
    19    11    12    1
    20    12    13    1
    21    13    16    1
    22    16    17   ar
    23    17    18   ar
    24    18    19   ar
    25    19    20    1
    26    19    21   ar
    27    21    22   ar
    28    13    14    2
    29     9     2   ar
    30    22    16   ar
    31    14     3    1
    32    12    15    1
@<TRIPOS>MOLECULE
*****
 30 32 0 0 0
SMALL
GASTEIGER

@<TRIPOS>ATOM
      1 C         -11.0089  -17.4764   21.3137 C.3     1  UNL1        0.1387
      2 N          -9.8250  -18.2794   20.8624 N.ar    1  UNL1       -0.2434
      3 C          -8.5330  -18.2017   21.6205 C.ar    1  UNL1        0.2665
      4 C          -7.3491  -19.0047   21.1691 C.ar    1  UNL1        0.1487
      5 C          -7.4572  -19.8853   19.9596 C.ar    1  UNL1        0.2696
      6 O          -6.2734  -20.6882   19.5082 O.2     1  UNL1       -0.2669
      7 N          -8.7492  -19.9629   19.2015 N.ar    1  UNL1       -0.2467
      8 C          -8.8574  -20.8435   17.9920 C.3     1  UNL1        0.1382
      9 C          -9.9331  -19.1600   19.6529 C.ar    1  UNL1        0.3365
     10 O         -11.2251  -19.2376   18.8947 O.2     1  UNL1       -0.2461
     11 C          -6.0571  -18.9270   21.9272 C.3     1  UNL1        0.3248
     12 N          -5.9490  -18.0465   23.1367 N.pl3   1  UNL1       -0.2080
     13 C          -7.1329  -17.2435   23.5881 C.2     1  UNL1        0.3233
     14 N          -8.4249  -17.3211   22.8300 N.2     1  UNL1       -0.0219
     15 H          -5.1011  -17.9955   23.6343 H       1  UNL1        0.2928
     16 C          -7.0248  -16.3629   24.7976 C.ar    1  UNL1        0.0822
     17 C          -5.7202  -15.7011   25.1293 C.ar    1  UNL1        0.0082
     18 C          -5.6121  -14.8205   26.3388 C.ar    1  UNL1        0.0116
     19 C          -6.8085  -14.6018   27.2167 C.ar    1  UNL1        0.0577
     20 CL         -6.7004  -13.7212   28.4261 Cl      1  UNL1       -0.0822
     21 C          -8.1132  -15.2636   26.8850 C.ar    1  UNL1        0.0116
     22 C          -8.2213  -16.1442   25.6755 C.ar    1  UNL1        0.0082
     23 C          -4.6306  -19.1865   22.3117 C.3     1  UNL1        0.4451
     24 F          -3.2041  -19.4459   22.6961 F       1  UNL1       -0.1657
     25 F          -4.7327  -19.9360   22.5635 F       1  UNL1       -0.1657
     26 F          -4.2621  -17.7976   21.8815 F       1  UNL1       -0.1657
     27 C          -5.6698  -19.8977   20.8512 C.3     1  UNL1        0.4451
     28 F          -5.2825  -20.8684   19.7752 F       1  UNL1       -0.1657
     29 F          -5.1062  -19.2097   20.0236 F       1  UNL1       -0.1657
     30 F          -5.9721  -20.5501   21.1955 F       1  UNL1       -0.1657
@<TRIPOS>BOND
     1     1     2    1
     2     2     3   ar
     3     3     4   ar
     4     4     5   ar
     5     5     6    2
     6     5     7   ar
     7     7     8    1
     8     7     9   ar
     9     9    10    2
    10     4    11    1
    11    11    23    1
    12    23    24    1
    13    23    25    1
    14    23    26    1
    15    11    27    1
    16    27    28    1
    17    27    29    1
    18    27    30    1
    19    11    12    1
    20    12    13    1
    21    13    16    1
    22    16    17   ar
    23    17    18   ar
    24    18    19   ar
    25    19    20    1
    26    19    21   ar
    27    21    22   ar
    28    13    14    2
    29     9     2   ar
    30    22    16   ar
    31    14     3    1
    32    12    15    1
