@<TRIPOS>MOLECULE
*****
 34 37 0 0 0
SMALL
GASTEIGER

@<TRIPOS>ATOM
      1 C          -9.6298  -18.2035   21.2411 C.ar    1  UNL1        0.0949
      2 C         -10.5205  -18.3974   20.0498 C.ar    1  UNL1        0.1454
      3 F         -11.8397  -17.6872   19.9762 F       1  UNL1       -0.2040
      4 C         -10.0920  -19.3015   18.9322 C.ar    1  UNL1        0.0312
      5 C          -8.7728  -20.0116   19.0059 C.ar    1  UNL1        0.0204
      6 C          -7.8821  -19.8178   20.1972 C.ar    1  UNL1        0.0924
      7 C          -8.3107  -18.9137   21.3147 C.ar    1  UNL1        0.1598
      8 F          -7.4200  -18.7198   22.5060 F       1  UNL1       -0.2026
      9 C         -10.0583  -17.2994   22.3588 C.2     1  UNL1        0.2007
     10 O         -11.5000  -17.2461   22.7693 O.2     1  UNL1       -0.2866
     11 C          -9.2564  -17.3394   25.6490 C.2     1  UNL1        0.1360
     12 C          -8.7267  -17.1616   27.0410 C.2     1  UNL1        0.0837
     13 C          -7.6600  -16.1428   27.3131 C.2     1  UNL1        0.2385
     14 N          -7.1230  -15.3016   26.1933 N.2     1  UNL1       -0.0338
     15 C          -7.6528  -15.4794   24.8012 C.2     1  UNL1        0.3626
     16 N          -7.3192  -14.8003   23.5060 N.2     1  UNL1       -0.0341
     17 C          -8.1797  -15.3994   22.4334 C.2     1  UNL1        0.2355
     18 C          -9.0451  -16.4488   23.0657 C.2     1  UNL1        0.0823
     19 C          -8.7195  -16.4982   24.5291 C.3     1  UNL1        0.1973
     20 C          -9.9439  -19.7467   24.9547 C.3     1  UNL1        0.2520
     21 O         -10.3231  -18.3582   25.3768 O.2     1  UNL1       -0.4746
     22 N          -6.5629  -20.5279   20.2708 N.pl3   1  UNL1       -0.2127
     23 H          -6.5314  -21.5116   20.2465 H       1  UNL1        0.1738
     24 S          -5.2918  -19.7393   20.3815 S.O2    1  UNL1        0.0759
     25 O          -5.9690  -18.5592   19.7501 O.2     1  UNL1       -0.1499
     26 O          -4.6146  -20.9195   21.0128 O.2     1  UNL1       -0.1499
     27 C          -4.0206  -18.9508   20.4922 C.ar    1  UNL1        0.1547
     28 C          -3.1876  -18.6956   19.2711 C.ar    1  UNL1        0.0521
     29 C          -1.9164  -17.9071   19.3817 C.ar    1  UNL1        0.1416
     30 F          -1.0834  -17.6519   18.1606 F       1  UNL1       -0.2041
     31 C          -1.4781  -17.3738   20.7134 C.ar    1  UNL1        0.0320
     32 C          -2.3112  -17.6290   21.9345 C.ar    1  UNL1        0.0333
     33 C          -3.5824  -18.4175   21.8239 C.ar    1  UNL1        0.1590
     34 F          -4.4154  -18.6726   23.0450 F       1  UNL1       -0.2027
@<TRIPOS>BOND
     1    20    21    1
     2    21    11    1
     3    11    12    2
     4    12    13    1
     5    13    14    2
     6    14    15    1
     7    15    16    2
     8    16    17    1
     9    17    18    2
    10    18     9    1
    11     9    10    2
    12     9     1    1
    13     1     2   ar
    14     2     3    1
    15     2     4   ar
    16     4     5   ar
    17     5     6   ar
    18     6    22    1
    19    22    24    1
    20    24    25    2
    21    24    26    2
    22    24    27    1
    23    27    28   ar
    24    28    29   ar
    25    29    30    1
    26    29    31   ar
    27    31    32   ar
    28    32    33   ar
    29    33    34    1
    30     6     7   ar
    31     7     8    1
    32    18    19    1
    33    19    11    1
    34    19    15    1
    35     7     1   ar
    36    33    27   ar
    37    22    23    1
@<TRIPOS>MOLECULE
*****
 34 37 0 0 0
SMALL
GASTEIGER

@<TRIPOS>ATOM
      1 C          -8.1322  -17.4514   22.0554 C.ar    1  UNL1        0.0949
      2 C          -8.4914  -16.1800   22.7657 C.ar    1  UNL1        0.1454
      3 F          -9.8540  -15.5793   22.5854 F       1  UNL1       -0.2040
      4 C          -7.4879  -15.5093   23.6562 C.ar    1  UNL1        0.0312
      5 C          -6.1253  -16.1100   23.8365 C.ar    1  UNL1        0.0204
      6 C          -5.7661  -17.3814   23.1262 C.ar    1  UNL1        0.0924
      7 C          -6.7696  -18.0521   22.2357 C.ar    1  UNL1        0.1598
      8 F          -6.4106  -19.3235   21.5253 F       1  UNL1       -0.2026
      9 C          -9.1358  -18.1222   21.1648 C.2     1  UNL1        0.2007
     10 O          -8.6751  -19.0625   20.0908 O.2     1  UNL1       -0.2866
     11 C         -11.0305  -18.7569   23.8992 C.2     1  UNL1        0.1360
     12 C         -12.0715  -18.9334   24.9646 C.2     1  UNL1        0.0837
     13 C         -13.4857  -18.5029   24.7100 C.2     1  UNL1        0.2385
     14 N         -13.8588  -17.8958   23.3901 N.2     1  UNL1       -0.0338
     15 C         -12.8178  -17.7193   22.3248 C.2     1  UNL1        0.3626
     16 N         -12.8880  -17.1560   20.9363 N.2     1  UNL1       -0.0341
     17 C         -11.5173  -17.2383   20.3328 C.2     1  UNL1        0.2355
     18 C         -10.5999  -17.8525   21.3482 C.2     1  UNL1        0.0823
     19 C         -11.4036  -18.1498   22.5793 C.3     1  UNL1        0.1973
     20 C          -9.2160  -20.6160   23.9331 C.3     1  UNL1        0.2520
     21 O          -9.6163  -19.1874   24.1538 O.2     1  UNL1       -0.4746
     22 N          -4.4035  -17.9821   23.3065 N.pl3   1  UNL1       -0.2127
     23 H          -4.1518  -18.3810   24.1707 H       1  UNL1        0.1738
     24 S          -3.4245  -17.9750   22.1702 S.O2    1  UNL1        0.0759
     25 O          -3.3630  -16.4775   22.2325 O.2     1  UNL1       -0.1499
     26 O          -3.4859  -19.4724   22.1079 O.2     1  UNL1       -0.1499
     27 C          -2.4454  -17.9680   21.0338 C.ar    1  UNL1        0.1547
     28 C          -0.9938  -17.6957   21.2961 C.ar    1  UNL1        0.0521
     29 C          -0.0147  -17.6887   20.1598 C.ar    1  UNL1        0.1416
     30 F           1.4369  -17.4164   20.4223 F       1  UNL1       -0.2041
     31 C          -0.4871  -17.9540   18.7611 C.ar    1  UNL1        0.0320
     32 C          -1.9387  -18.2262   18.4988 C.ar    1  UNL1        0.0333
     33 C          -2.9178  -18.2333   19.6351 C.ar    1  UNL1        0.1590
     34 F          -4.3694  -18.5055   19.3727 F       1  UNL1       -0.2027
@<TRIPOS>BOND
     1    20    21    1
     2    21    11    1
     3    11    12    2
     4    12    13    1
     5    13    14    2
     6    14    15    1
     7    15    16    2
     8    16    17    1
     9    17    18    2
    10    18     9    1
    11     9    10    2
    12     9     1    1
    13     1     2   ar
    14     2     3    1
    15     2     4   ar
    16     4     5   ar
    17     5     6   ar
    18     6    22    1
    19    22    24    1
    20    24    25    2
    21    24    26    2
    22    24    27    1
    23    27    28   ar
    24    28    29   ar
    25    29    30    1
    26    29    31   ar
    27    31    32   ar
    28    32    33   ar
    29    33    34    1
    30     6     7   ar
    31     7     8    1
    32    18    19    1
    33    19    11    1
    34    19    15    1
    35     7     1   ar
    36    33    27   ar
    37    22    23    1
@<TRIPOS>MOLECULE
*****
 34 37 0 0 0
SMALL
GASTEIGER

@<TRIPOS>ATOM
      1 C          -7.4464  -17.0795   23.1584 C.ar    1  UNL1        0.0949
      2 C          -7.7539  -15.7872   23.8552 C.ar    1  UNL1        0.1454
      3 F          -9.1616  -15.2704   23.8899 F       1  UNL1       -0.2040
      4 C          -6.6537  -15.0119   24.5172 C.ar    1  UNL1        0.0312
      5 C          -5.2460  -15.5287   24.4825 C.ar    1  UNL1        0.0204
      6 C          -4.9384  -16.8209   23.7857 C.ar    1  UNL1        0.0924
      7 C          -6.0386  -17.5963   23.1236 C.ar    1  UNL1        0.1598
      8 F          -5.7311  -18.8885   22.4268 F       1  UNL1       -0.2026
      9 C          -8.5466  -17.8549   22.4963 C.2     1  UNL1        0.2007
     10 O          -8.5978  -17.9559   21.0006 O.2     1  UNL1       -0.2866
     11 C         -11.8263  -17.0481   22.7468 C.2     1  UNL1        0.1360
     12 C         -13.2918  -16.8987   23.0294 C.2     1  UNL1        0.0837
     13 C         -13.9725  -17.8406   23.9779 C.2     1  UNL1        0.2385
     14 N         -13.1877  -18.9318   24.6437 N.2     1  UNL1       -0.0338
     15 C         -11.7222  -19.0811   24.3610 C.2     1  UNL1        0.3626
     16 N         -10.6968  -20.0533   24.8645 N.2     1  UNL1       -0.0341
     17 C          -9.3824  -19.7124   24.2273 C.2     1  UNL1        0.2355
     18 C          -9.5955  -18.5294   23.3299 C.2     1  UNL1        0.0823
     19 C         -11.0415  -18.1392   23.4126 C.3     1  UNL1        0.1973
     20 C         -11.5135  -16.1102   20.3442 C.3     1  UNL1        0.2520
     21 O         -11.1456  -16.1062   21.7983 O.2     1  UNL1       -0.4746
     22 N          -3.5307  -17.3377   23.7509 N.pl3   1  UNL1       -0.2127
     23 H          -3.0795  -17.5937   24.5877 H       1  UNL1        0.1738
     24 S          -2.8104  -17.4645   22.4413 S.O2    1  UNL1        0.0759
     25 O          -2.6747  -18.9424   22.6591 O.2     1  UNL1       -0.1499
     26 O          -2.9462  -15.9866   22.2236 O.2     1  UNL1       -0.1499
     27 C          -2.0902  -17.5912   21.1317 C.ar    1  UNL1        0.1547
     28 C          -0.6585  -17.1583   21.0182 C.ar    1  UNL1        0.0521
     29 C           0.0619  -17.2849   19.7086 C.ar    1  UNL1        0.1416
     30 F           1.4936  -16.8520   19.5952 F       1  UNL1       -0.2041
     31 C          -0.6494  -17.8445   18.5124 C.ar    1  UNL1        0.0320
     32 C          -2.0812  -18.2774   18.6259 C.ar    1  UNL1        0.0333
     33 C          -2.8015  -18.1507   19.9355 C.ar    1  UNL1        0.1590
     34 F          -4.2332  -18.5836   20.0489 F       1  UNL1       -0.2027
@<TRIPOS>BOND
     1    20    21    1
     2    21    11    1
     3    11    12    2
     4    12    13    1
     5    13    14    2
     6    14    15    1
     7    15    16    2
     8    16    17    1
     9    17    18    2
    10    18     9    1
    11     9    10    2
    12     9     1    1
    13     1     2   ar
    14     2     3    1
    15     2     4   ar
    16     4     5   ar
    17     5     6   ar
    18     6    22    1
    19    22    24    1
    20    24    25    2
    21    24    26    2
    22    24    27    1
    23    27    28   ar
    24    28    29   ar
    25    29    30    1
    26    29    31   ar
    27    31    32   ar
    28    32    33   ar
    29    33    34    1
    30     6     7   ar
    31     7     8    1
    32    18    19    1
    33    19    11    1
    34    19    15    1
    35     7     1   ar
    36    33    27   ar
    37    22    23    1
@<TRIPOS>MOLECULE
*****
 34 37 0 0 0
SMALL
GASTEIGER

@<TRIPOS>ATOM
      1 C          -7.8373  -15.9726   25.0435 C.ar    1  UNL1        0.0949
      2 C          -7.6474  -15.5973   26.4833 C.ar    1  UNL1        0.1454
      3 F          -8.8390  -15.4391   27.3806 F       1  UNL1       -0.2040
      4 C          -6.2660  -15.3802   27.0258 C.ar    1  UNL1        0.0312
      5 C          -5.0744  -15.5384   26.1286 C.ar    1  UNL1        0.0204
      6 C          -5.2642  -15.9137   24.6887 C.ar    1  UNL1        0.0924
      7 C          -6.6457  -16.1308   24.1462 C.ar    1  UNL1        0.1598
      8 F          -6.8357  -16.5060   22.7064 F       1  UNL1       -0.2026
      9 C          -9.2189  -16.1897   24.5009 C.2     1  UNL1        0.2007
     10 O         -10.1085  -15.0145   24.2227 O.2     1  UNL1       -0.2866
     11 C          -9.9770  -17.5836   21.5088 C.2     1  UNL1        0.1360
     12 C         -10.3722  -18.4209   20.3287 C.2     1  UNL1        0.0837
     13 C         -10.8261  -19.8361   20.5315 C.2     1  UNL1        0.2385
     14 N         -10.8847  -20.4141   21.9144 N.2     1  UNL1       -0.0338
     15 C         -10.4895  -19.5768   23.0945 C.2     1  UNL1        0.3626
     16 N         -10.4449  -19.8717   24.5646 N.2     1  UNL1       -0.0341
     17 C          -9.9635  -18.6388   25.2704 C.2     1  UNL1        0.2355
     18 C          -9.7106  -17.5819   24.2365 C.2     1  UNL1        0.0823
     19 C         -10.0356  -18.1616   22.8918 C.3     1  UNL1        0.1973
     20 C         -10.3580  -15.2219   20.4955 C.3     1  UNL1        0.2520
     21 O          -9.5231  -16.1684   21.3061 O.2     1  UNL1       -0.4746
     22 N          -4.0726  -16.0719   23.7915 N.pl3   1  UNL1       -0.2127
     23 H          -3.3516  -15.4018   23.8080 H       1  UNL1        0.1738
     24 S          -3.9797  -17.2511   22.8691 S.O2    1  UNL1        0.0759
     25 O          -4.3386  -18.1658   24.0023 O.2     1  UNL1       -0.1499
     26 O          -3.6207  -16.3363   21.7358 O.2     1  UNL1       -0.1499
     27 C          -3.8867  -18.4302   21.9466 C.ar    1  UNL1        0.1547
     28 C          -5.1323  -19.1492   21.5206 C.ar    1  UNL1        0.0521
     29 C          -5.0394  -20.3284   20.5981 C.ar    1  UNL1        0.1416
     30 F          -6.2850  -21.0473   20.1721 F       1  UNL1       -0.2041
     31 C          -3.7008  -20.7885   20.1016 C.ar    1  UNL1        0.0320
     32 C          -2.4552  -20.0695   20.5277 C.ar    1  UNL1        0.0333
     33 C          -2.5481  -18.8904   21.4501 C.ar    1  UNL1        0.1590
     34 F          -1.3025  -18.1714   21.8761 F       1  UNL1       -0.2027
@<TRIPOS>BOND
     1    20    21    1
     2    21    11    1
     3    11    12    2
     4    12    13    1
     5    13    14    2
     6    14    15    1
     7    15    16    2
     8    16    17    1
     9    17    18    2
    10    18     9    1
    11     9    10    2
    12     9     1    1
    13     1     2   ar
    14     2     3    1
    15     2     4   ar
    16     4     5   ar
    17     5     6   ar
    18     6    22    1
    19    22    24    1
    20    24    25    2
    21    24    26    2
    22    24    27    1
    23    27    28   ar
    24    28    29   ar
    25    29    30    1
    26    29    31   ar
    27    31    32   ar
    28    32    33   ar
    29    33    34    1
    30     6     7   ar
    31     7     8    1
    32    18    19    1
    33    19    11    1
    34    19    15    1
    35     7     1   ar
    36    33    27   ar
    37    22    23    1
@<TRIPOS>MOLECULE
*****
 34 37 0 0 0
SMALL
GASTEIGER

@<TRIPOS>ATOM
      1 C          -8.7829  -18.1373   23.4774 C.ar    1  UNL1        0.0949
      2 C          -9.6140  -19.1298   24.2352 C.ar    1  UNL1        0.1454
      3 F         -10.7601  -18.6583   25.0801 F       1  UNL1       -0.2040
      4 C          -9.2988  -20.5937   24.1480 C.ar    1  UNL1        0.0312
      5 C          -8.1526  -21.0651   23.3031 C.ar    1  UNL1        0.0204
      6 C          -7.3215  -20.0727   22.5452 C.ar    1  UNL1        0.0924
      7 C          -7.6367  -18.6088   22.6324 C.ar    1  UNL1        0.1598
      8 F          -6.8056  -17.6162   21.8746 F       1  UNL1       -0.2026
      9 C          -9.0980  -16.6733   23.5645 C.2     1  UNL1        0.2007
     10 O          -9.3389  -16.0363   24.9009 O.2     1  UNL1       -0.2866
     11 C         -11.4875  -16.7569   21.1659 C.2     1  UNL1        0.1360
     12 C         -12.3989  -16.6009   19.9848 C.2     1  UNL1        0.0837
     13 C         -12.0739  -15.6028   18.9133 C.2     1  UNL1        0.2385
     14 N         -10.8375  -14.7606   19.0229 N.2     1  UNL1       -0.0338
     15 C          -9.9261  -14.9166   20.2039 C.2     1  UNL1        0.3626
     16 N          -8.6463  -14.2314   20.5815 N.2     1  UNL1       -0.0341
     17 C          -8.1802  -14.8061   21.8863 C.2     1  UNL1        0.2355
     18 C          -9.1721  -15.8464   22.3152 C.2     1  UNL1        0.0823
     19 C         -10.2511  -15.9148   21.2754 C.3     1  UNL1        0.1973
     20 C         -13.1178  -17.6693   22.9712 C.3     1  UNL1        0.2520
     21 O         -11.8125  -17.7550   22.2374 O.2     1  UNL1       -0.4746
     22 N          -6.1753  -20.5441   21.7003 N.pl3   1  UNL1       -0.2127
     23 H          -6.1908  -21.4476   21.3095 H       1  UNL1        0.1738
     24 S          -5.0055  -19.6390   21.4508 S.O2    1  UNL1        0.0759
     25 O          -5.5233  -19.3496   20.0731 O.2     1  UNL1       -0.1499
     26 O          -4.4877  -19.9285   22.8284 O.2     1  UNL1       -0.1499
     27 C          -3.8357  -18.7340   21.2013 C.ar    1  UNL1        0.1547
     28 C          -3.0720  -18.8328   19.9140 C.ar    1  UNL1        0.0521
     29 C          -1.9021  -17.9278   19.6645 C.ar    1  UNL1        0.1416
     30 F          -1.1385  -18.0267   18.3772 F       1  UNL1       -0.2041
     31 C          -1.4958  -16.9238   20.7023 C.ar    1  UNL1        0.0320
     32 C          -2.2595  -16.8250   21.9896 C.ar    1  UNL1        0.0333
     33 C          -3.4294  -17.7300   22.2391 C.ar    1  UNL1        0.1590
     34 F          -4.1930  -17.6311   23.5264 F       1  UNL1       -0.2027
@<TRIPOS>BOND
     1    20    21    1
     2    21    11    1
     3    11    12    2
     4    12    13    1
     5    13    14    2
     6    14    15    1
     7    15    16    2
     8    16    17    1
     9    17    18    2
    10    18     9    1
    11     9    10    2
    12     9     1    1
    13     1     2   ar
    14     2     3    1
    15     2     4   ar
    16     4     5   ar
    17     5     6   ar
    18     6    22    1
    19    22    24    1
    20    24    25    2
    21    24    26    2
    22    24    27    1
    23    27    28   ar
    24    28    29   ar
    25    29    30    1
    26    29    31   ar
    27    31    32   ar
    28    32    33   ar
    29    33    34    1
    30     6     7   ar
    31     7     8    1
    32    18    19    1
    33    19    11    1
    34    19    15    1
    35     7     1   ar
    36    33    27   ar
    37    22    23    1
@<TRIPOS>MOLECULE
*****
 34 37 0 0 0
SMALL
GASTEIGER

@<TRIPOS>ATOM
      1 C          -6.8161  -19.1132   21.6662 C.ar    1  UNL1        0.0949
      2 C          -5.7148  -20.0423   21.2490 C.ar    1  UNL1        0.1454
      3 F          -6.0395  -21.3055   20.5081 F       1  UNL1       -0.2040
      4 C          -4.2888  -19.7081   21.5729 C.ar    1  UNL1        0.0312
      5 C          -3.9641  -18.4450   22.3138 C.ar    1  UNL1        0.0204
      6 C          -5.0654  -17.5159   22.7310 C.ar    1  UNL1        0.0924
      7 C          -6.4914  -17.8501   22.4071 C.ar    1  UNL1        0.1598
      8 F          -7.5928  -16.9211   22.8242 F       1  UNL1       -0.2026
      9 C          -8.2422  -19.4474   21.3423 C.2     1  UNL1        0.2007
     10 O          -8.6564  -19.6651   19.9173 O.2     1  UNL1       -0.2866
     11 C         -11.1072  -17.6803   21.7161 C.2     1  UNL1        0.1360
     12 C         -12.4090  -17.0451   22.1055 C.2     1  UNL1        0.0837
     13 C         -13.1172  -17.4890   23.3510 C.2     1  UNL1        0.2385
     14 N         -12.5236  -18.5682   24.2072 N.2     1  UNL1       -0.0338
     15 C         -11.2218  -19.2034   23.8178 C.2     1  UNL1        0.3626
     16 N         -10.3998  -20.2820   24.4589 N.2     1  UNL1       -0.0341
     17 C          -9.1836  -20.5047   23.6097 C.2     1  UNL1        0.2355
     18 C          -9.2539  -19.5637   22.4437 C.2     1  UNL1        0.0823
     19 C         -10.5136  -18.7595   22.5722 C.3     1  UNL1        0.1973
     20 C         -10.9673  -16.1237   19.6407 C.3     1  UNL1        0.2520
     21 O         -10.3989  -17.2364   20.4706 O.2     1  UNL1       -0.4746
     22 N          -4.7407  -16.2528   23.4719 N.pl3   1  UNL1       -0.2127
     23 H          -3.9736  -15.7021   23.1935 H       1  UNL1        0.1738
     24 S          -5.5848  -15.8287   24.6370 S.O2    1  UNL1        0.0759
     25 O          -4.9408  -16.8832   25.4875 O.2     1  UNL1       -0.1499
     26 O          -6.2288  -14.7742   23.7866 O.2     1  UNL1       -0.1499
     27 C          -6.4289  -15.4045   25.8021 C.ar    1  UNL1        0.1547
     28 C          -5.9022  -14.3998   26.7836 C.ar    1  UNL1        0.0521
     29 C          -6.7462  -13.9756   27.9487 C.ar    1  UNL1        0.1416
     30 F          -6.2194  -12.9710   28.9302 F       1  UNL1       -0.2041
     31 C          -8.1171  -14.5559   28.1325 C.ar    1  UNL1        0.0320
     32 C          -8.6439  -15.5606   27.1510 C.ar    1  UNL1        0.0333
     33 C          -7.7998  -15.9848   25.9858 C.ar    1  UNL1        0.1590
     34 F          -8.3267  -16.9895   25.0044 F       1  UNL1       -0.2027
@<TRIPOS>BOND
     1    20    21    1
     2    21    11    1
     3    11    12    2
     4    12    13    1
     5    13    14    2
     6    14    15    1
     7    15    16    2
     8    16    17    1
     9    17    18    2
    10    18     9    1
    11     9    10    2
    12     9     1    1
    13     1     2   ar
    14     2     3    1
    15     2     4   ar
    16     4     5   ar
    17     5     6   ar
    18     6    22    1
    19    22    24    1
    20    24    25    2
    21    24    26    2
    22    24    27    1
    23    27    28   ar
    24    28    29   ar
    25    29    30    1
    26    29    31   ar
    27    31    32   ar
    28    32    33   ar
    29    33    34    1
    30     6     7   ar
    31     7     8    1
    32    18    19    1
    33    19    11    1
    34    19    15    1
    35     7     1   ar
    36    33    27   ar
    37    22    23    1
@<TRIPOS>MOLECULE
*****
 34 37 0 0 0
SMALL
GASTEIGER

@<TRIPOS>ATOM
      1 C           5.3714   -3.2487   22.9968 C.ar    1  UNL1        0.0949
      2 C           4.6096   -2.0824   23.5530 C.ar    1  UNL1        0.1454
      3 F           3.6425   -1.3349   22.6835 F       1  UNL1       -0.2040
      4 C           4.8148   -1.6637   24.9786 C.ar    1  UNL1        0.0312
      5 C           5.7818   -2.4112   25.8481 C.ar    1  UNL1        0.0204
      6 C           6.5437   -3.5775   25.2920 C.ar    1  UNL1        0.0924
      7 C           6.3385   -3.9962   23.8664 C.ar    1  UNL1        0.1598
      8 F           7.1003   -5.1625   23.3101 F       1  UNL1       -0.2026
      9 C           5.1662   -3.6675   21.5711 C.2     1  UNL1        0.2007
     10 O           4.1278   -4.6958   21.2336 O.2     1  UNL1       -0.2866
     11 C           4.1330   -1.6412   19.0618 C.2     1  UNL1        0.1360
     12 C           3.9349   -0.7445   17.8758 C.2     1  UNL1        0.0837
     13 C           5.1049   -0.3696   17.0152 C.2     1  UNL1        0.2385
     14 N           6.4730   -0.8915   17.3406 N.2     1  UNL1       -0.0338
     15 C           6.6711   -1.7882   18.5266 C.2     1  UNL1        0.3626
     16 N           7.8926   -2.4514   19.0906 N.2     1  UNL1       -0.0341
     17 C           7.4776   -3.2361   20.2997 C.2     1  UNL1        0.2355
     18 C           5.9996   -3.0579   20.4830 C.2     1  UNL1        0.0823
     19 C           5.5011   -2.1631   19.3872 C.3     1  UNL1        0.1973
     20 C           1.8076   -1.0711   20.0704 C.3     1  UNL1        0.2520
     21 O           2.9630   -2.0161   19.9223 O.2     1  UNL1       -0.4746
     22 N           7.5107   -4.3250   26.1615 N.pl3   1  UNL1       -0.2127
     23 H           8.2833   -4.7827   25.7580 H       1  UNL1        0.1738
     24 S           7.3006   -4.3752   27.6459 S.O2    1  UNL1        0.0759
     25 O           6.1427   -5.3085   27.4504 O.2     1  UNL1       -0.1499
     26 O           8.4584   -3.4418   27.8413 O.2     1  UNL1       -0.1499
     27 C           7.0905   -4.4253   29.1302 C.ar    1  UNL1        0.1547
     28 C           6.5791   -3.2166   29.8565 C.ar    1  UNL1        0.0521
     29 C           6.3690   -3.2666   31.3409 C.ar    1  UNL1        0.1416
     30 F           5.8576   -2.0578   32.0672 F       1  UNL1       -0.2041
     31 C           6.6703   -4.5253   32.0990 C.ar    1  UNL1        0.0320
     32 C           7.1817   -5.7340   31.3727 C.ar    1  UNL1        0.0333
     33 C           7.3918   -5.6840   29.8883 C.ar    1  UNL1        0.1590
     34 F           7.9032   -6.8928   29.1620 F       1  UNL1       -0.2027
@<TRIPOS>BOND
     1    20    21    1
     2    21    11    1
     3    11    12    2
     4    12    13    1
     5    13    14    2
     6    14    15    1
     7    15    16    2
     8    16    17    1
     9    17    18    2
    10    18     9    1
    11     9    10    2
    12     9     1    1
    13     1     2   ar
    14     2     3    1
    15     2     4   ar
    16     4     5   ar
    17     5     6   ar
    18     6    22    1
    19    22    24    1
    20    24    25    2
    21    24    26    2
    22    24    27    1
    23    27    28   ar
    24    28    29   ar
    25    29    30    1
    26    29    31   ar
    27    31    32   ar
    28    32    33   ar
    29    33    34    1
    30     6     7   ar
    31     7     8    1
    32    18    19    1
    33    19    11    1
    34    19    15    1
    35     7     1   ar
    36    33    27   ar
    37    22    23    1
@<TRIPOS>MOLECULE
*****
 34 37 0 0 0
SMALL
GASTEIGER

@<TRIPOS>ATOM
      1 C          -3.9028  -18.0065   22.0351 C.ar    1  UNL1        0.0949
      2 C          -2.7236  -18.5715   21.3001 C.ar    1  UNL1        0.1454
      3 F          -1.3799  -17.9159   21.4214 F       1  UNL1       -0.2040
      4 C          -2.8881  -19.7920   20.4439 C.ar    1  UNL1        0.0312
      5 C          -4.2318  -20.4476   20.3226 C.ar    1  UNL1        0.0204
      6 C          -5.4111  -19.8826   21.0576 C.ar    1  UNL1        0.0924
      7 C          -5.2465  -18.6620   21.9138 C.ar    1  UNL1        0.1598
      8 F          -6.4257  -18.0970   22.6488 F       1  UNL1       -0.2026
      9 C          -3.7383  -16.7859   22.8914 C.2     1  UNL1        0.2007
     10 O          -3.1463  -15.5363   22.3102 O.2     1  UNL1       -0.2866
     11 C          -6.5208  -15.4151   24.2512 C.2     1  UNL1        0.1360
     12 C          -7.6594  -14.9084   25.0860 C.2     1  UNL1        0.0837
     13 C          -7.6870  -15.1801   26.5609 C.2     1  UNL1        0.2385
     14 N          -6.5760  -15.9583   27.2011 N.2     1  UNL1       -0.0338
     15 C          -5.4374  -16.4650   26.3664 C.2     1  UNL1        0.3626
     16 N          -4.2107  -17.2545   26.7153 N.2     1  UNL1       -0.0341
     17 C          -3.4248  -17.4708   25.4561 C.2     1  UNL1        0.2355
     18 C          -4.1660  -16.8150   24.3289 C.2     1  UNL1        0.0823
     19 C          -5.4098  -16.1933   24.8914 C.3     1  UNL1        0.1973
     20 C          -7.7779  -14.9783   22.0199 C.3     1  UNL1        0.2520
     21 O          -6.4932  -15.1434   22.7763 O.2     1  UNL1       -0.4746
     22 N          -6.7548  -20.5381   20.9363 N.pl3   1  UNL1       -0.2127
     23 H          -6.8194  -21.5173   20.8570 H       1  UNL1        0.1738
     24 S          -8.0000  -19.7018   20.9359 S.O2    1  UNL1        0.0759
     25 O          -8.3876  -20.2783   22.2653 O.2     1  UNL1       -0.1499
     26 O          -7.6123  -19.1253   19.6065 O.2     1  UNL1       -0.1499
     27 C          -9.2451  -18.8655   20.9355 C.ar    1  UNL1        0.1547
     28 C          -9.5051  -17.9068   22.0595 C.ar    1  UNL1        0.0521
     29 C         -10.7502  -17.0704   22.0591 C.ar    1  UNL1        0.1416
     30 F         -11.0101  -16.1117   23.1831 F       1  UNL1       -0.2041
     31 C         -11.7355  -17.1926   20.9347 C.ar    1  UNL1        0.0320
     32 C         -11.4755  -18.1513   19.8107 C.ar    1  UNL1        0.0333
     33 C         -10.2304  -18.9877   19.8110 C.ar    1  UNL1        0.1590
     34 F          -9.9705  -19.9464   18.6870 F       1  UNL1       -0.2027
@<TRIPOS>BOND
     1    20    21    1
     2    21    11    1
     3    11    12    2
     4    12    13    1
     5    13    14    2
     6    14    15    1
     7    15    16    2
     8    16    17    1
     9    17    18    2
    10    18     9    1
    11     9    10    2
    12     9     1    1
    13     1     2   ar
    14     2     3    1
    15     2     4   ar
    16     4     5   ar
    17     5     6   ar
    18     6    22    1
    19    22    24    1
    20    24    25    2
    21    24    26    2
    22    24    27    1
    23    27    28   ar
    24    28    29   ar
    25    29    30    1
    26    29    31   ar
    27    31    32   ar
    28    32    33   ar
    29    33    34    1
    30     6     7   ar
    31     7     8    1
    32    18    19    1
    33    19    11    1
    34    19    15    1
    35     7     1   ar
    36    33    27   ar
    37    22    23    1
@<TRIPOS>MOLECULE
*****
 34 37 0 0 0
SMALL
GASTEIGER

@<TRIPOS>ATOM
      1 C           5.3004   -2.9220   23.0461 C.ar    1  UNL1        0.0949
      2 C           4.2381   -2.0048   23.5756 C.ar    1  UNL1        0.1454
      3 F           3.0441   -1.6731   22.7303 F       1  UNL1       -0.2040
      4 C           4.3698   -1.4194   24.9503 C.ar    1  UNL1        0.0312
      5 C           5.5638   -1.7511   25.7955 C.ar    1  UNL1        0.0204
      6 C           6.6261   -2.6683   25.2660 C.ar    1  UNL1        0.0924
      7 C           6.4943   -3.2537   23.8913 C.ar    1  UNL1        0.1598
      8 F           7.5566   -4.1709   23.3618 F       1  UNL1       -0.2026
      9 C           5.1687   -3.5075   21.6713 C.2     1  UNL1        0.2007
     10 O           4.2186   -4.6422   21.4273 O.2     1  UNL1       -0.2866
     11 C           4.1171   -1.5506   19.1150 C.2     1  UNL1        0.1360
     12 C           3.9088   -0.6934   17.9018 C.2     1  UNL1        0.0837
     13 C           5.0643   -0.3783   16.9987 C.2     1  UNL1        0.2385
     14 N           6.4281   -0.9204   17.3088 N.2     1  UNL1       -0.0338
     15 C           6.6364   -1.7775   18.5220 C.2     1  UNL1        0.3626
     16 N           7.8567   -2.4484   19.0794 N.2     1  UNL1       -0.0341
     17 C           7.4555   -3.1782   20.3270 C.2     1  UNL1        0.2355
     18 C           5.9871   -2.9582   20.5406 C.2     1  UNL1        0.0823
     19 C           5.4809   -2.0926   19.4251 C.3     1  UNL1        0.1973
     20 C           1.7604   -0.9676   20.0403 C.3     1  UNL1        0.2520
     21 O           2.9616   -1.8657   20.0181 O.2     1  UNL1       -0.4746
     22 N           7.8200   -3.0000   26.1113 N.pl3   1  UNL1       -0.2127
     23 H           8.4607   -2.2940   26.3569 H       1  UNL1        0.1738
     24 S           8.0378   -4.4074   26.5822 S.O2    1  UNL1        0.0759
     25 O           6.7035   -4.3847   27.2671 O.2     1  UNL1       -0.1499
     26 O           9.3721   -4.4301   25.8973 O.2     1  UNL1       -0.1499
     27 C           8.2557   -5.8148   27.0531 C.ar    1  UNL1        0.1547
     28 C           8.7869   -6.0704   28.4325 C.ar    1  UNL1        0.0521
     29 C           9.0048   -7.4777   28.9035 C.ar    1  UNL1        0.1416
     30 F           9.5359   -7.7332   30.2829 F       1  UNL1       -0.2041
     31 C           8.6916   -8.6295   27.9951 C.ar    1  UNL1        0.0320
     32 C           8.1605   -8.3739   26.6157 C.ar    1  UNL1        0.0333
     33 C           7.9425   -6.9666   26.1448 C.ar    1  UNL1        0.1590
     34 F           7.4114   -6.7111   24.7654 F       1  UNL1       -0.2027
@<TRIPOS>BOND
     1    20    21    1
     2    21    11    1
     3    11    12    2
     4    12    13    1
     5    13    14    2
     6    14    15    1
     7    15    16    2
     8    16    17    1
     9    17    18    2
    10    18     9    1
    11     9    10    2
    12     9     1    1
    13     1     2   ar
    14     2     3    1
    15     2     4   ar
    16     4     5   ar
    17     5     6   ar
    18     6    22    1
    19    22    24    1
    20    24    25    2
    21    24    26    2
    22    24    27    1
    23    27    28   ar
    24    28    29   ar
    25    29    30    1
    26    29    31   ar
    27    31    32   ar
    28    32    33   ar
    29    33    34    1
    30     6     7   ar
    31     7     8    1
    32    18    19    1
    33    19    11    1
    34    19    15    1
    35     7     1   ar
    36    33    27   ar
    37    22    23    1
