@<TRIPOS>MOLECULE
*****
 33 36 0 0 0
SMALL
GASTEIGER

@<TRIPOS>ATOM
      1 N           8.6178   -5.2441   26.0063 N.3     1  UNL1       -0.2647
      2 C           7.7021   -4.0591   25.9187 C.3     1  UNL1        0.0942
      3 C           7.1368   -3.6446   24.5926 C.3     1  UNL1        0.1111
      4 N           7.4872   -4.4150   23.3541 N.am    1  UNL1       -0.2732
      5 C           6.9218   -4.0004   22.0279 C.2     1  UNL1        0.2492
      6 O           7.2721   -4.7707   20.7894 O.2     1  UNL1       -0.2699
      7 C           8.4028   -5.5998   23.4417 C.3     1  UNL1        0.1111
      8 C           8.9681   -6.0144   24.7678 C.3     1  UNL1        0.0942
      9 C           6.0062   -2.8155   21.9403 C.2     1  UNL1        0.0579
     10 C           4.5228   -3.0037   22.0591 C.2     1  UNL1        0.0044
     11 C           3.6071   -1.8188   21.9715 C.ar    1  UNL1       -0.0018
     12 C           3.2483   -1.0549   23.2116 C.ar    1  UNL1        0.0006
     13 C           2.3326    0.1299   23.1241 C.ar    1  UNL1        0.0114
     14 C           1.7758    0.5509   21.7964 C.ar    1  UNL1        0.0574
     15 CL          0.8601    1.7358   21.7088 Cl      1  UNL1       -0.0823
     16 C           2.1347   -0.2129   20.5564 C.ar    1  UNL1        0.0091
     17 C           3.0503   -1.3978   20.6439 C.ar    1  UNL1        0.0048
     18 C           3.4091   -2.1616   19.4038 C.3     1  UNL1        0.1777
     19 N           4.5778   -1.7295   18.5686 N.ar    1  UNL1       -0.1467
     20 N           5.6680   -2.6198   18.0501 N.ar    1  UNL1       -0.0451
     21 N           6.6255   -1.7718   17.2663 N.ar    1  UNL1       -0.1123
     22 C           6.1269   -0.3574   17.3004 C.ar    1  UNL1        0.1838
     23 C           6.7793    0.8234   16.6449 C.3     1  UNL1        0.0776
     24 N           4.8614   -0.3313   18.1053 N.ar    1  UNL1       -0.1339
     25 C           9.1831   -5.6586   27.3324 C.3     1  UNL1        0.1187
     26 C           7.2018   -4.3139   31.1424 C.ar    1  UNL1        0.1578
     27 C           6.9865   -5.7097   30.6373 C.ar    1  UNL1        0.0398
     28 C           7.6469   -6.1579   29.3673 C.ar    1  UNL1        0.0193
     29 C           8.5227   -5.2103   28.6024 C.ar    1  UNL1        0.0754
     30 N           8.7380   -3.8145   29.1076 N.ar    1  UNL1       -0.2436
     31 C           8.0775   -3.3663   30.3776 C.ar    1  UNL1        0.1352
     32 C           6.1865   -2.4208   32.6038 C.3     1  UNL1        0.2525
     33 O           6.5413   -3.8656   32.4124 O.3     1  UNL1       -0.4699
@<TRIPOS>BOND
     1    32    33    1
     2    33    26    1
     3    26    27   ar
     4    27    28   ar
     5    28    29   ar
     6    29    25    1
     7    25     1    1
     8     1     2    1
     9     2     3    1
    10     3     4    1
    11     4     5   am
    12     5     6    2
    13     5     9    1
    14     9    10    2
    15    10    11    1
    16    11    12   ar
    17    12    13   ar
    18    13    14   ar
    19    14    15    1
    20    14    16   ar
    21    16    17   ar
    22    17    18    1
    23    18    19    1
    24    19    20   ar
    25    20    21   ar
    26    21    22   ar
    27    22    23    1
    28    22    24   ar
    29     4     7    1
    30     7     8    1
    31    29    30   ar
    32    30    31   ar
    33    31    26   ar
    34     8     1    1
    35    17    11   ar
    36    24    19   ar
@<TRIPOS>MOLECULE
*****
 33 36 0 0 0
SMALL
GASTEIGER

@<TRIPOS>ATOM
      1 N           7.5563   -2.9150   27.3969 N.3     1  UNL1       -0.2647
      2 C           6.3199   -2.1794   26.9722 C.3     1  UNL1        0.0942
      3 C           5.7169   -2.4417   25.6241 C.3     1  UNL1        0.1111
      4 N           6.3503   -3.4398   24.7006 N.am    1  UNL1       -0.2732
      5 C           5.7472   -3.7021   23.3524 C.2     1  UNL1        0.2492
      6 O           6.3805   -4.7001   22.4289 O.2     1  UNL1       -0.2699
      7 C           7.5865   -4.1754   25.1252 C.3     1  UNL1        0.1111
      8 C           8.1896   -3.9131   26.4734 C.3     1  UNL1        0.0942
      9 C           4.5109   -2.9665   22.9277 C.2     1  UNL1        0.0579
     10 C           4.6238   -1.7499   22.0577 C.2     1  UNL1        0.0044
     11 C           3.3875   -1.0142   21.6330 C.ar    1  UNL1       -0.0018
     12 C           2.7296   -0.0480   22.5730 C.ar    1  UNL1        0.0006
     13 C           1.4933    0.6877   22.1484 C.ar    1  UNL1        0.0114
     14 C           0.9149    0.4572   20.7837 C.ar    1  UNL1        0.0574
     15 CL         -0.3214    1.1930   20.3591 Cl      1  UNL1       -0.0823
     16 C           1.5728   -0.5089   19.8437 C.ar    1  UNL1        0.0091
     17 C           2.8091   -1.2446   20.2683 C.ar    1  UNL1        0.0048
     18 C           3.4670   -2.2108   19.3283 C.3     1  UNL1        0.1777
     19 N           4.6810   -1.7936   18.5523 N.ar    1  UNL1       -0.1467
     20 N           5.7292   -2.7104   17.9949 N.ar    1  UNL1       -0.0451
     21 N           6.7560   -1.8697   17.2955 N.ar    1  UNL1       -0.1123
     22 C           6.3423   -0.4333   17.4208 C.ar    1  UNL1        0.1838
     23 C           7.0812    0.7485   16.8666 C.3     1  UNL1        0.0776
     24 N           5.0599   -0.3862   18.1975 N.ar    1  UNL1       -0.1339
     25 C           8.1592   -2.6527   28.7451 C.3     1  UNL1        0.1187
     26 C           5.5415   -2.5767   32.4046 C.ar    1  UNL1        0.1578
     27 C           6.4047   -3.7711   32.1245 C.ar    1  UNL1        0.0398
     28 C           7.2773   -3.7964   30.9047 C.ar    1  UNL1        0.0193
     29 C           7.2867   -2.6274   29.9649 C.ar    1  UNL1        0.0754
     30 N           6.4235   -1.4330   30.2449 N.ar    1  UNL1       -0.2436
     31 C           5.5509   -1.4077   31.4648 C.ar    1  UNL1        0.1352
     32 C           4.4585   -1.2667   34.3694 C.3     1  UNL1        0.2525
     33 O           4.6689   -2.5514   33.6244 O.3     1  UNL1       -0.4699
@<TRIPOS>BOND
     1    32    33    1
     2    33    26    1
     3    26    27   ar
     4    27    28   ar
     5    28    29   ar
     6    29    25    1
     7    25     1    1
     8     1     2    1
     9     2     3    1
    10     3     4    1
    11     4     5   am
    12     5     6    2
    13     5     9    1
    14     9    10    2
    15    10    11    1
    16    11    12   ar
    17    12    13   ar
    18    13    14   ar
    19    14    15    1
    20    14    16   ar
    21    16    17   ar
    22    17    18    1
    23    18    19    1
    24    19    20   ar
    25    20    21   ar
    26    21    22   ar
    27    22    23    1
    28    22    24   ar
    29     4     7    1
    30     7     8    1
    31    29    30   ar
    32    30    31   ar
    33    31    26   ar
    34     8     1    1
    35    17    11   ar
    36    24    19   ar
@<TRIPOS>MOLECULE
*****
 33 36 0 0 0
SMALL
GASTEIGER

@<TRIPOS>ATOM
      1 N           4.4446   -1.0188   18.1936 N.3     1  UNL1       -0.2647
      2 C           4.2691   -2.1021   19.2163 C.3     1  UNL1        0.0942
      3 C           5.4709   -2.7790   19.8056 C.3     1  UNL1        0.1111
      4 N           6.8483   -2.3726   19.3723 N.am    1  UNL1       -0.2732
      5 C           8.0502   -3.0496   19.9617 C.2     1  UNL1        0.2492
      6 O           9.4276   -2.6432   19.5285 O.2     1  UNL1       -0.2699
      7 C           7.0238   -1.2894   18.3498 C.3     1  UNL1        0.1111
      8 C           5.8219   -0.6124   17.7604 C.3     1  UNL1        0.0942
      9 C           7.8747   -4.1328   20.9843 C.2     1  UNL1        0.0579
     10 C           8.5417   -4.0159   22.3227 C.2     1  UNL1        0.0044
     11 C           8.3662   -5.0992   23.3454 C.ar    1  UNL1       -0.0018
     12 C           8.8175   -6.4972   23.0421 C.ar    1  UNL1        0.0006
     13 C           8.6421   -7.5804   24.0647 C.ar    1  UNL1        0.0114
     14 C           8.0152   -7.2657   25.3905 C.ar    1  UNL1        0.0574
     15 CL          7.8397   -8.3490   26.4132 Cl      1  UNL1       -0.0823
     16 C           7.5638   -5.8678   25.6938 C.ar    1  UNL1        0.0091
     17 C           7.7393   -4.7845   24.6712 C.ar    1  UNL1        0.0048
     18 C           7.2879   -3.3866   24.9745 C.3     1  UNL1        0.1777
     19 N           5.9795   -2.8877   24.4370 N.ar    1  UNL1       -0.1467
     20 N           5.1687   -3.5322   23.3519 N.ar    1  UNL1       -0.0451
     21 N           3.9401   -2.6995   23.1345 N.ar    1  UNL1       -0.1123
     22 C           3.9916   -1.5403   24.0852 C.ar    1  UNL1        0.1838
     23 C           2.9633   -0.4554   24.2091 C.3     1  UNL1        0.0776
     24 N           5.2519   -1.6566   24.8902 N.ar    1  UNL1       -0.1339
     25 C           3.2427   -0.3419   17.6043 C.3     1  UNL1        0.1187
     26 C           0.1749    1.5457   20.3017 C.ar    1  UNL1        0.1578
     27 C           0.4923    0.0855   20.4331 C.ar    1  UNL1        0.0398
     28 C           1.5148   -0.5437   19.5340 C.ar    1  UNL1        0.0193
     29 C           2.2201    0.2873   18.5034 C.ar    1  UNL1        0.0754
     30 N           1.9028    1.7474   18.3720 N.ar    1  UNL1       -0.2436
     31 C           0.8802    2.3766   19.2711 C.ar    1  UNL1        0.1352
     32 C          -1.8159    3.1785   20.6484 C.3     1  UNL1        0.2525
     33 O          -0.8476    2.1749   21.2008 O.3     1  UNL1       -0.4699
@<TRIPOS>BOND
     1    32    33    1
     2    33    26    1
     3    26    27   ar
     4    27    28   ar
     5    28    29   ar
     6    29    25    1
     7    25     1    1
     8     1     2    1
     9     2     3    1
    10     3     4    1
    11     4     5   am
    12     5     6    2
    13     5     9    1
    14     9    10    2
    15    10    11    1
    16    11    12   ar
    17    12    13   ar
    18    13    14   ar
    19    14    15    1
    20    14    16   ar
    21    16    17   ar
    22    17    18    1
    23    18    19    1
    24    19    20   ar
    25    20    21   ar
    26    21    22   ar
    27    22    23    1
    28    22    24   ar
    29     4     7    1
    30     7     8    1
    31    29    30   ar
    32    30    31   ar
    33    31    26   ar
    34     8     1    1
    35    17    11   ar
    36    24    19   ar
@<TRIPOS>MOLECULE
*****
 33 36 0 0 0
SMALL
GASTEIGER

@<TRIPOS>ATOM
      1 N           7.7902   -5.5260   23.4703 N.3     1  UNL1       -0.2647
      2 C           6.6284   -4.5787   23.5250 C.3     1  UNL1        0.0942
      3 C           6.3843   -3.6250   22.3932 C.3     1  UNL1        0.1111
      4 N           7.3020   -3.6186   21.2067 N.am    1  UNL1       -0.2732
      5 C           7.0579   -2.6649   20.0749 C.2     1  UNL1        0.2492
      6 O           7.9756   -2.6585   18.8884 O.2     1  UNL1       -0.2699
      7 C           8.4638   -4.5658   21.1520 C.3     1  UNL1        0.1111
      8 C           8.7079   -5.5195   22.2838 C.3     1  UNL1        0.0942
      9 C           5.8961   -1.7177   20.1297 C.2     1  UNL1        0.0579
     10 C           4.5740   -2.1179   19.5452 C.2     1  UNL1        0.0044
     11 C           3.4121   -1.1707   19.5999 C.ar    1  UNL1       -0.0018
     12 C           2.5674   -1.0906   20.8368 C.ar    1  UNL1        0.0006
     13 C           1.4056   -0.1435   20.8916 C.ar    1  UNL1        0.0114
     14 C           1.0885    0.7237   19.7095 C.ar    1  UNL1        0.0574
     15 CL         -0.0733    1.6709   19.7642 Cl      1  UNL1       -0.0823
     16 C           1.9333    0.6436   18.4725 C.ar    1  UNL1        0.0091
     17 C           3.0951   -0.3036   18.4178 C.ar    1  UNL1        0.0048
     18 C           3.9398   -0.3836   17.1808 C.3     1  UNL1        0.1777
     19 N           5.2589    0.3283   17.1261 N.ar    1  UNL1       -0.1467
     20 N           6.5767   -0.2843   16.7544 N.ar    1  UNL1       -0.0451
     21 N           7.6242    0.7868   16.8320 N.ar    1  UNL1       -0.1123
     22 C           6.9536    2.0613   17.2518 C.ar    1  UNL1        0.1838
     23 C           7.6267    3.3863   17.4542 C.3     1  UNL1        0.0776
     24 N           5.4919    1.7780   17.4335 N.ar    1  UNL1       -0.1339
     25 C           8.0343   -6.4796   24.6020 C.3     1  UNL1        0.1187
     26 C           7.7809   -5.0348   28.8562 C.ar    1  UNL1        0.1578
     27 C           6.5671   -5.6049   28.1842 C.ar    1  UNL1        0.0398
     28 C           6.6516   -6.0865   26.7662 C.ar    1  UNL1        0.0193
     29 C           7.9498   -5.9980   26.0201 C.ar    1  UNL1        0.0754
     30 N           9.1636   -5.4279   26.6921 N.ar    1  UNL1       -0.2436
     31 C           9.0792   -4.9463   28.1101 C.ar    1  UNL1        0.1352
     32 C           7.0726   -5.4222   31.3256 C.3     1  UNL1        0.2525
     33 O           7.6965   -4.5531   30.2743 O.3     1  UNL1       -0.4699
@<TRIPOS>BOND
     1    32    33    1
     2    33    26    1
     3    26    27   ar
     4    27    28   ar
     5    28    29   ar
     6    29    25    1
     7    25     1    1
     8     1     2    1
     9     2     3    1
    10     3     4    1
    11     4     5   am
    12     5     6    2
    13     5     9    1
    14     9    10    2
    15    10    11    1
    16    11    12   ar
    17    12    13   ar
    18    13    14   ar
    19    14    15    1
    20    14    16   ar
    21    16    17   ar
    22    17    18    1
    23    18    19    1
    24    19    20   ar
    25    20    21   ar
    26    21    22   ar
    27    22    23    1
    28    22    24   ar
    29     4     7    1
    30     7     8    1
    31    29    30   ar
    32    30    31   ar
    33    31    26   ar
    34     8     1    1
    35    17    11   ar
    36    24    19   ar
@<TRIPOS>MOLECULE
*****
 33 36 0 0 0
SMALL
GASTEIGER

@<TRIPOS>ATOM
      1 N           7.7404   -4.6499   25.1895 N.3     1  UNL1       -0.2647
      2 C           7.9991   -3.4353   26.0308 C.3     1  UNL1        0.0942
      3 C           7.7696   -3.4862   27.5122 C.3     1  UNL1        0.1111
      4 N           7.2813   -4.7518   28.1525 N.am    1  UNL1       -0.2732
      5 C           7.0518   -4.8027   29.6340 C.2     1  UNL1        0.2492
      6 O           6.5635   -6.0682   30.2742 O.2     1  UNL1       -0.2699
      7 C           7.0226   -5.9664   27.3112 C.3     1  UNL1        0.1111
      8 C           7.2521   -5.9155   25.8297 C.3     1  UNL1        0.0942
      9 C           7.3105   -3.5880   30.4752 C.2     1  UNL1        0.0579
     10 C           6.6423   -3.4442   31.8103 C.2     1  UNL1        0.0044
     11 C           6.9010   -2.2296   32.6516 C.ar    1  UNL1       -0.0018
     12 C           8.3001   -1.8965   33.0776 C.ar    1  UNL1        0.0006
     13 C           8.5589   -0.6819   33.9189 C.ar    1  UNL1        0.0114
     14 C           7.4185    0.1997   34.3341 C.ar    1  UNL1        0.0574
     15 CL          7.6772    1.4143   35.1754 Cl      1  UNL1       -0.0823
     16 C           6.0194   -0.1334   33.9081 C.ar    1  UNL1        0.0091
     17 C           5.7606   -1.3480   33.0668 C.ar    1  UNL1        0.0048
     18 C           4.3615   -1.6811   32.6408 C.3     1  UNL1        0.1777
     19 N           3.8450   -1.1977   31.3182 N.ar    1  UNL1       -0.1467
     20 N           4.6720   -0.9128   30.0995 N.ar    1  UNL1       -0.0451
     21 N           3.7489   -0.4533   29.0100 N.ar    1  UNL1       -0.1123
     22 C           2.3515   -0.4542   29.5554 C.ar    1  UNL1        0.1838
     23 C           1.1124   -0.0636   28.8058 C.3     1  UNL1        0.0776
     24 N           2.4109   -0.9142   30.9818 N.ar    1  UNL1       -0.1339
     25 C           7.9699   -4.5990   23.7081 C.3     1  UNL1        0.1187
     26 C           4.6546   -3.2901   20.9612 C.ar    1  UNL1        0.1578
     27 C           4.5186   -3.1028   22.4432 C.ar    1  UNL1        0.0398
     28 C           5.6238   -3.5391   23.3588 C.ar    1  UNL1        0.0193
     29 C           6.8648   -4.1627   22.7925 C.ar    1  UNL1        0.0754
     30 N           7.0008   -4.3500   21.3104 N.ar    1  UNL1       -0.2436
     31 C           5.8957   -3.9137   20.3948 C.ar    1  UNL1        0.1352
     32 C           2.8154   -1.5734   20.3130 C.3     1  UNL1        0.2525
     33 O           3.5495   -2.8538   20.0455 O.3     1  UNL1       -0.4699
@<TRIPOS>BOND
     1    32    33    1
     2    33    26    1
     3    26    27   ar
     4    27    28   ar
     5    28    29   ar
     6    29    25    1
     7    25     1    1
     8     1     2    1
     9     2     3    1
    10     3     4    1
    11     4     5   am
    12     5     6    2
    13     5     9    1
    14     9    10    2
    15    10    11    1
    16    11    12   ar
    17    12    13   ar
    18    13    14   ar
    19    14    15    1
    20    14    16   ar
    21    16    17   ar
    22    17    18    1
    23    18    19    1
    24    19    20   ar
    25    20    21   ar
    26    21    22   ar
    27    22    23    1
    28    22    24   ar
    29     4     7    1
    30     7     8    1
    31    29    30   ar
    32    30    31   ar
    33    31    26   ar
    34     8     1    1
    35    17    11   ar
    36    24    19   ar
@<TRIPOS>MOLECULE
*****
 33 36 0 0 0
SMALL
GASTEIGER

@<TRIPOS>ATOM
      1 N           0.1933    3.5114   25.0333 N.3     1  UNL1       -0.2647
      2 C           0.2408    2.4587   23.9657 C.3     1  UNL1        0.0942
      3 C           1.2321    1.3371   24.0620 C.3     1  UNL1        0.1111
      4 N           2.1759    1.2681   25.2258 N.am    1  UNL1       -0.2732
      5 C           3.1672    0.1465   25.3220 C.2     1  UNL1        0.2492
      6 O           4.1111    0.0775   26.4858 O.2     1  UNL1       -0.2699
      7 C           2.1284    2.3208   26.2933 C.3     1  UNL1        0.1111
      8 C           1.1371    3.4424   26.1971 C.3     1  UNL1        0.0942
      9 C           3.2147   -0.9062   24.2545 C.2     1  UNL1        0.0579
     10 C           4.0987   -0.7206   23.0570 C.2     1  UNL1        0.0044
     11 C           4.1462   -1.7732   21.9894 C.ar    1  UNL1       -0.0018
     12 C           4.4784   -3.1912   22.3486 C.ar    1  UNL1        0.0006
     13 C           4.5259   -4.2439   21.2811 C.ar    1  UNL1        0.0114
     14 C           4.2412   -3.8785   19.8544 C.ar    1  UNL1        0.0574
     15 CL          4.2887   -4.9312   18.7868 Cl      1  UNL1       -0.0823
     16 C           3.9091   -2.4605   19.4952 C.ar    1  UNL1        0.0091
     17 C           3.8616   -1.4079   20.5627 C.ar    1  UNL1        0.0048
     18 C           3.5294    0.0101   20.2036 C.3     1  UNL1        0.1777
     19 N           2.1136    0.4961   20.2995 N.ar    1  UNL1       -0.1467
     20 N           0.9094   -0.3487   20.5930 N.ar    1  UNL1       -0.0451
     21 N          -0.2951    0.5454   20.5936 N.ar    1  UNL1       -0.1123
     22 C           0.1648    1.9428   20.3005 C.ar    1  UNL1        0.1838
     23 C          -0.7103    3.1574   20.2058 C.3     1  UNL1        0.0776
     24 N           1.6534    1.9124   20.1187 N.ar    1  UNL1       -0.1339
     25 C          -0.7980    4.6330   24.9370 C.3     1  UNL1        0.1187
     26 C          -4.8821    3.8836   23.2023 C.ar    1  UNL1        0.1578
     27 C          -4.5678    3.4391   24.6000 C.ar    1  UNL1        0.0398
     28 C          -3.2064    3.6889   25.1782 C.ar    1  UNL1        0.0193
     29 C          -2.1594    4.3832   24.3588 C.ar    1  UNL1        0.0754
     30 N          -2.4737    4.8277   22.9611 N.ar    1  UNL1       -0.2436
     31 C          -3.8350    4.5779   22.3829 C.ar    1  UNL1        0.1352
     32 C          -7.3833    4.5460   22.9682 C.3     1  UNL1        0.2525
     33 O          -6.2434    3.6338   22.6241 O.3     1  UNL1       -0.4699
@<TRIPOS>BOND
     1    32    33    1
     2    33    26    1
     3    26    27   ar
     4    27    28   ar
     5    28    29   ar
     6    29    25    1
     7    25     1    1
     8     1     2    1
     9     2     3    1
    10     3     4    1
    11     4     5   am
    12     5     6    2
    13     5     9    1
    14     9    10    2
    15    10    11    1
    16    11    12   ar
    17    12    13   ar
    18    13    14   ar
    19    14    15    1
    20    14    16   ar
    21    16    17   ar
    22    17    18    1
    23    18    19    1
    24    19    20   ar
    25    20    21   ar
    26    21    22   ar
    27    22    23    1
    28    22    24   ar
    29     4     7    1
    30     7     8    1
    31    29    30   ar
    32    30    31   ar
    33    31    26   ar
    34     8     1    1
    35    17    11   ar
    36    24    19   ar
@<TRIPOS>MOLECULE
*****
 33 36 0 0 0
SMALL
GASTEIGER

@<TRIPOS>ATOM
      1 N          -0.9707    2.7216   25.1313 N.3     1  UNL1       -0.2647
      2 C           0.2391    1.9691   24.6620 C.3     1  UNL1        0.0942
      3 C           0.6025    1.9658   23.2067 C.3     1  UNL1        0.1111
      4 N          -0.2439    2.7151   22.2206 N.am    1  UNL1       -0.2732
      5 C           0.1196    2.7118   20.7653 C.2     1  UNL1        0.2492
      6 O          -0.7268    3.4610   19.7792 O.2     1  UNL1       -0.2699
      7 C          -1.4536    3.4676   22.6898 C.3     1  UNL1        0.1111
      8 C          -1.8171    3.4709   24.1452 C.3     1  UNL1        0.0942
      9 C           1.3293    1.9593   20.2961 C.2     1  UNL1        0.0579
     10 C           1.1854    0.5633   19.7665 C.2     1  UNL1        0.0044
     11 C           2.3952   -0.1893   19.2972 C.ar    1  UNL1       -0.0018
     12 C           2.8310   -0.0908   17.8653 C.ar    1  UNL1        0.0006
     13 C           4.0407   -0.8433   17.3961 C.ar    1  UNL1        0.0114
     14 C           4.8146   -1.6944   18.3587 C.ar    1  UNL1        0.0574
     15 CL          6.0244   -2.4470   17.8895 Cl      1  UNL1       -0.0823
     16 C           4.3788   -1.7929   19.7906 C.ar    1  UNL1        0.0091
     17 C           3.1691   -1.0403   20.2599 C.ar    1  UNL1        0.0048
     18 C           2.7333   -1.1388   21.6918 C.3     1  UNL1        0.1777
     19 N           3.7584   -1.2036   22.7850 N.ar    1  UNL1       -0.1467
     20 N           4.3343   -0.0324   23.5242 N.ar    1  UNL1       -0.0451
     21 N           5.3194   -0.5560   24.5270 N.ar    1  UNL1       -0.1123
     22 C           5.3523   -2.0509   24.4075 C.ar    1  UNL1        0.1838
     23 C           6.2008   -2.9820   25.2217 C.3     1  UNL1        0.0776
     24 N           4.3875   -2.4512   23.3309 N.ar    1  UNL1       -0.1339
     25 C          -1.3341    2.7249   26.5865 C.3     1  UNL1        0.1187
     26 C           1.1009    0.3331   29.5191 C.ar    1  UNL1        0.1578
     27 C          -0.1336   -0.2612   28.9086 C.ar    1  UNL1        0.0398
     28 C          -0.9453    0.5361   27.9311 C.ar    1  UNL1        0.0193
     29 C          -0.5224    1.9276   27.5641 C.ar    1  UNL1        0.0754
     30 N           0.7121    2.5219   28.1745 N.ar    1  UNL1       -0.2436
     31 C           1.5238    1.7246   29.1521 C.ar    1  UNL1        0.1352
     32 C           3.3974   -0.5813   30.3191 C.3     1  UNL1        0.2525
     33 O           1.9126   -0.4642   30.4966 O.3     1  UNL1       -0.4699
@<TRIPOS>BOND
     1    32    33    1
     2    33    26    1
     3    26    27   ar
     4    27    28   ar
     5    28    29   ar
     6    29    25    1
     7    25     1    1
     8     1     2    1
     9     2     3    1
    10     3     4    1
    11     4     5   am
    12     5     6    2
    13     5     9    1
    14     9    10    2
    15    10    11    1
    16    11    12   ar
    17    12    13   ar
    18    13    14   ar
    19    14    15    1
    20    14    16   ar
    21    16    17   ar
    22    17    18    1
    23    18    19    1
    24    19    20   ar
    25    20    21   ar
    26    21    22   ar
    27    22    23    1
    28    22    24   ar
    29     4     7    1
    30     7     8    1
    31    29    30   ar
    32    30    31   ar
    33    31    26   ar
    34     8     1    1
    35    17    11   ar
    36    24    19   ar
@<TRIPOS>MOLECULE
*****
 33 36 0 0 0
SMALL
GASTEIGER

@<TRIPOS>ATOM
      1 N           7.1803   -2.5969   26.1360 N.3     1  UNL1       -0.2647
      2 C           6.3615   -1.4760   25.5675 C.3     1  UNL1        0.0942
      3 C           5.5295   -1.7025   24.3402 C.3     1  UNL1        0.1111
      4 N           5.5162   -3.0499   23.6812 N.am    1  UNL1       -0.2732
      5 C           4.6841   -3.2764   22.4539 C.2     1  UNL1        0.2492
      6 O           4.6709   -4.6238   21.7949 O.2     1  UNL1       -0.2699
      7 C           6.3350   -4.1708   24.2496 C.3     1  UNL1        0.1111
      8 C           7.1671   -3.9444   25.4770 C.3     1  UNL1        0.0942
      9 C           3.8653   -2.1555   21.8855 C.2     1  UNL1        0.0579
     10 C           3.5157   -2.1469   20.4269 C.2     1  UNL1        0.0044
     11 C           2.6969   -1.0260   19.8584 C.ar    1  UNL1       -0.0018
     12 C           1.6087   -0.4006   20.6800 C.ar    1  UNL1        0.0006
     13 C           0.7899    0.7203   20.1116 C.ar    1  UNL1        0.0114
     14 C           1.0592    1.2158   18.7217 C.ar    1  UNL1        0.0574
     15 CL          0.2404    2.3368   18.1533 Cl      1  UNL1       -0.0823
     16 C           2.1474    0.5905   17.9002 C.ar    1  UNL1        0.0091
     17 C           2.9662   -0.5304   18.4686 C.ar    1  UNL1        0.0048
     18 C           4.0544   -1.1557   17.6470 C.3     1  UNL1        0.1777
     19 N           5.4830   -1.0537   18.0924 N.ar    1  UNL1       -0.1467
     20 N           6.2208    0.2144   18.4051 N.ar    1  UNL1       -0.0451
     21 N           7.6186   -0.1502   18.8092 N.ar    1  UNL1       -0.1123
     22 C           7.7448   -1.6436   18.7463 C.ar    1  UNL1        0.1838
     23 C           8.9747   -2.4388   19.0696 C.3     1  UNL1        0.0776
     24 N           6.4250   -2.2020   18.3033 N.ar    1  UNL1       -0.1339
     25 C           8.0124   -2.3704   27.3633 C.3     1  UNL1        0.1187
     26 C           6.2493   -3.0882   31.4409 C.ar    1  UNL1        0.1578
     27 C           6.2146   -1.7142   30.8400 C.ar    1  UNL1        0.0398
     28 C           6.8023   -1.4750   29.4808 C.ar    1  UNL1        0.0193
     29 C           7.4247   -2.6097   28.7225 C.ar    1  UNL1        0.0754
     30 N           7.4594   -3.9836   29.3233 N.ar    1  UNL1       -0.2436
     31 C           6.8717   -4.2228   30.6825 C.ar    1  UNL1        0.1352
     32 C           4.5582   -2.4462   33.3058 C.3     1  UNL1        0.2525
     33 O           5.6616   -3.3274   32.8000 O.3     1  UNL1       -0.4699
@<TRIPOS>BOND
     1    32    33    1
     2    33    26    1
     3    26    27   ar
     4    27    28   ar
     5    28    29   ar
     6    29    25    1
     7    25     1    1
     8     1     2    1
     9     2     3    1
    10     3     4    1
    11     4     5   am
    12     5     6    2
    13     5     9    1
    14     9    10    2
    15    10    11    1
    16    11    12   ar
    17    12    13   ar
    18    13    14   ar
    19    14    15    1
    20    14    16   ar
    21    16    17   ar
    22    17    18    1
    23    18    19    1
    24    19    20   ar
    25    20    21   ar
    26    21    22   ar
    27    22    23    1
    28    22    24   ar
    29     4     7    1
    30     7     8    1
    31    29    30   ar
    32    30    31   ar
    33    31    26   ar
    34     8     1    1
    35    17    11   ar
    36    24    19   ar
@<TRIPOS>MOLECULE
*****
 33 36 0 0 0
SMALL
GASTEIGER

@<TRIPOS>ATOM
      1 N           8.1337   -4.7034   25.7346 N.3     1  UNL1       -0.2647
      2 C           6.9443   -3.7932   25.8173 C.3     1  UNL1        0.0942
      3 C           6.1364   -3.5012   24.5877 C.3     1  UNL1        0.1111
      4 N           6.5178   -4.1195   23.2754 N.am    1  UNL1       -0.2732
      5 C           5.7098   -3.8275   22.0457 C.2     1  UNL1        0.2492
      6 O           6.0913   -4.4457   20.7334 O.2     1  UNL1       -0.2699
      7 C           7.7072   -5.0297   23.1926 C.3     1  UNL1        0.1111
      8 C           8.5152   -5.3217   24.4223 C.3     1  UNL1        0.0942
      9 C           4.5205   -2.9173   22.1285 C.2     1  UNL1        0.0579
     10 C           4.5091   -1.6267   21.3641 C.2     1  UNL1        0.0044
     11 C           3.3197   -0.7164   21.4468 C.ar    1  UNL1       -0.0018
     12 C           2.1436   -0.9351   20.5419 C.ar    1  UNL1        0.0006
     13 C           0.9542   -0.0249   20.6246 C.ar    1  UNL1        0.0114
     14 C           0.9409    1.1040   21.6122 C.ar    1  UNL1        0.0574
     15 CL         -0.2485    2.0142   21.6949 Cl      1  UNL1       -0.0823
     16 C           2.1171    1.3226   22.5171 C.ar    1  UNL1        0.0091
     17 C           3.3064    0.4124   22.4345 C.ar    1  UNL1        0.0048
     18 C           4.4826    0.6311   23.3394 C.3     1  UNL1        0.1777
     19 N           4.5260   -0.0290   24.6856 N.ar    1  UNL1       -0.1467
     20 N           3.5072   -0.9845   25.2324 N.ar    1  UNL1       -0.0451
     21 N           3.9474   -1.3956   26.6062 N.ar    1  UNL1       -0.1123
     22 C           5.2384   -0.6940   26.9085 C.ar    1  UNL1        0.1838
     23 C           6.0323   -0.8156   28.1753 C.3     1  UNL1        0.0776
     24 N           5.5959    0.1506   25.7216 N.ar    1  UNL1       -0.1339
     25 C           8.9416   -4.9954   26.9643 C.3     1  UNL1        0.1187
     26 C           7.2015   -4.2092   31.0390 C.ar    1  UNL1        0.1578
     27 C           8.1570   -3.2268   30.4293 C.ar    1  UNL1        0.0398
     28 C           8.7370   -3.4888   29.0710 C.ar    1  UNL1        0.0193
     29 C           8.3616   -4.7333   28.3225 C.ar    1  UNL1        0.0754
     30 N           7.4061   -5.7157   28.9323 N.ar    1  UNL1       -0.2436
     31 C           6.8261   -5.4537   30.2906 C.ar    1  UNL1        0.1352
     32 C           5.6073   -2.8575   32.5823 C.3     1  UNL1        0.2525
     33 O           6.6215   -3.9471   32.3973 O.3     1  UNL1       -0.4699
@<TRIPOS>BOND
     1    32    33    1
     2    33    26    1
     3    26    27   ar
     4    27    28   ar
     5    28    29   ar
     6    29    25    1
     7    25     1    1
     8     1     2    1
     9     2     3    1
    10     3     4    1
    11     4     5   am
    12     5     6    2
    13     5     9    1
    14     9    10    2
    15    10    11    1
    16    11    12   ar
    17    12    13   ar
    18    13    14   ar
    19    14    15    1
    20    14    16   ar
    21    16    17   ar
    22    17    18    1
    23    18    19    1
    24    19    20   ar
    25    20    21   ar
    26    21    22   ar
    27    22    23    1
    28    22    24   ar
    29     4     7    1
    30     7     8    1
    31    29    30   ar
    32    30    31   ar
    33    31    26   ar
    34     8     1    1
    35    17    11   ar
    36    24    19   ar
