@<TRIPOS>MOLECULE
*****
 34 37 0 0 0
SMALL
GASTEIGER

@<TRIPOS>ATOM
      1 C          -9.3082  -19.4067   23.3191 C.2     1  UNL1        0.2665
      2 O         -10.2254  -20.5701   23.5541 O.2     1  UNL1       -0.2710
      3 N          -9.7058  -18.0341   23.7752 N.am    1  UNL1       -0.2714
      4 C         -11.0205  -17.8249   24.4662 C.3     1  UNL1        0.1153
      5 C          -3.3510  -19.8885   20.8933 C.ar    1  UNL1        0.0531
      6 C          -4.0346  -20.7114   19.8419 C.ar    1  UNL1        0.0179
      7 C          -5.5150  -20.9417   19.9146 C.ar    1  UNL1        0.0379
      8 C          -6.3118  -20.3491   21.0388 C.ar    1  UNL1        0.1353
      9 C          -5.6283  -19.5262   22.0903 C.ar    1  UNL1        0.0172
     10 C          -4.1479  -19.2959   22.0175 C.ar    1  UNL1        0.0136
     11 C          -6.6675  -19.0730   23.0725 C.3     1  UNL1        0.0826
     12 C          -7.9933  -19.6158   22.6280 C.3     1  UNL1        0.2456
     13 O          -7.7735  -20.4045   21.3712 O.3     1  UNL1       -0.4699
     14 C          -1.3123  -18.6725   19.8373 C.2     1  UNL1        0.4055
     15 O          -2.2345  -17.9171   18.9268 O.2     1  UNL1       -0.2261
     16 N          -1.8706  -19.6581   20.8206 N.am    1  UNL1       -0.2499
     17 H          -1.2653  -20.1539   21.4182 H       1  UNL1        0.1582
     18 C           0.7335  -17.0906   20.0865 C.3     1  UNL1        0.2574
     19 O           0.1681  -18.4421   19.7646 O.3     1  UNL1       -0.4304
     20 C          -8.7885  -16.8707   23.5402 C.3     1  UNL1        0.1139
     21 C          -7.9789  -16.3132   24.6732 C.ar    1  UNL1       -0.0029
     22 C          -6.6097  -15.7580   24.4146 C.ar    1  UNL1       -0.0026
     23 C          -5.8001  -15.2004   25.5476 C.ar    1  UNL1       -0.0003
     24 C          -6.3598  -15.1981   26.9393 C.ar    1  UNL1       -0.0000
     25 C          -7.7291  -15.7533   27.1980 C.ar    1  UNL1       -0.0003
     26 C          -8.5386  -16.3108   26.0649 C.ar    1  UNL1       -0.0026
     27 C          -8.6808  -16.2649   22.1723 C.3     1  UNL1        0.0968
     28 N          -9.7770  -16.4757   21.1702 N.3     1  UNL1       -0.2689
     29 C         -10.1555  -17.7829   20.5395 C.3     1  UNL1        0.0748
     30 C         -11.2994  -17.5315   19.6024 C.3     1  UNL1        0.0480
     31 C         -11.6280  -16.0688   19.6541 C.3     1  UNL1        0.1278
     32 O         -12.7079  -15.3797   18.8737 O.3     1  UNL1       -0.3830
     33 C         -10.6871  -15.4162   20.6230 C.3     1  UNL1        0.1017
     34 H         -12.7099  -14.4341   19.0901 H       1  UNL1        0.2104
@<TRIPOS>BOND
     1    18    19    1
     2    19    14    1
     3    14    15    2
     4    14    16   am
     5    16     5    1
     6     5     6   ar
     7     6     7   ar
     8     7     8   ar
     9     8     9   ar
    10     9    10   ar
    11     9    11    1
    12    11    12    1
    13    12     1    1
    14     1     2    2
    15     1     3   am
    16     3     4    1
    17     3    20    1
    18    20    27    1
    19    27    28    1
    20    28    29    1
    21    29    30    1
    22    30    31    1
    23    31    32    1
    24    31    33    1
    25    20    21    1
    26    21    22   ar
    27    22    23   ar
    28    23    24   ar
    29    24    25   ar
    30    25    26   ar
    31    12    13    1
    32    10     5   ar
    33    33    28    1
    34    26    21   ar
    35    13     8    1
    36    16    17    1
    37    32    34    1
@<TRIPOS>MOLECULE
*****
 34 37 0 0 0
SMALL
GASTEIGER

@<TRIPOS>ATOM
      1 C         -10.6011  -19.7041   23.3866 C.2     1  UNL1        0.2665
      2 O         -11.1848  -21.0313   23.7711 O.2     1  UNL1       -0.2710
      3 N         -11.3182  -18.4368   23.7464 N.am    1  UNL1       -0.2714
      4 C         -12.6191  -18.4966   24.4908 C.3     1  UNL1        0.1153
      5 C          -4.6806  -19.6620   20.8270 C.ar    1  UNL1        0.0531
      6 C          -5.4096  -19.2350   19.5876 C.ar    1  UNL1        0.0179
      7 C          -6.9006  -19.0734   19.6125 C.ar    1  UNL1        0.0379
      8 C          -7.6628  -19.3387   20.8769 C.ar    1  UNL1        0.1353
      9 C          -6.9338  -19.7656   22.1163 C.ar    1  UNL1        0.0172
     10 C          -5.4428  -19.9273   22.0914 C.ar    1  UNL1        0.0136
     11 C          -7.9458  -19.9545   23.2074 C.3     1  UNL1        0.0826
     12 C          -9.3001  -19.6443   22.6422 C.3     1  UNL1        0.2456
     13 O          -9.1252  -19.2637   21.2018 O.3     1  UNL1       -0.4699
     14 C          -2.3197  -18.6889   20.3487 C.2     1  UNL1        0.4055
     15 O          -2.9408  -17.3925   19.9201 O.2     1  UNL1       -0.2261
     16 N          -3.1896  -19.8236   20.8021 N.am    1  UNL1       -0.2499
     17 H          -2.7819  -20.6744   21.0834 H       1  UNL1        0.1582
     18 C           0.0491  -17.6691   20.0338 C.3     1  UNL1        0.2574
     19 O          -0.8286  -18.8505   20.3238 O.3     1  UNL1       -0.4304
     20 C         -10.7345  -17.1096   23.3618 C.3     1  UNL1        0.1139
     21 C         -10.8823  -16.6039   21.9574 C.ar    1  UNL1       -0.0029
     22 C         -11.9296  -17.1878   21.0563 C.ar    1  UNL1       -0.0026
     23 C         -12.0774  -16.6821   19.6519 C.ar    1  UNL1       -0.0003
     24 C         -11.1779  -15.5925   19.1486 C.ar    1  UNL1       -0.0000
     25 C         -10.1304  -15.0084   20.0497 C.ar    1  UNL1       -0.0003
     26 C          -9.9826  -15.5141   21.4541 C.ar    1  UNL1       -0.0026
     27 C         -10.0030  -16.2882   24.3817 C.3     1  UNL1        0.0968
     28 N          -8.5178  -16.1073   24.2739 N.3     1  UNL1       -0.2689
     29 C          -7.6437  -16.6295   23.1724 C.3     1  UNL1        0.0748
     30 C          -6.2317  -16.2175   23.4663 C.3     1  UNL1        0.0480
     31 C          -6.2331  -15.4407   24.7495 C.3     1  UNL1        0.1278
     32 O          -5.0324  -14.8378   25.4165 O.3     1  UNL1       -0.3830
     33 C          -7.6460  -15.3726   25.2487 C.3     1  UNL1        0.1017
     34 H          -5.3065  -14.3895   26.2319 H       1  UNL1        0.2104
@<TRIPOS>BOND
     1    18    19    1
     2    19    14    1
     3    14    15    2
     4    14    16   am
     5    16     5    1
     6     5     6   ar
     7     6     7   ar
     8     7     8   ar
     9     8     9   ar
    10     9    10   ar
    11     9    11    1
    12    11    12    1
    13    12     1    1
    14     1     2    2
    15     1     3   am
    16     3     4    1
    17     3    20    1
    18    20    27    1
    19    27    28    1
    20    28    29    1
    21    29    30    1
    22    30    31    1
    23    31    32    1
    24    31    33    1
    25    20    21    1
    26    21    22   ar
    27    22    23   ar
    28    23    24   ar
    29    24    25   ar
    30    25    26   ar
    31    12    13    1
    32    10     5   ar
    33    33    28    1
    34    26    21   ar
    35    13     8    1
    36    16    17    1
    37    32    34    1
@<TRIPOS>MOLECULE
*****
 34 37 0 0 0
SMALL
GASTEIGER

@<TRIPOS>ATOM
      1 C          -8.6309  -19.6579   19.3459 C.2     1  UNL1        0.2665
      2 O          -9.0153  -20.4043   18.1030 O.2     1  UNL1       -0.2710
      3 N          -9.6820  -18.9596   20.1568 N.am    1  UNL1       -0.2714
      4 C         -11.1176  -19.0078   19.7247 C.3     1  UNL1        0.1153
      5 C          -2.3157  -19.1215   20.5440 C.ar    1  UNL1        0.0531
      6 C          -2.6834  -19.7828   21.8391 C.ar    1  UNL1        0.0179
      7 C          -4.1105  -20.1551   22.1125 C.ar    1  UNL1        0.0379
      8 C          -5.1699  -19.8662   21.0907 C.ar    1  UNL1        0.1353
      9 C          -4.8022  -19.2050   19.7955 C.ar    1  UNL1        0.0172
     10 C          -3.3751  -18.8326   19.5222 C.ar    1  UNL1        0.0136
     11 C          -6.0540  -19.0464   18.9842 C.3     1  UNL1        0.0826
     12 C          -7.1952  -19.6097   19.7780 C.3     1  UNL1        0.2456
     13 O          -6.6489  -20.1164   21.0799 O.3     1  UNL1       -0.4699
     14 C          -0.4371  -17.3296   20.4463 C.2     1  UNL1        0.4055
     15 O          -1.4126  -16.2823   20.8953 O.2     1  UNL1       -0.2261
     16 N          -0.8886  -18.7491   20.2706 N.am    1  UNL1       -0.2499
     17 H          -0.2483  -19.4364   19.9759 H       1  UNL1        0.1582
     18 C           2.1015  -17.6817   20.8728 C.3     1  UNL1        0.2574
     19 O           0.9900  -16.9572   20.1729 O.3     1  UNL1       -0.4304
     20 C          -9.2975  -18.2132   21.3998 C.3     1  UNL1        0.1139
     21 C          -9.6865  -18.7478   22.7463 C.ar    1  UNL1       -0.0029
     22 C         -10.6250  -17.9693   23.6198 C.ar    1  UNL1       -0.0026
     23 C         -11.0140  -18.5040   24.9662 C.ar    1  UNL1       -0.0003
     24 C         -10.4644  -19.8171   25.4391 C.ar    1  UNL1       -0.0000
     25 C          -9.5258  -20.5956   24.5656 C.ar    1  UNL1       -0.0003
     26 C          -9.1368  -20.0610   23.2192 C.ar    1  UNL1       -0.0026
     27 C          -8.5241  -16.9322   21.2964 C.3     1  UNL1        0.0968
     28 N          -7.5758  -16.5382   22.3898 N.3     1  UNL1       -0.2689
     29 C          -6.2937  -17.2343   22.7382 C.3     1  UNL1        0.0748
     30 C          -5.6686  -16.5053   23.8905 C.3     1  UNL1        0.0480
     31 C          -6.5645  -15.3585   24.2543 C.3     1  UNL1        0.1278
     32 O          -6.3239  -14.3658   25.3527 O.3     1  UNL1       -0.3830
     33 C          -7.7433  -15.3788   23.3268 C.3     1  UNL1        0.1017
     34 H          -7.0537  -13.7273   25.3771 H       1  UNL1        0.2104
@<TRIPOS>BOND
     1    18    19    1
     2    19    14    1
     3    14    15    2
     4    14    16   am
     5    16     5    1
     6     5     6   ar
     7     6     7   ar
     8     7     8   ar
     9     8     9   ar
    10     9    10   ar
    11     9    11    1
    12    11    12    1
    13    12     1    1
    14     1     2    2
    15     1     3   am
    16     3     4    1
    17     3    20    1
    18    20    27    1
    19    27    28    1
    20    28    29    1
    21    29    30    1
    22    30    31    1
    23    31    32    1
    24    31    33    1
    25    20    21    1
    26    21    22   ar
    27    22    23   ar
    28    23    24   ar
    29    24    25   ar
    30    25    26   ar
    31    12    13    1
    32    10     5   ar
    33    33    28    1
    34    26    21   ar
    35    13     8    1
    36    16    17    1
    37    32    34    1
@<TRIPOS>MOLECULE
*****
 34 37 0 0 0
SMALL
GASTEIGER

@<TRIPOS>ATOM
      1 C           2.3542    0.3148   20.4494 C.2     1  UNL1        0.2665
      2 O           1.1923    0.8828   21.2093 O.2     1  UNL1       -0.2710
      3 N           2.4311    0.4829   18.9608 N.am    1  UNL1       -0.2714
      4 C           1.3462    1.2189   18.2321 C.3     1  UNL1        0.1153
      5 C           6.4822   -3.3175   23.8215 C.ar    1  UNL1        0.0531
      6 C           7.4943   -2.3400   23.3017 C.ar    1  UNL1        0.0179
      7 C           7.0607   -1.2139   22.4108 C.ar    1  UNL1        0.0379
      8 C           5.6150   -1.0652   22.0396 C.ar    1  UNL1        0.1353
      9 C           4.6029   -2.0426   22.5594 C.ar    1  UNL1        0.0172
     10 C           5.0365   -3.1687   23.4503 C.ar    1  UNL1        0.0136
     11 C           3.2581   -1.6446   22.0270 C.3     1  UNL1        0.0826
     12 C           3.4392   -0.4213   21.1781 C.3     1  UNL1        0.2456
     13 O           4.8958   -0.0631   21.1860 O.3     1  UNL1       -0.4699
     14 C           7.6611   -5.6111   24.1368 C.2     1  UNL1        0.4055
     15 O           7.9730   -5.6524   22.6701 O.2     1  UNL1       -0.2261
     16 N           6.9157   -4.4436   24.7124 N.am    1  UNL1       -0.2499
     17 H           6.7111   -4.4165   25.6750 H       1  UNL1        0.1582
     18 C           7.2880   -7.0847   26.2437 C.3     1  UNL1        0.2574
     19 O           8.0947   -6.7372   25.0277 O.3     1  UNL1       -0.4304
     20 C           3.5931   -0.0852   18.2010 C.3     1  UNL1        0.1139
     21 C           4.8117    0.7545   17.9562 C.ar    1  UNL1       -0.0029
     22 C           4.9086    2.1275   18.5524 C.ar    1  UNL1       -0.0026
     23 C           6.1272    2.9671   18.3077 C.ar    1  UNL1       -0.0003
     24 C           7.2489    2.4338   17.4667 C.ar    1  UNL1       -0.0000
     25 C           7.1521    1.0608   16.8705 C.ar    1  UNL1       -0.0003
     26 C           5.9335    0.2211   17.1152 C.ar    1  UNL1       -0.0026
     27 C           3.5363   -1.4928   17.6860 C.3     1  UNL1        0.0968
     28 N           4.0301   -2.6239   18.5386 N.3     1  UNL1       -0.2689
     29 C           3.1973   -3.7464   19.0829 C.3     1  UNL1        0.0748
     30 C           4.0958   -4.6473   19.8772 C.3     1  UNL1        0.0480
     31 C           5.4840   -4.0815   19.8239 C.3     1  UNL1        0.1278
     32 O           6.6994   -4.6641   20.4823 O.3     1  UNL1       -0.3830
     33 C           5.4434   -2.8309   18.9965 C.3     1  UNL1        0.1017
     34 H           7.4691   -4.1052   20.2924 H       1  UNL1        0.2104
@<TRIPOS>BOND
     1    18    19    1
     2    19    14    1
     3    14    15    2
     4    14    16   am
     5    16     5    1
     6     5     6   ar
     7     6     7   ar
     8     7     8   ar
     9     8     9   ar
    10     9    10   ar
    11     9    11    1
    12    11    12    1
    13    12     1    1
    14     1     2    2
    15     1     3   am
    16     3     4    1
    17     3    20    1
    18    20    27    1
    19    27    28    1
    20    28    29    1
    21    29    30    1
    22    30    31    1
    23    31    32    1
    24    31    33    1
    25    20    21    1
    26    21    22   ar
    27    22    23   ar
    28    23    24   ar
    29    24    25   ar
    30    25    26   ar
    31    12    13    1
    32    10     5   ar
    33    33    28    1
    34    26    21   ar
    35    13     8    1
    36    16    17    1
    37    32    34    1
@<TRIPOS>MOLECULE
*****
 34 37 0 0 0
SMALL
GASTEIGER

@<TRIPOS>ATOM
      1 C           6.4748    1.2536   19.9269 C.2     1  UNL1        0.2665
      2 O           7.4164    2.4206   19.9666 O.2     1  UNL1       -0.2710
      3 N           5.8572    0.8320   18.6266 N.am    1  UNL1       -0.2714
      4 C           6.1811    1.5774   17.3659 C.3     1  UNL1        0.1153
      5 C           4.4534   -1.5413   25.3774 C.ar    1  UNL1        0.0531
      6 C           5.7291   -2.3191   25.2452 C.ar    1  UNL1        0.0179
      7 C           6.6475   -2.0625   24.0873 C.ar    1  UNL1        0.0379
      8 C           6.2902   -1.0280   23.0616 C.ar    1  UNL1        0.1353
      9 C           5.0145   -0.2501   23.1938 C.ar    1  UNL1        0.0172
     10 C           4.0961   -0.5068   24.3517 C.ar    1  UNL1        0.0136
     11 C           4.9284    0.6993   22.0356 C.3     1  UNL1        0.0826
     12 C           6.1508    0.5081   21.1877 C.3     1  UNL1        0.2456
     13 O           6.9925   -0.5594   21.8218 O.3     1  UNL1       -0.4699
     14 C           3.3433   -0.7466   27.5879 C.2     1  UNL1        0.4055
     15 O           4.0701    0.5614   27.4826 O.2     1  UNL1       -0.2261
     16 N           3.5350   -1.7979   26.5353 N.am    1  UNL1       -0.2499
     17 H           3.0580   -2.6563   26.6043 H       1  UNL1        0.1582
     18 C           1.3042   -0.0505   29.0396 C.3     1  UNL1        0.2574
     19 O           2.4249   -1.0032   28.7457 O.3     1  UNL1       -0.4304
     20 C           4.9156   -0.3350   18.5871 C.3     1  UNL1        0.1139
     21 C           3.4759   -0.1502   18.9652 C.ar    1  UNL1       -0.0029
     22 C           2.8318   -1.0856   19.9451 C.ar    1  UNL1       -0.0026
     23 C           1.3920   -0.9008   20.3233 C.ar    1  UNL1       -0.0003
     24 C           0.5964    0.2194   19.7216 C.ar    1  UNL1       -0.0000
     25 C           1.2405    1.1549   18.7417 C.ar    1  UNL1       -0.0003
     26 C           2.6802    0.9701   18.3635 C.ar    1  UNL1       -0.0026
     27 C           5.4137   -1.6868   18.1693 C.3     1  UNL1        0.0968
     28 N           6.3921   -2.4256   19.0337 N.3     1  UNL1       -0.2689
     29 C           7.8855   -2.2958   18.9842 C.3     1  UNL1        0.0748
     30 C           8.4652   -3.2139   20.0191 C.3     1  UNL1        0.0480
     31 C           7.3299   -3.9112   20.7082 C.3     1  UNL1        0.1278
     32 O           7.4540   -4.9188   21.8124 O.3     1  UNL1       -0.3830
     33 C           6.0485   -3.4240   20.0991 C.3     1  UNL1        0.1017
     34 H           6.5702   -5.2152   22.0806 H       1  UNL1        0.2104
@<TRIPOS>BOND
     1    18    19    1
     2    19    14    1
     3    14    15    2
     4    14    16   am
     5    16     5    1
     6     5     6   ar
     7     6     7   ar
     8     7     8   ar
     9     8     9   ar
    10     9    10   ar
    11     9    11    1
    12    11    12    1
    13    12     1    1
    14     1     2    2
    15     1     3   am
    16     3     4    1
    17     3    20    1
    18    20    27    1
    19    27    28    1
    20    28    29    1
    21    29    30    1
    22    30    31    1
    23    31    32    1
    24    31    33    1
    25    20    21    1
    26    21    22   ar
    27    22    23   ar
    28    23    24   ar
    29    24    25   ar
    30    25    26   ar
    31    12    13    1
    32    10     5   ar
    33    33    28    1
    34    26    21   ar
    35    13     8    1
    36    16    17    1
    37    32    34    1
@<TRIPOS>MOLECULE
*****
 34 37 0 0 0
SMALL
GASTEIGER

@<TRIPOS>ATOM
      1 C           6.0643    1.4653   20.4669 C.2     1  UNL1        0.2665
      2 O           6.9271    2.6885   20.3701 O.2     1  UNL1       -0.2710
      3 N           6.4825    0.1966   19.7847 N.am    1  UNL1       -0.2714
      4 C           7.7635    0.1510   19.0056 C.3     1  UNL1        0.1153
      5 C           0.8666    1.1517   24.2735 C.ar    1  UNL1        0.0531
      6 C           0.3199    2.1678   23.3151 C.ar    1  UNL1        0.0179
      7 C           1.1559    2.6365   22.1612 C.ar    1  UNL1        0.0379
      8 C           2.5386    2.0890   21.9657 C.ar    1  UNL1        0.1353
      9 C           3.0853    1.0729   22.9241 C.ar    1  UNL1        0.0172
     10 C           2.2493    0.6042   24.0779 C.ar    1  UNL1        0.0136
     11 C           4.4726    0.7155   22.4793 C.3     1  UNL1        0.0826
     12 C           4.7833    1.5108   21.2461 C.3     1  UNL1        0.2456
     13 O           3.5880    2.3597   20.9286 O.3     1  UNL1       -0.4699
     14 C           0.1026    1.3971   26.7445 C.2     1  UNL1        0.4055
     15 O           1.0107    2.5798   26.9078 O.2     1  UNL1       -0.2261
     16 N           0.0305    0.6831   25.4273 N.am    1  UNL1       -0.2499
     17 H          -0.5655   -0.0932   25.3202 H       1  UNL1        0.1582
     18 C          -0.2086   -0.1286   28.8243 C.3     1  UNL1        0.2574
     19 O          -0.7334    0.9284   27.8984 O.3     1  UNL1       -0.4304
     20 C           5.6196   -1.0266   19.8815 C.3     1  UNL1        0.1139
     21 C           5.8013   -1.9842   21.0217 C.ar    1  UNL1       -0.0029
     22 C           7.1134   -2.0481   21.7457 C.ar    1  UNL1       -0.0026
     23 C           7.2951   -3.0057   22.8859 C.ar    1  UNL1       -0.0003
     24 C           6.1646   -3.8994   23.3021 C.ar    1  UNL1       -0.0000
     25 C           4.8523   -3.8355   22.5782 C.ar    1  UNL1       -0.0003
     26 C           4.6707   -2.8779   21.4380 C.ar    1  UNL1       -0.0026
     27 C           4.5752   -1.2922   18.8382 C.3     1  UNL1        0.0968
     28 N           3.2192   -0.6618   18.9569 N.3     1  UNL1       -0.2689
     29 C           2.6700    0.4205   18.0756 C.3     1  UNL1        0.0748
     30 C           1.2858    0.7482   18.5517 C.3     1  UNL1        0.0480
     31 C           0.9796   -0.1316   19.7272 C.3     1  UNL1        0.1278
     32 O          -0.2974   -0.1388   20.5142 O.3     1  UNL1       -0.3830
     33 C           2.1745   -1.0032   19.9777 C.3     1  UNL1        0.1017
     34 H          -0.2378   -0.8003   21.2212 H       1  UNL1        0.2104
@<TRIPOS>BOND
     1    18    19    1
     2    19    14    1
     3    14    15    2
     4    14    16   am
     5    16     5    1
     6     5     6   ar
     7     6     7   ar
     8     7     8   ar
     9     8     9   ar
    10     9    10   ar
    11     9    11    1
    12    11    12    1
    13    12     1    1
    14     1     2    2
    15     1     3   am
    16     3     4    1
    17     3    20    1
    18    20    27    1
    19    27    28    1
    20    28    29    1
    21    29    30    1
    22    30    31    1
    23    31    32    1
    24    31    33    1
    25    20    21    1
    26    21    22   ar
    27    22    23   ar
    28    23    24   ar
    29    24    25   ar
    30    25    26   ar
    31    12    13    1
    32    10     5   ar
    33    33    28    1
    34    26    21   ar
    35    13     8    1
    36    16    17    1
    37    32    34    1
@<TRIPOS>MOLECULE
*****
 34 37 0 0 0
SMALL
GASTEIGER

@<TRIPOS>ATOM
      1 C           6.3960    1.2165   19.6703 C.2     1  UNL1        0.2665
      2 O           7.4990    2.2314   19.6141 O.2     1  UNL1       -0.2710
      3 N           5.1465    1.4214   18.8660 N.am    1  UNL1       -0.2714
      4 C           5.0001    2.6412   18.0055 C.3     1  UNL1        0.1153
      5 C           6.5809   -3.6796   23.8654 C.ar    1  UNL1        0.0531
      6 C           7.4615   -4.3072   22.8260 C.ar    1  UNL1        0.0179
      7 C           7.7750   -3.5646   21.5610 C.ar    1  UNL1        0.0379
      8 C           7.2080   -2.1944   21.3354 C.ar    1  UNL1        0.1353
      9 C           6.3274   -1.5668   22.3749 C.ar    1  UNL1        0.0172
     10 C           6.0138   -2.3094   23.6399 C.ar    1  UNL1        0.0136
     11 C           5.9160   -0.2126   21.8777 C.3     1  UNL1        0.0826
     12 C           6.5424   -0.0034   20.5309 C.3     1  UNL1        0.2456
     13 O           7.3409   -1.2282   20.1958 O.3     1  UNL1       -0.4699
     14 C           7.2488   -4.4194   26.2647 C.2     1  UNL1        0.4055
     15 O           8.5440   -3.6739   26.1340 O.2     1  UNL1       -0.2261
     16 N           6.2673   -4.4222   25.1304 N.am    1  UNL1       -0.2499
     17 H           5.4173   -4.9114   25.2162 H       1  UNL1        0.1582
     18 C           6.6209   -4.4045   28.7857 C.3     1  UNL1        0.2574
     19 O           6.9353   -5.1619   27.5297 O.3     1  UNL1       -0.4304
     20 C           4.0435    0.4064   18.9224 C.3     1  UNL1        0.1139
     21 C           2.8649    0.6288   19.8233 C.ar    1  UNL1       -0.0029
     22 C           3.0069    1.4858   21.0461 C.ar    1  UNL1       -0.0026
     23 C           1.8283    1.7082   21.9470 C.ar    1  UNL1       -0.0003
     24 C           0.5079    1.0736   21.6251 C.ar    1  UNL1       -0.0000
     25 C           0.3659    0.2166   20.4021 C.ar    1  UNL1       -0.0003
     26 C           1.5444   -0.0058   19.5013 C.ar    1  UNL1       -0.0026
     27 C           4.1189   -0.8309   18.0778 C.3     1  UNL1        0.0968
     28 N           4.3697   -2.1632   18.7200 N.3     1  UNL1       -0.2689
     29 C           5.2712   -3.2400   18.1932 C.3     1  UNL1        0.0748
     30 C           5.2216   -4.3948   19.1492 C.3     1  UNL1        0.0480
     31 C           4.2895   -4.0317   20.2668 C.3     1  UNL1        0.1278
     32 O           3.9444   -4.8960   21.4433 O.3     1  UNL1       -0.3830
     33 C           3.7629   -2.6523   20.0016 C.3     1  UNL1        0.1017
     34 H           3.3203   -4.4257   22.0180 H       1  UNL1        0.2104
@<TRIPOS>BOND
     1    18    19    1
     2    19    14    1
     3    14    15    2
     4    14    16   am
     5    16     5    1
     6     5     6   ar
     7     6     7   ar
     8     7     8   ar
     9     8     9   ar
    10     9    10   ar
    11     9    11    1
    12    11    12    1
    13    12     1    1
    14     1     2    2
    15     1     3   am
    16     3     4    1
    17     3    20    1
    18    20    27    1
    19    27    28    1
    20    28    29    1
    21    29    30    1
    22    30    31    1
    23    31    32    1
    24    31    33    1
    25    20    21    1
    26    21    22   ar
    27    22    23   ar
    28    23    24   ar
    29    24    25   ar
    30    25    26   ar
    31    12    13    1
    32    10     5   ar
    33    33    28    1
    34    26    21   ar
    35    13     8    1
    36    16    17    1
    37    32    34    1
@<TRIPOS>MOLECULE
*****
 34 37 0 0 0
SMALL
GASTEIGER

@<TRIPOS>ATOM
      1 C         -10.7615  -17.1821   20.7866 C.2     1  UNL1        0.2665
      2 O         -11.5804  -16.9074   19.5602 O.2     1  UNL1       -0.2710
      3 N         -11.2324  -16.6991   22.1264 N.am    1  UNL1       -0.2714
      4 C         -12.5220  -15.9416   22.2399 C.3     1  UNL1        0.1153
      5 C          -4.8880  -19.8423   20.6148 C.ar    1  UNL1        0.0531
      6 C          -5.6191  -20.9932   19.9898 C.ar    1  UNL1        0.0179
      7 C          -7.1016  -20.9126   19.7754 C.ar    1  UNL1        0.0379
      8 C          -7.8529  -19.6811   20.1862 C.ar    1  UNL1        0.1353
      9 C          -7.1217  -18.5301   20.8112 C.ar    1  UNL1        0.0172
     10 C          -5.6393  -18.6107   21.0255 C.ar    1  UNL1        0.0136
     11 C          -8.1223  -17.4538   21.1122 C.3     1  UNL1        0.0826
     12 C          -9.4718  -17.9397   20.6732 C.3     1  UNL1        0.2456
     13 O          -9.3053  -19.3162   20.1009 O.3     1  UNL1       -0.4699
     14 C          -2.5009  -18.9026   20.2043 C.2     1  UNL1        0.4055
     15 O          -3.0786  -17.8016   19.3651 O.2     1  UNL1       -0.2261
     16 N          -3.4056  -19.9229   20.8291 N.am    1  UNL1       -0.2499
     17 H          -3.0264  -20.6455   21.3799 H       1  UNL1        0.1582
     18 C          -0.1257  -17.8937   19.9026 C.3     1  UNL1        0.2574
     19 O          -1.0185  -18.9832   20.4186 O.3     1  UNL1       -0.4304
     20 C         -10.4135  -16.9738   23.3528 C.3     1  UNL1        0.1139
     21 C         -10.1313  -18.3882   23.7650 C.ar    1  UNL1       -0.0029
     22 C         -11.1480  -19.1556   24.5572 C.ar    1  UNL1       -0.0026
     23 C         -10.8658  -20.5700   24.9693 C.ar    1  UNL1       -0.0003
     24 C          -9.5671  -21.2170   24.5893 C.ar    1  UNL1       -0.0000
     25 C          -8.5503  -20.4497   23.7970 C.ar    1  UNL1       -0.0003
     26 C          -8.8325  -19.0353   23.3849 C.ar    1  UNL1       -0.0026
     27 C          -9.8767  -15.8341   24.1671 C.3     1  UNL1        0.0968
     28 N          -8.3953  -15.6467   24.3099 N.3     1  UNL1       -0.2689
     29 C          -7.5917  -15.8898   25.5528 C.3     1  UNL1        0.0748
     30 C          -6.1572  -15.5766   25.2460 C.3     1  UNL1        0.0480
     31 C          -6.0743  -15.1399   23.8134 C.3     1  UNL1        0.1278
     32 O          -4.8271  -14.7315   23.0869 O.3     1  UNL1       -0.3830
     33 C          -7.4576  -15.1832   23.2348 C.3     1  UNL1        0.1017
     34 H          -5.0483  -14.4952   22.1725 H       1  UNL1        0.2104
@<TRIPOS>BOND
     1    18    19    1
     2    19    14    1
     3    14    15    2
     4    14    16   am
     5    16     5    1
     6     5     6   ar
     7     6     7   ar
     8     7     8   ar
     9     8     9   ar
    10     9    10   ar
    11     9    11    1
    12    11    12    1
    13    12     1    1
    14     1     2    2
    15     1     3   am
    16     3     4    1
    17     3    20    1
    18    20    27    1
    19    27    28    1
    20    28    29    1
    21    29    30    1
    22    30    31    1
    23    31    32    1
    24    31    33    1
    25    20    21    1
    26    21    22   ar
    27    22    23   ar
    28    23    24   ar
    29    24    25   ar
    30    25    26   ar
    31    12    13    1
    32    10     5   ar
    33    33    28    1
    34    26    21   ar
    35    13     8    1
    36    16    17    1
    37    32    34    1
@<TRIPOS>MOLECULE
*****
 34 37 0 0 0
SMALL
GASTEIGER

@<TRIPOS>ATOM
      1 C          -0.3631    4.4082   22.1814 C.2     1  UNL1        0.2665
      2 O           0.1386    5.0686   23.4312 O.2     1  UNL1       -0.2710
      3 N          -1.5565    4.9672   21.4650 N.am    1  UNL1       -0.2714
      4 C          -2.2482    6.1866   21.9984 C.3     1  UNL1        0.1153
      5 C           3.2322   -0.4144   19.8531 C.ar    1  UNL1        0.0531
      6 C           1.9496   -1.1855   19.9529 C.ar    1  UNL1        0.0179
      7 C           0.7092   -0.5150   20.4648 C.ar    1  UNL1        0.0379
      8 C           0.7516    0.9266   20.8769 C.ar    1  UNL1        0.1353
      9 C           2.0342    1.6977   20.7771 C.ar    1  UNL1        0.0172
     10 C           3.2746    1.0272   20.2653 C.ar    1  UNL1        0.0136
     11 C           1.7729    3.0959   21.2537 C.3     1  UNL1        0.0826
     12 C           0.3286    3.1887   21.6479 C.3     1  UNL1        0.2456
     13 O          -0.3026    1.8480   21.4151 O.3     1  UNL1       -0.4699
     14 C           4.6597   -1.2915   17.8674 C.2     1  UNL1        0.4055
     15 O           3.6063   -0.8277   16.9054 O.2     1  UNL1       -0.2261
     16 N           4.4726   -1.0849   19.3413 N.am    1  UNL1       -0.2499
     17 H           5.1639   -1.3893   19.9727 H       1  UNL1        0.1582
     18 C           7.0944   -2.1135   18.2504 C.3     1  UNL1        0.2574
     19 O           5.9000   -1.9620   17.3556 O.3     1  UNL1       -0.4304
     20 C          -2.0582    4.3068   20.2151 C.3     1  UNL1        0.1139
     21 C          -1.4364    4.6374   18.8907 C.ar    1  UNL1       -0.0029
     22 C          -0.2687    5.5766   18.8240 C.ar    1  UNL1       -0.0026
     23 C           0.3531    5.9072   17.4996 C.ar    1  UNL1       -0.0003
     24 C          -0.1927    5.2987   16.2419 C.ar    1  UNL1       -0.0000
     25 C          -1.3605    4.3595   16.3086 C.ar    1  UNL1       -0.0003
     26 C          -1.9823    4.0289   17.6330 C.ar    1  UNL1       -0.0026
     27 C          -3.1817    3.3157   20.2896 C.3     1  UNL1        0.0968
     28 N          -4.5512    3.7643   20.7060 N.3     1  UNL1       -0.2689
     29 C          -5.4537    4.6772   19.9303 C.3     1  UNL1        0.0748
     30 C          -6.7188    4.8559   20.7161 C.3     1  UNL1        0.0480
     31 C          -6.5982    4.0534   21.9776 C.3     1  UNL1        0.1278
     32 O          -7.6351    3.9446   23.0559 O.3     1  UNL1       -0.3830
     33 C          -5.2584    3.3787   21.9714 C.3     1  UNL1        0.1017
     34 H          -7.3084    3.3646   23.7614 H       1  UNL1        0.2104
@<TRIPOS>BOND
     1    18    19    1
     2    19    14    1
     3    14    15    2
     4    14    16   am
     5    16     5    1
     6     5     6   ar
     7     6     7   ar
     8     7     8   ar
     9     8     9   ar
    10     9    10   ar
    11     9    11    1
    12    11    12    1
    13    12     1    1
    14     1     2    2
    15     1     3   am
    16     3     4    1
    17     3    20    1
    18    20    27    1
    19    27    28    1
    20    28    29    1
    21    29    30    1
    22    30    31    1
    23    31    32    1
    24    31    33    1
    25    20    21    1
    26    21    22   ar
    27    22    23   ar
    28    23    24   ar
    29    24    25   ar
    30    25    26   ar
    31    12    13    1
    32    10     5   ar
    33    33    28    1
    34    26    21   ar
    35    13     8    1
    36    16    17    1
    37    32    34    1
