@<TRIPOS>MOLECULE
*****
 32 37 0 0 0
SMALL
GASTEIGER

@<TRIPOS>ATOM
      1 C          -9.2771  -16.4030   23.7038 C.2     1  UNL1        0.0022
      2 C         -10.5924  -15.6875   23.6142 C.2     1  UNL1       -0.0008
      3 C         -11.5290  -15.9792   22.4796 C.2     1  UNL1        0.0204
      4 C         -11.1504  -16.9864   21.4345 C.2     1  UNL1        0.1007
      5 N         -11.8634  -17.4785   20.2098 N.2     1  UNL1       -0.1482
      6 N         -10.9886  -18.4981   19.5426 N.2     1  UNL1       -0.1467
      7 C          -9.7351  -18.6361   20.3548 C.2     1  UNL1        0.1199
      8 C          -9.8351  -17.7018   21.5240 C.2     1  UNL1        0.0226
      9 C          -8.8985  -17.4101   22.6587 C.3     1  UNL1        0.0574
     10 F          -6.5999  -15.1640   23.1581 F       1  UNL1       -0.2026
     11 C          -7.0017  -15.4918   24.5656 C.ar    1  UNL1        0.1574
     12 C          -6.0650  -15.2001   25.7003 C.ar    1  UNL1        0.0328
     13 C          -6.4668  -15.5279   27.1078 C.ar    1  UNL1        0.0230
     14 C          -7.8054  -16.1474   27.3807 C.ar    1  UNL1        0.0990
     15 N          -8.7422  -16.4391   26.2460 N.ar    1  UNL1       -0.2419
     16 C          -8.3403  -16.1113   24.8385 C.ar    1  UNL1        0.1050
     17 C          -8.5838  -19.5483   20.0511 C.ar    1  UNL1        0.1226
     18 C          -8.7115  -20.5841   18.9737 C.ar    1  UNL1        0.1198
     19 N          -7.5601  -21.4963   18.6700 N.ar    1  UNL1       -0.2358
     20 C          -6.2810  -21.3728   19.4437 C.ar    1  UNL1        0.1564
     21 C          -6.1533  -20.3369   20.5211 C.ar    1  UNL1        0.2447
     22 N          -7.3047  -19.4248   20.8248 N.ar    1  UNL1       -0.2072
     23 O          -4.8741  -20.2133   21.2948 O.3     1  UNL1       -0.4615
     24 C          -3.8276  -19.2299   20.8616 C.3     1  UNL1        0.1830
     25 C          -3.3150  -19.2524   19.4521 C.3     1  UNL1        0.1127
     26 N          -2.2685  -18.2690   19.0188 N.3     1  UNL1       -0.2945
     27 C          -1.7345  -17.2631   19.9951 C.3     1  UNL1        0.0688
     28 C          -2.2471  -17.2406   21.4046 C.3     1  UNL1        0.0206
     29 C          -3.2936  -18.2240   21.8378 C.3     1  UNL1        0.0396
     30 C          -4.1938  -18.7789   22.9018 C.3     1  UNL1        0.0037
     31 C          -3.2813  -17.6304   23.2153 C.3     1  UNL1        0.0037
     32 H          -2.6639  -17.7423   18.2400 H       1  UNL1        0.1234
@<TRIPOS>BOND
     1    10    11    1
     2    11    12   ar
     3    12    13   ar
     4    13    14   ar
     5    14    15   ar
     6    15    16   ar
     7    16     1    1
     8     1     2    2
     9     2     3    1
    10     3     4    2
    11     4     5    1
    12     5     6    2
    13     6     7    1
    14     7    17    1
    15    17    18   ar
    16    18    19   ar
    17    19    20   ar
    18    20    21   ar
    19    21    23    1
    20    24    23    1
    21    24    25    1
    22    25    26    1
    23    26    27    1
    24    27    28    1
    25    28    29    1
    26    29    30    1
    27    30    31    1
    28    21    22   ar
    29     7     8    2
    30     8     9    1
    31    16    11   ar
    32     9     1    1
    33     8     4    1
    34    22    17   ar
    35    29    24    1
    36    31    29    1
    37    26    32    1
@<TRIPOS>MOLECULE
*****
 32 37 0 0 0
SMALL
GASTEIGER

@<TRIPOS>ATOM
      1 C          -9.2921  -18.8606   20.7597 C.2     1  UNL1        0.0022
      2 C          -9.6923  -19.9065   19.7617 C.2     1  UNL1       -0.0008
      3 C          -8.6583  -20.8277   19.1853 C.2     1  UNL1        0.0204
      4 C          -7.2242  -20.7030   19.6069 C.2     1  UNL1        0.1007
      5 N          -5.9926  -21.4637   19.2135 N.2     1  UNL1       -0.1482
      6 N          -4.8313  -20.8879   19.9683 N.2     1  UNL1       -0.1467
      7 C          -5.3452  -19.7714   20.8283 C.2     1  UNL1        0.1199
      8 C          -6.8240  -19.6572   20.6049 C.2     1  UNL1        0.0226
      9 C          -7.8580  -18.7360   21.1813 C.3     1  UNL1        0.0574
     10 F         -11.0847  -19.8125   22.9689 F       1  UNL1       -0.2026
     11 C         -11.2224  -18.4153   22.4407 C.ar    1  UNL1        0.1574
     12 C         -12.2563  -17.4941   23.0171 C.ar    1  UNL1        0.0328
     13 C         -12.3940  -16.0968   22.4890 C.ar    1  UNL1        0.0230
     14 C         -11.4977  -15.6209   21.3843 C.ar    1  UNL1        0.0990
     15 N         -10.4637  -16.5422   20.8079 N.ar    1  UNL1       -0.2419
     16 C         -10.3261  -17.9393   21.3361 C.ar    1  UNL1        0.1050
     17 C          -4.5243  -18.9189   21.7498 C.ar    1  UNL1        0.1226
     18 C          -3.0863  -19.2605   22.0058 C.ar    1  UNL1        0.1198
     19 N          -2.2654  -18.4080   22.9274 N.ar    1  UNL1       -0.2358
     20 C          -2.8824  -17.2137   23.5929 C.ar    1  UNL1        0.1564
     21 C          -4.3204  -16.8720   23.3370 C.ar    1  UNL1        0.2447
     22 N          -5.1413  -17.7246   22.4154 N.ar    1  UNL1       -0.2072
     23 O          -4.9375  -15.6777   24.0026 O.3     1  UNL1       -0.4615
     24 C          -6.4105  -15.6541   24.2847 C.3     1  UNL1        0.1830
     25 C          -7.3919  -15.6936   23.1510 C.3     1  UNL1        0.1127
     26 N          -8.8650  -15.6699   23.4331 N.3     1  UNL1       -0.2945
     27 C          -9.3566  -15.6067   24.8489 C.3     1  UNL1        0.0688
     28 C          -8.3751  -15.5672   25.9825 C.3     1  UNL1        0.0206
     29 C          -6.9021  -15.5909   25.7004 C.3     1  UNL1        0.0396
     30 C          -5.4849  -15.5817   26.1920 C.3     1  UNL1        0.0037
     31 C          -6.6192  -15.5316   27.1723 C.3     1  UNL1        0.0037
     32 H          -9.2570  -16.5175   23.0228 H       1  UNL1        0.1234
@<TRIPOS>BOND
     1    10    11    1
     2    11    12   ar
     3    12    13   ar
     4    13    14   ar
     5    14    15   ar
     6    15    16   ar
     7    16     1    1
     8     1     2    2
     9     2     3    1
    10     3     4    2
    11     4     5    1
    12     5     6    2
    13     6     7    1
    14     7    17    1
    15    17    18   ar
    16    18    19   ar
    17    19    20   ar
    18    20    21   ar
    19    21    23    1
    20    24    23    1
    21    24    25    1
    22    25    26    1
    23    26    27    1
    24    27    28    1
    25    28    29    1
    26    29    30    1
    27    30    31    1
    28    21    22   ar
    29     7     8    2
    30     8     9    1
    31    16    11   ar
    32     9     1    1
    33     8     4    1
    34    22    17   ar
    35    29    24    1
    36    31    29    1
    37    26    32    1
@<TRIPOS>MOLECULE
*****
 32 37 0 0 0
SMALL
GASTEIGER

@<TRIPOS>ATOM
      1 C          -5.5711  -20.0617   20.2716 C.2     1  UNL1        0.0022
      2 C          -4.2373  -20.6692   19.9524 C.2     1  UNL1       -0.0008
      3 C          -3.0105  -20.2122   20.6847 C.2     1  UNL1        0.0204
      4 C          -3.1176  -19.1478   21.7361 C.2     1  UNL1        0.1007
      5 N          -2.0905  -18.5001   22.6169 N.2     1  UNL1       -0.1482
      6 N          -2.7896  -17.4924   23.4804 N.2     1  UNL1       -0.1467
      7 C          -4.2486  -17.5172   23.1333 C.2     1  UNL1        0.1199
      8 C          -4.4514  -18.5403   22.0553 C.2     1  UNL1        0.0226
      9 C          -5.6781  -18.9973   21.3231 C.3     1  UNL1        0.0574
     10 F          -8.0339  -18.3488   20.2564 F       1  UNL1       -0.2026
     11 C          -8.0294  -19.6622   19.5318 C.ar    1  UNL1        0.1574
     12 C          -9.2562  -20.1191   18.7996 C.ar    1  UNL1        0.0328
     13 C          -9.2516  -21.4325   18.0749 C.ar    1  UNL1        0.0230
     14 C          -8.0201  -22.2889   18.0825 C.ar    1  UNL1        0.0990
     15 N          -6.7933  -21.8320   18.8148 N.ar    1  UNL1       -0.2419
     16 C          -6.7979  -20.5187   19.5394 C.ar    1  UNL1        0.1050
     17 C          -5.3174  -16.6681   23.7551 C.ar    1  UNL1        0.1226
     18 C          -4.9700  -15.7151   24.8602 C.ar    1  UNL1        0.1198
     19 N          -6.0388  -14.8659   25.4820 N.ar    1  UNL1       -0.2358
     20 C          -7.4550  -14.9697   24.9988 C.ar    1  UNL1        0.1564
     21 C          -7.8024  -15.9226   23.8937 C.ar    1  UNL1        0.2447
     22 N          -6.7336  -16.7718   23.2719 N.ar    1  UNL1       -0.2072
     23 O          -9.2187  -16.0265   23.4104 O.3     1  UNL1       -0.4615
     24 C          -9.8269  -17.3735   23.1543 C.3     1  UNL1        0.1830
     25 C          -9.6373  -18.4828   24.1461 C.3     1  UNL1        0.1127
     26 N         -10.2455  -19.8298   23.8900 N.3     1  UNL1       -0.2945
     27 C         -11.0434  -20.0676   22.6422 C.3     1  UNL1        0.0688
     28 C         -11.2330  -18.9582   21.6505 C.3     1  UNL1        0.0206
     29 C         -10.6248  -17.6112   21.9066 C.3     1  UNL1        0.0396
     30 C         -10.3831  -16.1929   21.4819 C.3     1  UNL1        0.0037
     31 C         -11.1949  -17.1080   20.6137 C.3     1  UNL1        0.0037
     32 H         -10.8634  -20.0283   24.6769 H       1  UNL1        0.1234
@<TRIPOS>BOND
     1    10    11    1
     2    11    12   ar
     3    12    13   ar
     4    13    14   ar
     5    14    15   ar
     6    15    16   ar
     7    16     1    1
     8     1     2    2
     9     2     3    1
    10     3     4    2
    11     4     5    1
    12     5     6    2
    13     6     7    1
    14     7    17    1
    15    17    18   ar
    16    18    19   ar
    17    19    20   ar
    18    20    21   ar
    19    21    23    1
    20    24    23    1
    21    24    25    1
    22    25    26    1
    23    26    27    1
    24    27    28    1
    25    28    29    1
    26    29    30    1
    27    30    31    1
    28    21    22   ar
    29     7     8    2
    30     8     9    1
    31    16    11   ar
    32     9     1    1
    33     8     4    1
    34    22    17   ar
    35    29    24    1
    36    31    29    1
    37    26    32    1
@<TRIPOS>MOLECULE
*****
 32 37 0 0 0
SMALL
GASTEIGER

@<TRIPOS>ATOM
      1 C          -9.3011  -16.4043   23.7491 C.2     1  UNL1        0.0022
      2 C         -10.6183  -15.6898   23.6818 C.2     1  UNL1       -0.0008
      3 C         -11.5724  -15.9799   22.5614 C.2     1  UNL1        0.0204
      4 C         -11.2095  -16.9846   21.5083 C.2     1  UNL1        0.1007
      5 N         -11.9412  -17.4747   20.2940 N.2     1  UNL1       -0.1482
      6 N         -11.0762  -18.4922   19.6109 N.2     1  UNL1       -0.1467
      7 C          -9.8100  -18.6308   20.4030 C.2     1  UNL1        0.1199
      8 C          -9.8923  -17.6991   21.5756 C.2     1  UNL1        0.0226
      9 C          -8.9381  -17.4089   22.6960 C.3     1  UNL1        0.0574
     10 F          -9.7995  -17.5472   26.4777 F       1  UNL1       -0.2026
     11 C          -8.5961  -16.6856   26.2338 C.ar    1  UNL1        0.1574
     12 C          -7.6419  -16.3956   27.3542 C.ar    1  UNL1        0.0328
     13 C          -6.4384  -15.5339   27.1104 C.ar    1  UNL1        0.0230
     14 C          -6.1892  -14.9625   25.7461 C.ar    1  UNL1        0.0990
     15 N          -7.1435  -15.2526   24.6256 N.ar    1  UNL1       -0.2419
     16 C          -8.3469  -16.1142   24.8695 C.ar    1  UNL1        0.1050
     17 C          -8.6627  -19.5413   20.0793 C.ar    1  UNL1        0.1226
     18 C          -8.7505  -20.4697   18.9044 C.ar    1  UNL1        0.1198
     19 N          -7.6032  -21.3803   18.5807 N.ar    1  UNL1       -0.2358
     20 C          -6.3683  -21.3624   19.4318 C.ar    1  UNL1        0.1564
     21 C          -6.2805  -20.4340   20.6067 C.ar    1  UNL1        0.2447
     22 N          -7.4277  -19.5235   20.9304 N.ar    1  UNL1       -0.2072
     23 O          -5.0455  -20.4162   21.4579 O.3     1  UNL1       -0.4615
     24 C          -4.4506  -19.1084   21.8890 C.3     1  UNL1        0.1830
     25 C          -5.2289  -18.1888   22.7827 C.3     1  UNL1        0.1127
     26 N          -4.6340  -16.8810   23.2139 N.3     1  UNL1       -0.2945
     27 C          -3.2609  -16.4928   22.7513 C.3     1  UNL1        0.0688
     28 C          -2.4827  -17.4125   21.8577 C.3     1  UNL1        0.0206
     29 C          -3.0775  -18.7202   21.4265 C.3     1  UNL1        0.0396
     30 C          -2.9717  -20.0063   20.6616 C.3     1  UNL1        0.0037
     31 C          -1.8355  -19.0271   20.6435 C.3     1  UNL1        0.0037
     32 H          -4.6095  -16.8906   24.2335 H       1  UNL1        0.1234
@<TRIPOS>BOND
     1    10    11    1
     2    11    12   ar
     3    12    13   ar
     4    13    14   ar
     5    14    15   ar
     6    15    16   ar
     7    16     1    1
     8     1     2    2
     9     2     3    1
    10     3     4    2
    11     4     5    1
    12     5     6    2
    13     6     7    1
    14     7    17    1
    15    17    18   ar
    16    18    19   ar
    17    19    20   ar
    18    20    21   ar
    19    21    23    1
    20    24    23    1
    21    24    25    1
    22    25    26    1
    23    26    27    1
    24    27    28    1
    25    28    29    1
    26    29    30    1
    27    30    31    1
    28    21    22   ar
    29     7     8    2
    30     8     9    1
    31    16    11   ar
    32     9     1    1
    33     8     4    1
    34    22    17   ar
    35    29    24    1
    36    31    29    1
    37    26    32    1
@<TRIPOS>MOLECULE
*****
 32 37 0 0 0
SMALL
GASTEIGER

@<TRIPOS>ATOM
      1 C         -18.0570   -6.5593   19.1995 C.2     1  UNL1        0.0022
      2 C         -18.9746   -7.7053   19.5068 C.2     1  UNL1       -0.0008
      3 C         -18.4775   -9.1158   19.3916 C.2     1  UNL1        0.0204
      4 C         -17.0627   -9.3803   18.9691 C.2     1  UNL1        0.1007
      5 N         -16.2965  -10.6543   18.7688 N.2     1  UNL1       -0.1482
      6 N         -14.9053  -10.2955   18.3377 N.2     1  UNL1       -0.1467
      7 C         -14.8117   -8.7999   18.2716 C.2     1  UNL1        0.1199
      8 C         -16.1451   -8.2343   18.6618 C.2     1  UNL1        0.0226
      9 C         -16.6422   -6.8238   18.7770 C.3     1  UNL1        0.0574
     10 F         -16.3317   -4.4601   20.4711 F       1  UNL1       -0.2026
     11 C         -17.6914   -4.0991   19.9505 C.ar    1  UNL1        0.1574
     12 C         -18.1884   -2.6886   20.0657 C.ar    1  UNL1        0.0328
     13 C         -19.5481   -2.3276   19.5451 C.ar    1  UNL1        0.0230
     14 C         -20.4108   -3.3771   18.9093 C.ar    1  UNL1        0.0990
     15 N         -19.9137   -4.7877   18.7941 N.ar    1  UNL1       -0.2419
     16 C         -18.5540   -5.1487   19.3147 C.ar    1  UNL1        0.1050
     17 C         -13.5979   -8.0087   17.8835 C.ar    1  UNL1        0.1226
     18 C         -12.8649   -8.3333   16.6156 C.ar    1  UNL1        0.1198
     19 N         -11.6511   -7.5422   16.2275 N.ar    1  UNL1       -0.2358
     20 C         -11.1702   -6.4264   17.1071 C.ar    1  UNL1        0.1564
     21 C         -11.9031   -6.1019   18.3749 C.ar    1  UNL1        0.2447
     22 N         -13.1169   -6.8930   18.7631 N.ar    1  UNL1       -0.2072
     23 O         -11.4222   -4.9861   19.2547 O.3     1  UNL1       -0.4615
     24 C         -11.3968   -3.5791   18.7352 C.3     1  UNL1        0.1830
     25 C         -10.3043   -3.1429   17.8044 C.3     1  UNL1        0.1127
     26 N         -10.2790   -1.7360   17.2849 N.3     1  UNL1       -0.2945
     27 C         -11.3460   -0.7652   17.6962 C.3     1  UNL1        0.0688
     28 C         -12.4384   -1.2015   18.6270 C.3     1  UNL1        0.0206
     29 C         -12.4638   -2.6084   19.1465 C.3     1  UNL1        0.0396
     30 C         -13.1092   -3.6726   19.9838 C.3     1  UNL1        0.0037
     31 C         -13.7105   -2.2998   19.9213 C.3     1  UNL1        0.0037
     32 H         -10.3129   -1.7972   16.2674 H       1  UNL1        0.1234
@<TRIPOS>BOND
     1    10    11    1
     2    11    12   ar
     3    12    13   ar
     4    13    14   ar
     5    14    15   ar
     6    15    16   ar
     7    16     1    1
     8     1     2    2
     9     2     3    1
    10     3     4    2
    11     4     5    1
    12     5     6    2
    13     6     7    1
    14     7    17    1
    15    17    18   ar
    16    18    19   ar
    17    19    20   ar
    18    20    21   ar
    19    21    23    1
    20    24    23    1
    21    24    25    1
    22    25    26    1
    23    26    27    1
    24    27    28    1
    25    28    29    1
    26    29    30    1
    27    30    31    1
    28    21    22   ar
    29     7     8    2
    30     8     9    1
    31    16    11   ar
    32     9     1    1
    33     8     4    1
    34    22    17   ar
    35    29    24    1
    36    31    29    1
    37    26    32    1
@<TRIPOS>MOLECULE
*****
 32 37 0 0 0
SMALL
GASTEIGER

@<TRIPOS>ATOM
      1 C         -12.1306   -4.0900   18.3665 C.2     1  UNL1        0.0022
      2 C         -11.3023   -2.8408   18.3108 C.2     1  UNL1       -0.0008
      3 C         -11.9512   -1.5017   18.4997 C.2     1  UNL1        0.0204
      4 C         -13.4284   -1.4119   18.7442 C.2     1  UNL1        0.1007
      5 N         -14.3399   -0.2411   18.9649 N.2     1  UNL1       -0.1482
      6 N         -15.7315   -0.7669   19.1570 N.2     1  UNL1       -0.1467
      7 C         -15.6801   -2.2625   19.0549 C.2     1  UNL1        0.1199
      8 C         -14.2567   -2.6611   18.7998 C.2     1  UNL1        0.0226
      9 C         -13.6078   -4.0002   18.6110 C.3     1  UNL1        0.0574
     10 F          -9.5279   -4.7010   19.7276 F       1  UNL1       -0.2026
     11 C         -10.1803   -5.7347   18.8582 C.ar    1  UNL1        0.1574
     12 C          -9.5314   -7.0738   18.6693 C.ar    1  UNL1        0.0328
     13 C         -10.1839   -8.1075   17.7999 C.ar    1  UNL1        0.0230
     14 C         -11.4853   -7.8020   17.1194 C.ar    1  UNL1        0.0990
     15 N         -12.1342   -6.4629   17.3082 N.ar    1  UNL1       -0.2419
     16 C         -11.4817   -5.4292   18.1776 C.ar    1  UNL1        0.1050
     17 C         -16.8472   -3.1958   19.1852 C.ar    1  UNL1        0.1226
     18 C         -17.9647   -2.8716   20.1317 C.ar    1  UNL1        0.1198
     19 N         -19.1318   -3.8048   20.2619 N.ar    1  UNL1       -0.2358
     20 C         -19.1814   -5.0623   19.4456 C.ar    1  UNL1        0.1564
     21 C         -18.0638   -5.3865   18.4991 C.ar    1  UNL1        0.2447
     22 N         -16.8967   -4.4532   18.3689 N.ar    1  UNL1       -0.2072
     23 O         -18.1133   -6.6440   17.6828 O.3     1  UNL1       -0.4615
     24 C         -17.6746   -7.9463   18.2841 C.3     1  UNL1        0.1830
     25 C         -16.6595   -7.9582   19.3884 C.3     1  UNL1        0.1127
     26 N         -16.2208   -9.2605   19.9897 N.3     1  UNL1       -0.2945
     27 C         -16.7970  -10.5508   19.4867 C.3     1  UNL1        0.0688
     28 C         -17.8121  -10.5388   18.3824 C.3     1  UNL1        0.0206
     29 C         -18.2508   -9.2366   17.7811 C.3     1  UNL1        0.0396
     30 C         -19.0902   -8.4777   16.7963 C.3     1  UNL1        0.0037
     31 C         -19.1695   -9.9746   16.8531 C.3     1  UNL1        0.0037
     32 H         -16.4339   -9.2114   20.9860 H       1  UNL1        0.1234
@<TRIPOS>BOND
     1    10    11    1
     2    11    12   ar
     3    12    13   ar
     4    13    14   ar
     5    14    15   ar
     6    15    16   ar
     7    16     1    1
     8     1     2    2
     9     2     3    1
    10     3     4    2
    11     4     5    1
    12     5     6    2
    13     6     7    1
    14     7    17    1
    15    17    18   ar
    16    18    19   ar
    17    19    20   ar
    18    20    21   ar
    19    21    23    1
    20    24    23    1
    21    24    25    1
    22    25    26    1
    23    26    27    1
    24    27    28    1
    25    28    29    1
    26    29    30    1
    27    30    31    1
    28    21    22   ar
    29     7     8    2
    30     8     9    1
    31    16    11   ar
    32     9     1    1
    33     8     4    1
    34    22    17   ar
    35    29    24    1
    36    31    29    1
    37    26    32    1
@<TRIPOS>MOLECULE
*****
 32 37 0 0 0
SMALL
GASTEIGER

@<TRIPOS>ATOM
      1 C         -11.7058   -3.4175   17.9019 C.2     1  UNL1        0.0022
      2 C         -10.6226   -2.4321   17.5770 C.2     1  UNL1       -0.0008
      3 C         -10.8944   -0.9601   17.6726 C.2     1  UNL1        0.0204
      4 C         -12.2495   -0.4734   18.0933 C.2     1  UNL1        0.1007
      5 N         -12.8081    0.9067   18.2763 N.2     1  UNL1       -0.1482
      6 N         -14.2366    0.7741   18.7144 N.2     1  UNL1       -0.1467
      7 C         -14.5608   -0.6878   18.8021 C.2     1  UNL1        0.1199
      8 C         -13.3327   -1.4588   18.4182 C.2     1  UNL1        0.0226
      9 C         -13.0609   -2.9308   18.3225 C.3     1  UNL1        0.0574
     10 F          -9.6138   -4.6730   19.6475 F       1  UNL1       -0.2026
     11 C         -10.3879   -5.5173   18.6790 C.ar    1  UNL1        0.1574
     12 C         -10.1161   -6.9894   18.5834 C.ar    1  UNL1        0.0328
     13 C         -10.8902   -7.8337   17.6149 C.ar    1  UNL1        0.0230
     14 C         -11.9362   -7.2059   16.7420 C.ar    1  UNL1        0.0990
     15 N         -12.2080   -5.7338   16.8377 N.ar    1  UNL1       -0.2419
     16 C         -11.4339   -4.8896   17.8062 C.ar    1  UNL1        0.1050
     17 C         -15.8813   -1.2756   19.2032 C.ar    1  UNL1        0.1226
     18 C         -16.7991   -0.5094   20.1090 C.ar    1  UNL1        0.1198
     19 N         -18.1196   -1.0971   20.5101 N.ar    1  UNL1       -0.2358
     20 C         -18.5223   -2.4510   20.0055 C.ar    1  UNL1        0.1564
     21 C         -17.6044   -3.2172   19.0997 C.ar    1  UNL1        0.2447
     22 N         -16.2839   -2.6295   18.6985 N.ar    1  UNL1       -0.2072
     23 O         -18.0071   -4.5712   18.5949 O.3     1  UNL1       -0.4615
     24 C         -17.1069   -5.7511   18.8131 C.3     1  UNL1        0.1830
     25 C         -15.6719   -5.6897   18.3806 C.3     1  UNL1        0.1127
     26 N         -14.7718   -6.8696   18.5987 N.3     1  UNL1       -0.2945
     27 C         -15.3065   -8.1109   19.2494 C.3     1  UNL1        0.0688
     28 C         -16.7415   -8.1722   19.6818 C.3     1  UNL1        0.0206
     29 C         -17.6417   -6.9923   19.4637 C.3     1  UNL1        0.0396
     30 C         -18.9899   -6.3465   19.5874 C.3     1  UNL1        0.0037
     31 C         -18.7790   -7.7444   20.0890 C.3     1  UNL1        0.0037
     32 H         -13.9960   -6.5453   19.1762 H       1  UNL1        0.1234
@<TRIPOS>BOND
     1    10    11    1
     2    11    12   ar
     3    12    13   ar
     4    13    14   ar
     5    14    15   ar
     6    15    16   ar
     7    16     1    1
     8     1     2    2
     9     2     3    1
    10     3     4    2
    11     4     5    1
    12     5     6    2
    13     6     7    1
    14     7    17    1
    15    17    18   ar
    16    18    19   ar
    17    19    20   ar
    18    20    21   ar
    19    21    23    1
    20    24    23    1
    21    24    25    1
    22    25    26    1
    23    26    27    1
    24    27    28    1
    25    28    29    1
    26    29    30    1
    27    30    31    1
    28    21    22   ar
    29     7     8    2
    30     8     9    1
    31    16    11   ar
    32     9     1    1
    33     8     4    1
    34    22    17   ar
    35    29    24    1
    36    31    29    1
    37    26    32    1
@<TRIPOS>MOLECULE
*****
 32 37 0 0 0
SMALL
GASTEIGER

@<TRIPOS>ATOM
      1 C           8.5244   -6.1666   27.0879 C.2     1  UNL1        0.0022
      2 C           9.1874   -7.4970   26.8866 C.2     1  UNL1       -0.0008
      3 C           9.3841   -8.0347   25.5003 C.2     1  UNL1        0.0204
      4 C           8.9179   -7.2421   24.3152 C.2     1  UNL1        0.1007
      5 N           8.9749   -7.5134   22.8409 N.2     1  UNL1       -0.1482
      6 N           8.3471   -6.3506   22.1311 N.2     1  UNL1       -0.1467
      7 C           7.9022   -5.3607   23.1667 C.2     1  UNL1        0.1199
      8 C           8.2550   -5.9117   24.5164 C.2     1  UNL1        0.0226
      9 C           8.0583   -5.3740   25.9028 C.3     1  UNL1        0.0574
     10 F           5.7576   -5.5922   28.0952 F       1  UNL1       -0.2026
     11 C           6.9442   -5.3415   28.9780 C.ar    1  UNL1        0.1574
     12 C           6.7474   -4.8037   30.3643 C.ar    1  UNL1        0.0328
     13 C           7.9341   -4.5531   31.2471 C.ar    1  UNL1        0.0230
     14 C           9.3175   -4.8403   30.7434 C.ar    1  UNL1        0.0990
     15 N           9.5142   -5.3781   29.3570 N.ar    1  UNL1       -0.2419
     16 C           8.3277   -5.6287   28.4743 C.ar    1  UNL1        0.1050
     17 C           7.2237   -4.0500   22.8993 C.ar    1  UNL1        0.1226
     18 C           7.8272   -2.7751   23.4098 C.ar    1  UNL1        0.1198
     19 N           7.1486   -1.4644   23.1425 N.ar    1  UNL1       -0.2358
     20 C           5.8666   -1.4284   22.3647 C.ar    1  UNL1        0.1564
     21 C           5.2630   -2.7032   21.8543 C.ar    1  UNL1        0.2447
     22 N           5.9416   -4.0140   22.1216 N.ar    1  UNL1       -0.2072
     23 O           3.9808   -2.6673   21.0765 O.3     1  UNL1       -0.4615
     24 C           3.9529   -2.0628   19.7040 C.3     1  UNL1        0.1830
     25 C           4.8786   -2.5744   18.6402 C.3     1  UNL1        0.1127
     26 N           4.8507   -1.9699   17.2677 N.3     1  UNL1       -0.2945
     27 C           3.8971   -0.8538   16.9589 C.3     1  UNL1        0.0688
     28 C           2.9715   -0.3423   18.0227 C.3     1  UNL1        0.0206
     29 C           2.9994   -0.9468   19.3952 C.3     1  UNL1        0.0396
     30 C           2.4811   -1.0005   20.8018 C.3     1  UNL1        0.0037
     31 C           1.9145   -0.0072   19.8311 C.3     1  UNL1        0.0037
     32 H           4.6392   -2.7264   16.6171 H       1  UNL1        0.1234
@<TRIPOS>BOND
     1    10    11    1
     2    11    12   ar
     3    12    13   ar
     4    13    14   ar
     5    14    15   ar
     6    15    16   ar
     7    16     1    1
     8     1     2    2
     9     2     3    1
    10     3     4    2
    11     4     5    1
    12     5     6    2
    13     6     7    1
    14     7    17    1
    15    17    18   ar
    16    18    19   ar
    17    19    20   ar
    18    20    21   ar
    19    21    23    1
    20    24    23    1
    21    24    25    1
    22    25    26    1
    23    26    27    1
    24    27    28    1
    25    28    29    1
    26    29    30    1
    27    30    31    1
    28    21    22   ar
    29     7     8    2
    30     8     9    1
    31    16    11   ar
    32     9     1    1
    33     8     4    1
    34    22    17   ar
    35    29    24    1
    36    31    29    1
    37    26    32    1
@<TRIPOS>MOLECULE
*****
 32 37 0 0 0
SMALL
GASTEIGER

@<TRIPOS>ATOM
      1 C          -9.7464  -19.1512   20.2268 C.2     1  UNL1        0.0022
      2 C         -11.2310  -18.9543   20.1417 C.2     1  UNL1       -0.0008
      3 C         -11.9021  -17.9280   21.0055 C.2     1  UNL1        0.0204
      4 C         -11.0886  -17.0985   21.9543 C.2     1  UNL1        0.1007
      5 N         -11.4693  -16.0186   22.9233 N.2     1  UNL1       -0.1482
      6 N         -10.2200  -15.5481   23.6072 N.2     1  UNL1       -0.1467
      7 C          -9.0672  -16.3372   23.0609 C.2     1  UNL1        0.1199
      8 C          -9.6041  -17.2954   22.0394 C.2     1  UNL1        0.0226
      9 C          -8.9330  -18.3218   21.1756 C.3     1  UNL1        0.0574
     10 F          -7.0938  -20.2927   21.0395 F       1  UNL1       -0.2026
     11 C          -7.7489  -20.7484   19.7693 C.ar    1  UNL1        0.1574
     12 C          -7.0778  -21.7748   18.9056 C.ar    1  UNL1        0.0328
     13 C          -7.7329  -22.2305   17.6355 C.ar    1  UNL1        0.0230
     14 C          -9.0592  -21.6597   17.2291 C.ar    1  UNL1        0.0990
     15 N          -9.7304  -20.6333   18.0929 N.ar    1  UNL1       -0.2419
     16 C          -9.0753  -20.1777   19.3630 C.ar    1  UNL1        0.1050
     17 C          -7.6299  -16.1934   23.4652 C.ar    1  UNL1        0.1226
     18 C          -7.1880  -14.9941   24.2502 C.ar    1  UNL1        0.1198
     19 N          -5.7506  -14.8503   24.6545 N.ar    1  UNL1       -0.2358
     20 C          -4.7552  -15.9058   24.2738 C.ar    1  UNL1        0.1564
     21 C          -5.1971  -17.1051   23.4888 C.ar    1  UNL1        0.2447
     22 N          -6.6345  -17.2489   23.0845 N.ar    1  UNL1       -0.2072
     23 O          -4.2017  -18.1608   23.1080 O.3     1  UNL1       -0.4615
     24 C          -3.2033  -17.8930   22.0211 C.3     1  UNL1        0.1830
     25 C          -2.2829  -16.7128   22.1224 C.3     1  UNL1        0.1127
     26 N          -1.2845  -16.4450   21.0354 N.3     1  UNL1       -0.2945
     27 C          -1.2063  -17.3573   19.8473 C.3     1  UNL1        0.0688
     28 C          -2.1267  -18.5375   19.7461 C.3     1  UNL1        0.0206
     29 C          -3.1251  -18.8053   20.8330 C.3     1  UNL1        0.0396
     30 C          -4.2330  -19.6413   21.4022 C.3     1  UNL1        0.0037
     31 C          -3.6114  -20.0133   20.0887 C.3     1  UNL1        0.0037
     32 H          -0.3633  -16.4524   21.4734 H       1  UNL1        0.1234
@<TRIPOS>BOND
     1    10    11    1
     2    11    12   ar
     3    12    13   ar
     4    13    14   ar
     5    14    15   ar
     6    15    16   ar
     7    16     1    1
     8     1     2    2
     9     2     3    1
    10     3     4    2
    11     4     5    1
    12     5     6    2
    13     6     7    1
    14     7    17    1
    15    17    18   ar
    16    18    19   ar
    17    19    20   ar
    18    20    21   ar
    19    21    23    1
    20    24    23    1
    21    24    25    1
    22    25    26    1
    23    26    27    1
    24    27    28    1
    25    28    29    1
    26    29    30    1
    27    30    31    1
    28    21    22   ar
    29     7     8    2
    30     8     9    1
    31    16    11   ar
    32     9     1    1
    33     8     4    1
    34    22    17   ar
    35    29    24    1
    36    31    29    1
    37    26    32    1
