@<TRIPOS>MOLECULE
*****
 16 16 0 0 0
SMALL
GASTEIGER

@<TRIPOS>ATOM
      1 C          -2.4677  -19.4201   21.8171 C.3     1  UNL1        0.0260
      2 C          -3.8923  -18.9554   21.8859 C.2     1  UNL1       -0.0478
      3 C          -3.9250  -17.8402   22.8885 C.2     1  UNL1       -0.0343
      4 C          -4.7501  -16.8173   23.6116 C.3     1  UNL1        0.0294
      5 C          -6.1055  -16.2113   23.8257 C.3     1  UNL1        0.0227
      6 C          -6.8105  -15.1483   24.6148 C.3     1  UNL1        0.0047
      7 C          -5.1112  -15.5124   24.7050 C.3     1  UNL1        0.0047
      8 C          -7.5608  -16.2148   23.4627 C.2     1  UNL1       -0.0232
      9 C          -8.6542  -16.8266   22.6378 C.2     1  UNL1        0.0371
     10 C          -9.0384  -17.8525   21.6131 C.2     1  UNL1        0.1911
     11 O         -10.5134  -17.6957   21.3905 O.2     1  UNL1       -0.2869
     12 C          -8.5913  -18.9667   20.7138 C.2     1  UNL1        0.0128
     13 C          -9.8145  -19.4377   19.9845 C.3     1  UNL1        0.0340
     14 C          -7.4551  -19.8155   20.2255 C.2     1  UNL1       -0.0269
     15 C          -5.9903  -20.1294   20.3031 C.3     1  UNL1        0.0301
     16 C          -4.6622  -19.8088   20.9221 C.3     1  UNL1        0.0264
@<TRIPOS>BOND
     1     1     2    1
     2     2     3    2
     3     3     4    1
     4     4     5    1
     5     5     6    1
     6     5     7    1
     7     5     8    1
     8     8     9    2
     9     9    10    1
    10    10    11    2
    11    10    12    1
    12    12    13    1
    13    12    14    2
    14    14    15    1
    15    15    16    1
    16    16     2    1
@<TRIPOS>MOLECULE
*****
 16 16 0 0 0
SMALL
GASTEIGER

@<TRIPOS>ATOM
      1 C          -3.8804  -20.5716   20.0026 C.3     1  UNL1        0.0260
      2 C          -4.7491  -19.6250   20.7768 C.2     1  UNL1       -0.0478
      3 C          -6.1441  -19.8111   20.2580 C.2     1  UNL1       -0.0343
      4 C          -7.5857  -19.4048   20.3402 C.3     1  UNL1        0.0294
      5 C          -8.6161  -18.5350   20.9972 C.3     1  UNL1        0.0227
      6 C         -10.0832  -18.2233   20.9756 C.3     1  UNL1        0.0047
      7 C          -9.2837  -19.3882   19.9597 C.3     1  UNL1        0.0047
      8 C          -8.9082  -17.4779   22.0205 C.2     1  UNL1       -0.0232
      9 C          -8.3692  -16.5691   23.0853 C.2     1  UNL1        0.0371
     10 C          -7.1703  -16.0972   23.8533 C.2     1  UNL1        0.1911
     11 O          -7.6660  -15.0560   24.8126 O.2     1  UNL1       -0.2869
     12 C          -5.6921  -16.2120   24.0809 C.2     1  UNL1        0.0128
     13 C          -5.3549  -15.2354   25.1684 C.3     1  UNL1        0.0340
     14 C          -4.4040  -16.8769   23.6957 C.2     1  UNL1       -0.0269
     15 C          -3.7148  -17.8811   22.8200 C.3     1  UNL1        0.0301
     16 C          -3.8435  -18.9056   21.7319 C.3     1  UNL1        0.0264
@<TRIPOS>BOND
     1     1     2    1
     2     2     3    2
     3     3     4    1
     4     4     5    1
     5     5     6    1
     6     5     7    1
     7     5     8    1
     8     8     9    2
     9     9    10    1
    10    10    11    2
    11    10    12    1
    12    12    13    1
    13    12    14    2
    14    14    15    1
    15    15    16    1
    16    16     2    1
@<TRIPOS>MOLECULE
*****
 16 16 0 0 0
SMALL
GASTEIGER

@<TRIPOS>ATOM
      1 C         -10.2338  -18.4317   21.1343 C.3     1  UNL1        0.0260
      2 C          -8.7899  -18.2823   21.5122 C.2     1  UNL1       -0.0478
      3 C          -8.7328  -17.1910   22.5398 C.2     1  UNL1       -0.0343
      4 C          -7.8803  -16.3620   23.4540 C.3     1  UNL1        0.0294
      5 C          -6.5029  -16.0585   23.9648 C.3     1  UNL1        0.0227
      6 C          -5.7703  -15.1640   24.9204 C.3     1  UNL1        0.0047
      7 C          -7.4885  -15.1550   24.6449 C.3     1  UNL1        0.0047
      8 C          -5.0381  -16.3768   23.9099 C.2     1  UNL1       -0.0232
      9 C          -3.9509  -17.2160   23.3067 C.2     1  UNL1        0.0371
     10 C          -3.5864  -18.3095   22.3468 C.2     1  UNL1        0.1911
     11 O          -2.0984  -18.4742   22.4390 O.2     1  UNL1       -0.2869
     12 C          -4.0605  -19.3102   21.3349 C.2     1  UNL1        0.0128
     13 C          -2.8395  -20.0387   20.8569 C.3     1  UNL1        0.0340
     14 C          -5.2225  -19.9003   20.5923 C.2     1  UNL1       -0.0269
     15 C          -6.7036  -19.8925   20.3548 C.3     1  UNL1        0.0301
     16 C          -8.0335  -19.2894   20.6977 C.3     1  UNL1        0.0264
@<TRIPOS>BOND
     1     1     2    1
     2     2     3    2
     3     3     4    1
     4     4     5    1
     5     5     6    1
     6     5     7    1
     7     5     8    1
     8     8     9    2
     9     9    10    1
    10    10    11    2
    11    10    12    1
    12    12    13    1
    13    12    14    2
    14    14    15    1
    15    15    16    1
    16    16     2    1
@<TRIPOS>MOLECULE
*****
 16 16 0 0 0
SMALL
GASTEIGER

@<TRIPOS>ATOM
      1 C          -5.4649  -15.1636   25.2329 C.3     1  UNL1        0.0260
      2 C          -5.7260  -16.1489   24.1325 C.2     1  UNL1       -0.0478
      3 C          -4.3952  -16.7366   23.7670 C.2     1  UNL1       -0.0343
      4 C          -3.6341  -17.6929   22.8974 C.3     1  UNL1        0.0294
      5 C          -3.6842  -18.7143   21.7999 C.3     1  UNL1        0.0227
      6 C          -2.8051  -19.6282   20.9987 C.3     1  UNL1        0.0047
      7 C          -2.2636  -18.5500   22.2528 C.3     1  UNL1        0.0047
      8 C          -4.5297  -19.4763   20.8230 C.2     1  UNL1       -0.0232
      9 C          -5.9022  -19.7372   20.2768 C.2     1  UNL1        0.0371
     10 C          -7.3658  -19.4140   20.3347 C.2     1  UNL1        0.1911
     11 O          -8.0287  -20.2684   19.2952 O.2     1  UNL1       -0.2869
     12 C          -8.4559  -18.6094   20.9783 C.2     1  UNL1        0.0128
     13 C          -9.7330  -19.0104   20.3014 C.3     1  UNL1        0.0340
     14 C          -8.8264  -17.5788   22.0033 C.2     1  UNL1       -0.0269
     15 C          -8.3596  -16.6495   23.0843 C.3     1  UNL1        0.0301
     16 C          -7.2038  -16.1164   23.8780 C.3     1  UNL1        0.0264
@<TRIPOS>BOND
     1     1     2    1
     2     2     3    2
     3     3     4    1
     4     4     5    1
     5     5     6    1
     6     5     7    1
     7     5     8    1
     8     8     9    2
     9     9    10    1
    10    10    11    2
    11    10    12    1
    12    12    13    1
    13    12    14    2
    14    14    15    1
    15    15    16    1
    16    16     2    1
@<TRIPOS>MOLECULE
*****
 16 16 0 0 0
SMALL
GASTEIGER

@<TRIPOS>ATOM
      1 C         -11.0185  -18.8650   24.0850 C.3     1  UNL1        0.0260
      2 C          -9.5774  -18.4517   24.0352 C.2     1  UNL1       -0.0478
      3 C          -9.4046  -17.3942   25.0848 C.2     1  UNL1       -0.0343
      4 C          -8.4746  -16.4395   25.7731 C.3     1  UNL1        0.0294
      5 C          -7.0828  -15.8907   25.8816 C.3     1  UNL1        0.0227
      6 C          -6.2642  -14.8957   26.6495 C.3     1  UNL1        0.0047
      7 C          -7.9591  -15.2084   26.8898 C.3     1  UNL1        0.0047
      8 C          -5.6710  -15.9222   25.3757 C.2     1  UNL1       -0.0232
      9 C          -4.6875  -16.5238   24.4162 C.2     1  UNL1        0.0371
     10 C          -4.4445  -17.5046   23.3076 C.2     1  UNL1        0.1911
     11 O          -2.9934  -17.3843   22.9474 O.2     1  UNL1       -0.2869
     12 C          -5.0192  -18.5532   22.4019 C.2     1  UNL1        0.0128
     13 C          -3.8919  -19.0237   21.5314 C.3     1  UNL1        0.0340
     14 C          -6.2291  -19.3366   21.9867 C.2     1  UNL1       -0.0269
     15 C          -7.6901  -19.6061   22.1938 C.3     1  UNL1        0.0301
     16 C          -8.9383  -19.2762   22.9574 C.3     1  UNL1        0.0264
@<TRIPOS>BOND
     1     1     2    1
     2     2     3    2
     3     3     4    1
     4     4     5    1
     5     5     6    1
     6     5     7    1
     7     5     8    1
     8     8     9    2
     9     9    10    1
    10    10    11    2
    11    10    12    1
    12    12    13    1
    13    12    14    2
    14    14    15    1
    15    15    16    1
    16    16     2    1
@<TRIPOS>MOLECULE
*****
 16 16 0 0 0
SMALL
GASTEIGER

@<TRIPOS>ATOM
      1 C          -5.1855  -14.7692   25.8732 C.3     1  UNL1        0.0260
      2 C          -5.9164  -15.7570   25.0129 C.2     1  UNL1       -0.0478
      3 C          -4.8666  -16.5232   24.2641 C.2     1  UNL1       -0.0343
      4 C          -4.5619  -17.6028   23.2683 C.3     1  UNL1        0.0294
      5 C          -5.0991  -18.6529   22.3416 C.3     1  UNL1        0.0227
      6 C          -4.6563  -19.7027   21.3659 C.3     1  UNL1        0.0047
      7 C          -3.6009  -18.6523   22.2666 C.3     1  UNL1        0.0047
      8 C          -6.3075  -19.3402   21.7783 C.2     1  UNL1       -0.0232
      9 C          -7.8036  -19.4464   21.7573 C.2     1  UNL1        0.0371
     10 C          -9.1123  -18.9379   22.2851 C.2     1  UNL1        0.1911
     11 O         -10.1823  -19.7424   21.6084 O.2     1  UNL1       -0.2869
     12 C          -9.8182  -17.9760   23.1944 C.2     1  UNL1        0.0128
     13 C         -11.2858  -18.2385   23.0299 C.3     1  UNL1        0.0340
     14 C          -9.6970  -16.8662   24.1961 C.2     1  UNL1       -0.0269
     15 C          -8.7873  -15.9608   24.9726 C.3     1  UNL1        0.0301
     16 C          -7.3780  -15.5473   25.2770 C.3     1  UNL1        0.0264
@<TRIPOS>BOND
     1     1     2    1
     2     2     3    2
     3     3     4    1
     4     4     5    1
     5     5     6    1
     6     5     7    1
     7     5     8    1
     8     8     9    2
     9     9    10    1
    10    10    11    2
    11    10    12    1
    12    12    13    1
    13    12    14    2
    14    14    15    1
    15    15    16    1
    16    16     2    1
@<TRIPOS>MOLECULE
*****
 16 16 0 0 0
SMALL
GASTEIGER

@<TRIPOS>ATOM
      1 C          -9.1698  -20.5508   18.4563 C.3     1  UNL1        0.0260
      2 C          -9.0764  -19.6133   19.6236 C.2     1  UNL1       -0.0478
      3 C         -10.4759  -19.1573   19.9123 C.2     1  UNL1       -0.0343
      4 C         -11.3785  -18.3178   20.7671 C.3     1  UNL1        0.0294
      5 C         -11.4975  -17.3614   21.9166 C.3     1  UNL1        0.0227
      6 C         -12.5086  -16.5697   22.6918 C.3     1  UNL1        0.0047
      7 C         -12.8612  -17.6132   21.3445 C.3     1  UNL1        0.0047
      8 C         -10.7953  -16.5918   22.9957 C.2     1  UNL1       -0.0232
      9 C          -9.4947  -16.2533   23.6619 C.2     1  UNL1        0.0371
     10 C          -8.0087  -16.4533   23.7037 C.2     1  UNL1        0.1911
     11 O          -7.5004  -15.6102   24.8354 O.2     1  UNL1       -0.2869
     12 C          -6.8090  -17.1285   23.1078 C.2     1  UNL1        0.0128
     13 C          -5.6249  -16.6658   23.9038 C.3     1  UNL1        0.0340
     14 C          -6.2767  -18.0643   22.0634 C.2     1  UNL1       -0.0269
     15 C          -6.5806  -18.9637   20.9020 C.3     1  UNL1        0.0301
     16 C          -7.6243  -19.5412   19.9925 C.3     1  UNL1        0.0264
@<TRIPOS>BOND
     1     1     2    1
     2     2     3    2
     3     3     4    1
     4     4     5    1
     5     5     6    1
     6     5     7    1
     7     5     8    1
     8     8     9    2
     9     9    10    1
    10    10    11    2
    11    10    12    1
    12    12    13    1
    13    12    14    2
    14    14    15    1
    15    15    16    1
    16    16     2    1
@<TRIPOS>MOLECULE
*****
 16 16 0 0 0
SMALL
GASTEIGER

@<TRIPOS>ATOM
      1 C         -15.1094   -1.5591   20.0965 C.3     1  UNL1        0.0260
      2 C         -14.8226   -2.9958   19.7747 C.2     1  UNL1       -0.0478
      3 C         -13.3429   -3.0909   19.5482 C.2     1  UNL1       -0.0343
      4 C         -12.1714   -3.9653   19.2122 C.3     1  UNL1        0.0294
      5 C         -11.6800   -5.3415   18.8735 C.3     1  UNL1        0.0227
      6 C         -10.4269   -6.0994   18.5489 C.3     1  UNL1        0.0047
      7 C         -10.5154   -4.3962   18.8951 C.3     1  UNL1        0.0047
      8 C         -12.0247   -6.7825   18.6396 C.2     1  UNL1       -0.0232
      9 C         -13.0962   -7.8308   18.5848 C.2     1  UNL1        0.0371
     10 C         -14.5542   -8.1536   18.7264 C.2     1  UNL1        0.1911
     11 O         -14.6898   -9.6230   18.4575 O.2     1  UNL1       -0.2869
     12 C         -15.9359   -7.6483   19.0196 C.2     1  UNL1        0.0128
     13 C         -16.8499   -8.8331   18.9159 C.3     1  UNL1        0.0340
     14 C         -16.8024   -6.4755   19.3711 C.2     1  UNL1       -0.0269
     15 C         -16.8788   -5.0074   19.6695 C.3     1  UNL1        0.0301
     16 C         -16.1407   -3.7103   19.8200 C.3     1  UNL1        0.0264
@<TRIPOS>BOND
     1     1     2    1
     2     2     3    2
     3     3     4    1
     4     4     5    1
     5     5     6    1
     6     5     7    1
     7     5     8    1
     8     8     9    2
     9     9    10    1
    10    10    11    2
    11    10    12    1
    12    12    13    1
    13    12    14    2
    14    14    15    1
    15    15    16    1
    16    16     2    1
@<TRIPOS>MOLECULE
*****
 16 16 0 0 0
SMALL
GASTEIGER

@<TRIPOS>ATOM
      1 C         -15.8658   -0.8448   19.5089 C.3     1  UNL1        0.0260
      2 C         -15.0986   -2.1281   19.3880 C.2     1  UNL1       -0.0478
      3 C         -16.1104   -3.2333   19.4554 C.2     1  UNL1       -0.0343
      4 C         -16.3688   -4.7107   19.4332 C.3     1  UNL1        0.0294
      5 C         -15.7915   -6.0913   19.3287 C.3     1  UNL1        0.0227
      6 C         -16.1884   -7.5378   19.3218 C.3     1  UNL1        0.0047
      7 C         -17.2807   -6.1922   19.4780 C.3     1  UNL1        0.0047
      8 C         -14.5620   -6.9366   19.1748 C.2     1  UNL1       -0.0232
      9 C         -13.0705   -6.9784   19.0206 C.2     1  UNL1        0.0371
     10 C         -11.7907   -6.2033   18.9149 C.2     1  UNL1        0.1911
     11 O         -10.6940   -7.2162   18.7692 O.2     1  UNL1       -0.2869
     12 C         -11.1288   -4.8574   18.8913 C.2     1  UNL1        0.0128
     13 C          -9.6591   -5.1120   18.7323 C.3     1  UNL1        0.0340
     14 C         -11.2949   -3.3681   18.9574 C.2     1  UNL1       -0.0269
     15 C         -12.2365   -2.2082   19.0920 C.3     1  UNL1        0.0301
     16 C         -13.6545   -1.7460   19.2526 C.3     1  UNL1        0.0264
@<TRIPOS>BOND
     1     1     2    1
     2     2     3    2
     3     3     4    1
     4     4     5    1
     5     5     6    1
     6     5     7    1
     7     5     8    1
     8     8     9    2
     9     9    10    1
    10    10    11    2
    11    10    12    1
    12    12    13    1
    13    12    14    2
    14    14    15    1
    15    15    16    1
    16    16     2    1
