@<TRIPOS>MOLECULE
*****
 39 43 0 0 0
SMALL
GASTEIGER

@<TRIPOS>ATOM
      1 C           4.2337   -1.5584   24.1973 C.3     1  UNL1        0.1521
      2 C           3.4582   -1.3004   22.9395 C.3     1  UNL1        0.0313
      3 C           4.0188   -2.1793   21.8608 C.3     1  UNL1        0.0264
      4 C           5.1408   -2.9803   22.4521 C.3     1  UNL1        0.0942
      5 N           5.2736   -2.5965   23.8961 N.am    1  UNL1       -0.2727
      6 C           6.2711   -3.1532   24.8682 C.2     1  UNL1        0.2320
      7 O           6.2843   -2.6705   26.2883 O.2     1  UNL1       -0.2744
      8 O           4.2543    0.5773   25.6768 O.2     1  UNL1       -0.2730
      9 C           4.0087   -0.8945   25.5235 C.2     1  UNL1        0.2442
     10 N           3.5381   -1.7025   26.6964 N.am    1  UNL1       -0.2826
     11 H           3.3769   -2.6685   26.5957 H       1  UNL1        0.1549
     12 C           3.3131   -1.0387   28.0226 C.ar    1  UNL1        0.0505
     13 C           4.4706   -0.7938   28.9447 C.ar    1  UNL1        0.0178
     14 C           4.2456   -0.1300   30.2708 C.ar    1  UNL1        0.0388
     15 C           2.8631    0.2889   30.6749 C.ar    1  UNL1        0.1454
     16 C           1.7056    0.0440   29.7528 C.ar    1  UNL1        0.0388
     17 C           1.9306   -0.6198   28.4267 C.ar    1  UNL1        0.0178
     18 O           2.6381    0.9527   32.0011 O.3     1  UNL1       -0.4535
     19 C           3.4625    0.5536   33.1890 C.ar    1  UNL1        0.1454
     20 C           3.7834    1.5620   34.2521 C.ar    1  UNL1        0.0398
     21 C           4.6078    1.1629   35.4400 C.ar    1  UNL1        0.0328
     22 C           5.1113   -0.2445   35.5648 C.ar    1  UNL1        0.1403
     23 F           5.9357   -0.6435   36.7527 F       1  UNL1       -0.2042
     24 C           4.7904   -1.2529   34.5017 C.ar    1  UNL1        0.0328
     25 C           3.9660   -0.8538   33.3138 C.ar    1  UNL1        0.0398
     26 C           3.5414   -2.2455   20.4404 C.3     1  UNL1        0.0281
     27 C           2.8015   -1.0854   19.8430 C.ar    1  UNL1       -0.0221
     28 C           3.4825   -0.1945   18.8466 C.ar    1  UNL1       -0.0043
     29 C           2.7426    0.9656   18.2492 C.ar    1  UNL1       -0.0003
     30 C           1.3220    1.2348   18.6482 C.ar    1  UNL1       -0.0000
     31 C           0.6411    0.3439   19.6447 C.ar    1  UNL1       -0.0003
     32 C           1.3809   -0.8161   20.2420 C.ar    1  UNL1       -0.0043
     33 C           7.2555   -4.1926   24.4202 C.3     1  UNL1        0.1303
     34 C           7.2808   -5.5373   25.0844 C.ar    1  UNL1        0.0634
     35 C           7.9889   -6.7583   24.5767 C.ar    1  UNL1        0.1136
     36 N           7.7483   -7.8727   25.5515 N.ar    1  UNL1       -0.2229
     37 C           6.8915   -7.3403   26.6617 C.ar    1  UNL1        0.1748
     38 N           6.6026   -5.8970   26.3731 N.ar    1  UNL1       -0.3378
     39 H           6.0626   -5.2921   26.9314 H       1  UNL1        0.1672
@<TRIPOS>BOND
     1     8     9    2
     2     9    10   am
     3    10    12    1
     4    12    13   ar
     5    13    14   ar
     6    14    15   ar
     7    15    18    1
     8    18    19    1
     9    19    20   ar
    10    20    21   ar
    11    21    22   ar
    12    22    23    1
    13    22    24   ar
    14    24    25   ar
    15    15    16   ar
    16    16    17   ar
    17     1     9    1
    18     1     2    1
    19     2     3    1
    20     3    26    1
    21    26    27    1
    22    27    28   ar
    23    28    29   ar
    24    29    30   ar
    25    30    31   ar
    26    31    32   ar
    27     3     4    1
    28     4     5    1
    29     5     6   am
    30     6     7    2
    31     6    33    1
    32    33    34    1
    33    34    35   ar
    34    35    36   ar
    35    36    37   ar
    36    37    38   ar
    37    17    12   ar
    38     5     1    1
    39    38    34   ar
    40    25    19   ar
    41    32    27   ar
    42    10    11    1
    43    38    39    1
@<TRIPOS>MOLECULE
*****
 39 43 0 0 0
SMALL
GASTEIGER

@<TRIPOS>ATOM
      1 C           2.2556    1.6691   32.7757 C.3     1  UNL1        0.1521
      2 C           2.1866    2.5573   33.9825 C.3     1  UNL1        0.0313
      3 C           3.1292    2.0118   35.0141 C.3     1  UNL1        0.0264
      4 C           3.7808    0.7864   34.4447 C.3     1  UNL1        0.0942
      5 N           3.2408    0.5747   33.0613 N.am    1  UNL1       -0.2727
      6 C           3.6196   -0.5364   32.1275 C.2     1  UNL1        0.2320
      7 O           2.9927   -0.6195   30.7674 O.2     1  UNL1       -0.2744
      8 O          -0.0168    1.6999   31.5167 O.2     1  UNL1       -0.2730
      9 C           1.4762    1.8446   31.5062 C.2     1  UNL1        0.2442
     10 N           2.1897    2.1646   30.2262 N.am    1  UNL1       -0.2826
     11 H           3.1696    2.2596   30.2193 H       1  UNL1        0.1549
     12 C           1.4102    2.3401   28.9566 C.ar    1  UNL1        0.0505
     13 C           1.2362    3.7081   28.3664 C.ar    1  UNL1        0.0178
     14 C           0.4567    3.8835   27.0969 C.ar    1  UNL1        0.0388
     15 C          -0.1486    2.6910   26.4176 C.ar    1  UNL1        0.1454
     16 C           0.0254    1.3230   27.0078 C.ar    1  UNL1        0.0388
     17 C           0.8048    1.1476   28.2773 C.ar    1  UNL1        0.0178
     18 O          -0.9281    2.8664   25.1480 O.3     1  UNL1       -0.4535
     19 C          -2.3472    3.3494   25.1999 C.ar    1  UNL1        0.1454
     20 C          -3.1294    3.5169   23.9310 C.ar    1  UNL1        0.0398
     21 C          -4.5486    3.9999   23.9829 C.ar    1  UNL1        0.0328
     22 C          -5.1855    4.3155   25.3038 C.ar    1  UNL1        0.1403
     23 F          -6.6047    4.7985   25.3556 F       1  UNL1       -0.2042
     24 C          -4.4034    4.1481   26.5727 C.ar    1  UNL1        0.0328
     25 C          -2.9843    3.6651   26.5208 C.ar    1  UNL1        0.0398
     26 C           3.3768    2.5900   36.3758 C.3     1  UNL1        0.0281
     27 C           2.4882    2.2127   37.5238 C.ar    1  UNL1       -0.0221
     28 C           1.4418    3.1718   38.0089 C.ar    1  UNL1       -0.0043
     29 C           0.5532    2.7944   39.1569 C.ar    1  UNL1       -0.0003
     30 C           0.7108    1.4581   39.8197 C.ar    1  UNL1       -0.0000
     31 C           1.7572    0.4990   39.3345 C.ar    1  UNL1       -0.0003
     32 C           2.6458    0.8763   38.1865 C.ar    1  UNL1       -0.0043
     33 C           4.6253   -1.5644   32.5539 C.3     1  UNL1        0.1303
     34 C           5.5155   -2.2109   31.5342 C.ar    1  UNL1        0.0634
     35 C           6.3672   -3.4263   31.7514 C.ar    1  UNL1        0.1136
     36 N           7.0883   -3.7220   30.4697 N.ar    1  UNL1       -0.2229
     37 C           6.6822   -2.6893   29.4605 C.ar    1  UNL1        0.1748
     38 N           5.7101   -1.7554   30.1184 N.ar    1  UNL1       -0.3378
     39 H           5.2761   -0.9796   29.6952 H       1  UNL1        0.1672
@<TRIPOS>BOND
     1     8     9    2
     2     9    10   am
     3    10    12    1
     4    12    13   ar
     5    13    14   ar
     6    14    15   ar
     7    15    18    1
     8    18    19    1
     9    19    20   ar
    10    20    21   ar
    11    21    22   ar
    12    22    23    1
    13    22    24   ar
    14    24    25   ar
    15    15    16   ar
    16    16    17   ar
    17     1     9    1
    18     1     2    1
    19     2     3    1
    20     3    26    1
    21    26    27    1
    22    27    28   ar
    23    28    29   ar
    24    29    30   ar
    25    30    31   ar
    26    31    32   ar
    27     3     4    1
    28     4     5    1
    29     5     6   am
    30     6     7    2
    31     6    33    1
    32    33    34    1
    33    34    35   ar
    34    35    36   ar
    35    36    37   ar
    36    37    38   ar
    37    17    12   ar
    38     5     1    1
    39    38    34   ar
    40    25    19   ar
    41    32    27   ar
    42    10    11    1
    43    38    39    1
@<TRIPOS>MOLECULE
*****
 39 43 0 0 0
SMALL
GASTEIGER

@<TRIPOS>ATOM
      1 C           4.3021   -1.7098   24.1224 C.3     1  UNL1        0.1521
      2 C           3.5415   -1.4023   22.8666 C.3     1  UNL1        0.0313
      3 C           4.0198   -2.3363   21.7946 C.3     1  UNL1        0.0264
      4 C           5.0759   -3.2209   22.3880 C.3     1  UNL1        0.0942
      5 N           5.2504   -2.8337   23.8266 N.am    1  UNL1       -0.2727
      6 C           6.2054   -3.4604   24.7988 C.2     1  UNL1        0.2320
      7 O           6.2688   -2.9649   26.2132 O.2     1  UNL1       -0.2744
      8 O           4.5069    0.4337   25.5763 O.2     1  UNL1       -0.2730
      9 C           4.1424   -1.0152   25.4423 C.2     1  UNL1        0.2442
     10 N           3.6181   -1.7694   26.6281 N.am    1  UNL1       -0.2826
     11 H           3.3789   -2.7203   26.5402 H       1  UNL1        0.1549
     12 C           3.4584   -1.0748   27.9481 C.ar    1  UNL1        0.0505
     13 C           2.1280   -0.5022   28.3381 C.ar    1  UNL1        0.0178
     14 C           1.9683    0.1924   29.6579 C.ar    1  UNL1        0.0388
     15 C           3.1390    0.3144   30.5877 C.ar    1  UNL1        0.1454
     16 C           4.4694   -0.2582   30.1977 C.ar    1  UNL1        0.0388
     17 C           4.6291   -0.9528   28.8779 C.ar    1  UNL1        0.0178
     18 O           2.9793    1.0090   31.9076 O.3     1  UNL1       -0.4535
     19 C           3.8404    0.6158   33.0711 C.ar    1  UNL1        0.1454
     20 C           3.9234   -0.8219   33.4908 C.ar    1  UNL1        0.0398
     21 C           4.7846   -1.2151   34.6543 C.ar    1  UNL1        0.0328
     22 C           5.5627   -0.1706   35.3982 C.ar    1  UNL1        0.1403
     23 F           6.4238   -0.5639   36.5617 F       1  UNL1       -0.2042
     24 C           5.4798    1.2671   34.9786 C.ar    1  UNL1        0.0328
     25 C           4.6186    1.6603   33.8151 C.ar    1  UNL1        0.0398
     26 C           3.5282   -2.3782   20.3781 C.3     1  UNL1        0.0281
     27 C           2.8345   -1.1857   19.7893 C.ar    1  UNL1       -0.0221
     28 C           1.4316   -0.8540   20.2037 C.ar    1  UNL1       -0.0043
     29 C           0.7378    0.3386   19.6149 C.ar    1  UNL1       -0.0003
     30 C           1.4471    1.1993   18.6118 C.ar    1  UNL1       -0.0000
     31 C           2.8501    0.8675   18.1975 C.ar    1  UNL1       -0.0003
     32 C           3.5437   -0.3250   18.7863 C.ar    1  UNL1       -0.0043
     33 C           7.0972   -4.5826   24.3566 C.3     1  UNL1        0.1303
     34 C           7.4080   -5.7088   25.2973 C.ar    1  UNL1        0.0634
     35 C           7.9829   -7.0413   24.9179 C.ar    1  UNL1        0.1136
     36 N           8.1287   -7.8563   26.1687 N.ar    1  UNL1       -0.2229
     37 C           7.6440   -7.0275   27.3211 C.ar    1  UNL1        0.1748
     38 N           7.1986   -5.7003   26.7826 N.ar    1  UNL1       -0.3378
     39 H           6.8330   -4.9545   27.3111 H       1  UNL1        0.1672
@<TRIPOS>BOND
     1     8     9    2
     2     9    10   am
     3    10    12    1
     4    12    13   ar
     5    13    14   ar
     6    14    15   ar
     7    15    18    1
     8    18    19    1
     9    19    20   ar
    10    20    21   ar
    11    21    22   ar
    12    22    23    1
    13    22    24   ar
    14    24    25   ar
    15    15    16   ar
    16    16    17   ar
    17     1     9    1
    18     1     2    1
    19     2     3    1
    20     3    26    1
    21    26    27    1
    22    27    28   ar
    23    28    29   ar
    24    29    30   ar
    25    30    31   ar
    26    31    32   ar
    27     3     4    1
    28     4     5    1
    29     5     6   am
    30     6     7    2
    31     6    33    1
    32    33    34    1
    33    34    35   ar
    34    35    36   ar
    35    36    37   ar
    36    37    38   ar
    37    17    12   ar
    38     5     1    1
    39    38    34   ar
    40    25    19   ar
    41    32    27   ar
    42    10    11    1
    43    38    39    1
@<TRIPOS>MOLECULE
*****
 39 43 0 0 0
SMALL
GASTEIGER

@<TRIPOS>ATOM
      1 C           4.2115   -1.0811   24.6122 C.3     1  UNL1        0.1521
      2 C           5.0690   -1.5348   25.7563 C.3     1  UNL1        0.0313
      3 C           5.8450   -2.7369   25.3056 C.3     1  UNL1        0.0264
      4 C           5.4670   -3.0260   23.8830 C.3     1  UNL1        0.0942
      5 N           4.4575   -2.0027   23.4545 N.am    1  UNL1       -0.2727
      6 C           3.8079   -1.9160   22.1053 C.2     1  UNL1        0.2320
      7 O           2.8111   -0.8318   21.8209 O.2     1  UNL1       -0.2744
      8 O           3.8116    1.4812   24.7692 O.2     1  UNL1       -0.2730
      9 C           3.2729    0.0889   24.6239 C.2     1  UNL1        0.2442
     10 N           1.7955   -0.1335   24.4902 N.am    1  UNL1       -0.2826
     11 H           1.4419   -1.0473   24.3949 H       1  UNL1        0.1549
     12 C           0.8568    1.0365   24.5019 C.ar    1  UNL1        0.0505
     13 C           0.7560    1.9292   23.3008 C.ar    1  UNL1        0.0178
     14 C          -0.1826    3.0991   23.3125 C.ar    1  UNL1        0.0388
     15 C          -1.0205    3.3763   24.5254 C.ar    1  UNL1        0.1454
     16 C          -0.9197    2.4836   25.7266 C.ar    1  UNL1        0.0388
     17 C           0.0189    1.3137   25.7148 C.ar    1  UNL1        0.0178
     18 O          -1.9592    4.5463   24.5371 O.3     1  UNL1       -0.4535
     19 C          -3.3945    4.3603   24.1430 C.ar    1  UNL1        0.1454
     20 C          -3.7360    3.6410   22.8719 C.ar    1  UNL1        0.0398
     21 C          -5.1714    3.4550   22.4778 C.ar    1  UNL1        0.0328
     22 C          -6.2651    3.9883   23.3549 C.ar    1  UNL1        0.1403
     23 F          -7.7004    3.8023   22.9609 F       1  UNL1       -0.2042
     24 C          -5.9235    4.7076   24.6261 C.ar    1  UNL1        0.0328
     25 C          -4.4882    4.8936   25.0202 C.ar    1  UNL1        0.0398
     26 C           6.8266   -3.5135   26.1323 C.3     1  UNL1        0.0281
     27 C           7.2219   -4.9007   25.7206 C.ar    1  UNL1       -0.0221
     28 C           6.8317   -6.0746   26.5691 C.ar    1  UNL1       -0.0043
     29 C           7.2270   -7.4618   26.1575 C.ar    1  UNL1       -0.0003
     30 C           8.0124   -7.6751   24.8975 C.ar    1  UNL1       -0.0000
     31 C           8.4026   -6.5012   24.0491 C.ar    1  UNL1       -0.0003
     32 C           8.0073   -5.1140   24.4607 C.ar    1  UNL1       -0.0043
     33 C           4.1550   -2.9137   21.0403 C.3     1  UNL1        0.1303
     34 C           4.4302   -2.4512   19.6402 C.ar    1  UNL1        0.0634
     35 C           5.6048   -2.8471   18.7956 C.ar    1  UNL1        0.1136
     36 N           5.4795   -2.1521   17.4723 N.ar    1  UNL1       -0.2229
     37 C           4.2275   -1.3266   17.4990 C.ar    1  UNL1        0.1748
     38 N           3.5789   -1.5114   18.8389 N.ar    1  UNL1       -0.3378
     39 H           2.7415   -1.0899   19.1395 H       1  UNL1        0.1672
@<TRIPOS>BOND
     1     8     9    2
     2     9    10   am
     3    10    12    1
     4    12    13   ar
     5    13    14   ar
     6    14    15   ar
     7    15    18    1
     8    18    19    1
     9    19    20   ar
    10    20    21   ar
    11    21    22   ar
    12    22    23    1
    13    22    24   ar
    14    24    25   ar
    15    15    16   ar
    16    16    17   ar
    17     1     9    1
    18     1     2    1
    19     2     3    1
    20     3    26    1
    21    26    27    1
    22    27    28   ar
    23    28    29   ar
    24    29    30   ar
    25    30    31   ar
    26    31    32   ar
    27     3     4    1
    28     4     5    1
    29     5     6   am
    30     6     7    2
    31     6    33    1
    32    33    34    1
    33    34    35   ar
    34    35    36   ar
    35    36    37   ar
    36    37    38   ar
    37    17    12   ar
    38     5     1    1
    39    38    34   ar
    40    25    19   ar
    41    32    27   ar
    42    10    11    1
    43    38    39    1
@<TRIPOS>MOLECULE
*****
 39 43 0 0 0
SMALL
GASTEIGER

@<TRIPOS>ATOM
      1 C         -14.8604   -4.6437   19.3039 C.3     1  UNL1        0.1521
      2 C         -15.7910   -5.7415   19.7268 C.3     1  UNL1        0.0313
      3 C         -15.3096   -7.0209   19.1089 C.3     1  UNL1        0.0264
      4 C         -14.0816   -6.7135   18.3041 C.3     1  UNL1        0.0942
      5 N         -13.8040   -5.2444   18.4246 N.am    1  UNL1       -0.2727
      6 C         -12.6693   -4.5056   17.7793 C.2     1  UNL1        0.2320
      7 O         -12.5188   -3.0284   17.9916 O.2     1  UNL1       -0.2744
      8 O         -14.3440   -2.7168   20.9684 O.2     1  UNL1       -0.2730
      9 C         -14.9676   -3.1987   19.6921 C.2     1  UNL1        0.2442
     10 N         -15.6983   -2.2357   18.8041 N.am    1  UNL1       -0.2826
     11 H         -16.1076   -2.5520   17.9664 H       1  UNL1        0.1549
     12 C         -15.8055   -0.7907   19.1923 C.ar    1  UNL1        0.0505
     13 C         -16.8755   -0.3477   20.1456 C.ar    1  UNL1        0.0178
     14 C         -16.9826    1.0972   20.5338 C.ar    1  UNL1        0.0388
     15 C         -16.0198    2.0990   19.9687 C.ar    1  UNL1        0.1454
     16 C         -14.9498    1.6560   19.0154 C.ar    1  UNL1        0.0388
     17 C         -14.8427    0.2111   18.6272 C.ar    1  UNL1        0.0178
     18 O         -16.1269    3.5440   20.3569 O.3     1  UNL1       -0.4535
     19 C         -15.7436    3.9794   21.7402 C.ar    1  UNL1        0.1454
     20 C         -16.6501    3.6830   22.8980 C.ar    1  UNL1        0.0398
     21 C         -16.2667    4.1184   24.2813 C.ar    1  UNL1        0.0328
     22 C         -14.9769    4.8501   24.5068 C.ar    1  UNL1        0.1403
     23 F         -14.5936    5.2855   25.8901 F       1  UNL1       -0.2042
     24 C         -14.0704    5.1465   23.3490 C.ar    1  UNL1        0.0328
     25 C         -14.4538    4.7112   21.9658 C.ar    1  UNL1        0.0398
     26 C         -15.9447   -8.3704   19.2679 C.3     1  UNL1        0.0281
     27 C         -17.4367   -8.5097   19.2015 C.ar    1  UNL1       -0.0221
     28 C         -18.2677   -8.2683   20.4268 C.ar    1  UNL1       -0.0043
     29 C         -19.7597   -8.4076   20.3605 C.ar    1  UNL1       -0.0003
     30 C         -20.4208   -8.7882   19.0689 C.ar    1  UNL1       -0.0000
     31 C         -19.5897   -9.0296   17.8436 C.ar    1  UNL1       -0.0003
     32 C         -18.0978   -8.8903   17.9100 C.ar    1  UNL1       -0.0043
     33 C         -11.6850   -5.2441   16.9214 C.3     1  UNL1        0.1303
     34 C         -10.8548   -6.3457   17.5106 C.ar    1  UNL1        0.0634
     35 C         -10.7974   -7.7633   17.0239 C.ar    1  UNL1        0.1136
     36 N          -9.8433   -8.5168   17.9026 N.ar    1  UNL1       -0.2229
     37 C          -9.3112   -7.5648   18.9323 C.ar    1  UNL1        0.1748
     38 N          -9.9363   -6.2230   18.6902 N.ar    1  UNL1       -0.3378
     39 H          -9.7725   -5.4053   19.2135 H       1  UNL1        0.1672
@<TRIPOS>BOND
     1     8     9    2
     2     9    10   am
     3    10    12    1
     4    12    13   ar
     5    13    14   ar
     6    14    15   ar
     7    15    18    1
     8    18    19    1
     9    19    20   ar
    10    20    21   ar
    11    21    22   ar
    12    22    23    1
    13    22    24   ar
    14    24    25   ar
    15    15    16   ar
    16    16    17   ar
    17     1     9    1
    18     1     2    1
    19     2     3    1
    20     3    26    1
    21    26    27    1
    22    27    28   ar
    23    28    29   ar
    24    29    30   ar
    25    30    31   ar
    26    31    32   ar
    27     3     4    1
    28     4     5    1
    29     5     6   am
    30     6     7    2
    31     6    33    1
    32    33    34    1
    33    34    35   ar
    34    35    36   ar
    35    36    37   ar
    36    37    38   ar
    37    17    12   ar
    38     5     1    1
    39    38    34   ar
    40    25    19   ar
    41    32    27   ar
    42    10    11    1
    43    38    39    1
@<TRIPOS>MOLECULE
*****
 39 43 0 0 0
SMALL
GASTEIGER

@<TRIPOS>ATOM
      1 C           4.2046   -1.4771   24.3340 C.3     1  UNL1        0.1521
      2 C           3.3939   -1.3197   23.0819 C.3     1  UNL1        0.0313
      3 C           4.0230   -2.1637   22.0132 C.3     1  UNL1        0.0264
      4 C           5.2225   -2.8427   22.6050 C.3     1  UNL1        0.0942
      5 N           5.3348   -2.4183   24.0393 N.am    1  UNL1       -0.2727
      6 C           6.3916   -2.8579   25.0088 C.2     1  UNL1        0.2320
      7 O           6.3752   -2.3468   26.4189 O.2     1  UNL1       -0.2744
      8 O           4.1404    0.6679   25.7986 O.2     1  UNL1       -0.2730
      9 C           3.9329   -0.8102   25.6499 C.2     1  UNL1        0.2442
     10 N           3.4536   -1.6214   26.8170 N.am    1  UNL1       -0.2826
     11 H           3.3174   -2.5916   26.7194 H       1  UNL1        0.1549
     12 C           3.1818   -0.9546   28.1329 C.ar    1  UNL1        0.0505
     13 C           1.8163   -0.4094   28.4296 C.ar    1  UNL1        0.0178
     14 C           1.5446    0.2575   29.7454 C.ar    1  UNL1        0.0388
     15 C           2.6384    0.3791   30.7646 C.ar    1  UNL1        0.1454
     16 C           4.0040   -0.1661   30.4679 C.ar    1  UNL1        0.0388
     17 C           4.2757   -0.8329   29.1521 C.ar    1  UNL1        0.0178
     18 O           2.3667    1.0460   32.0805 O.3     1  UNL1       -0.4535
     19 C           2.0162    2.5038   32.1243 C.ar    1  UNL1        0.1454
     20 C           0.5831    2.9341   32.0187 C.ar    1  UNL1        0.0398
     21 C           0.2327    4.3920   32.0625 C.ar    1  UNL1        0.0328
     22 C           1.3152    5.4194   32.2119 C.ar    1  UNL1        0.1403
     23 F           0.9648    6.8772   32.2556 F       1  UNL1       -0.2042
     24 C           2.7483    4.9891   32.3174 C.ar    1  UNL1        0.0328
     25 C           3.0988    3.5313   32.2736 C.ar    1  UNL1        0.0398
     26 C           3.5378   -2.3041   20.6008 C.3     1  UNL1        0.0281
     27 C           2.8754   -1.1452   19.9166 C.ar    1  UNL1       -0.0221
     28 C           1.4332   -0.8370   20.1907 C.ar    1  UNL1       -0.0043
     29 C           0.7709    0.3220   19.5065 C.ar    1  UNL1       -0.0003
     30 C           1.5507    1.1727   18.5483 C.ar    1  UNL1       -0.0000
     31 C           2.9929    0.8644   18.2742 C.ar    1  UNL1       -0.0003
     32 C           3.6552   -0.2945   18.9584 C.ar    1  UNL1       -0.0043
     33 C           7.4649   -3.8086   24.5681 C.3     1  UNL1        0.1303
     34 C           7.4594   -5.2259   25.0594 C.ar    1  UNL1        0.0634
     35 C           6.8185   -5.7186   26.3229 C.ar    1  UNL1        0.1136
     36 N           7.0570   -7.1965   26.4178 N.ar    1  UNL1       -0.2229
     37 C           7.8453   -7.6171   25.2130 C.ar    1  UNL1        0.1748
     38 N           8.0940   -6.3992   24.3734 N.ar    1  UNL1       -0.3378
     39 H           8.5872   -6.3743   23.5217 H       1  UNL1        0.1672
@<TRIPOS>BOND
     1     8     9    2
     2     9    10   am
     3    10    12    1
     4    12    13   ar
     5    13    14   ar
     6    14    15   ar
     7    15    18    1
     8    18    19    1
     9    19    20   ar
    10    20    21   ar
    11    21    22   ar
    12    22    23    1
    13    22    24   ar
    14    24    25   ar
    15    15    16   ar
    16    16    17   ar
    17     1     9    1
    18     1     2    1
    19     2     3    1
    20     3    26    1
    21    26    27    1
    22    27    28   ar
    23    28    29   ar
    24    29    30   ar
    25    30    31   ar
    26    31    32   ar
    27     3     4    1
    28     4     5    1
    29     5     6   am
    30     6     7    2
    31     6    33    1
    32    33    34    1
    33    34    35   ar
    34    35    36   ar
    35    36    37   ar
    36    37    38   ar
    37    17    12   ar
    38     5     1    1
    39    38    34   ar
    40    25    19   ar
    41    32    27   ar
    42    10    11    1
    43    38    39    1
@<TRIPOS>MOLECULE
*****
 39 43 0 0 0
SMALL
GASTEIGER

@<TRIPOS>ATOM
      1 C           5.9051   -1.8477   29.7072 C.3     1  UNL1        0.1521
      2 C           6.9820   -1.8648   30.7512 C.3     1  UNL1        0.0313
      3 C           6.4949   -1.0791   31.9325 C.3     1  UNL1        0.0264
      4 C           5.1169   -0.5763   31.6185 C.3     1  UNL1        0.0942
      5 N           4.7525   -1.0514   30.2432 N.am    1  UNL1       -0.2727
      6 C           3.4620   -0.7781   29.5291 C.2     1  UNL1        0.2320
      7 O           3.2385   -1.3220   28.1491 O.2     1  UNL1       -0.2744
      8 O           5.9264   -4.0065   28.2618 O.2     1  UNL1       -0.2730
      9 C           5.9696   -2.5106   28.3631 C.2     1  UNL1        0.2442
     10 N           6.0774   -1.6775   27.1204 N.am    1  UNL1       -0.2826
     11 H           6.1057   -0.6956   27.1869 H       1  UNL1        0.1549
     12 C           6.1419   -2.3403   25.7763 C.ar    1  UNL1        0.0505
     13 C           4.9790   -2.2404   24.8342 C.ar    1  UNL1        0.0178
     14 C           5.0436   -2.9032   23.4902 C.ar    1  UNL1        0.0388
     15 C           6.2710   -3.6660   23.0883 C.ar    1  UNL1        0.1454
     16 C           7.4339   -3.7660   24.0304 C.ar    1  UNL1        0.0388
     17 C           7.3693   -3.1032   25.3744 C.ar    1  UNL1        0.0178
     18 O           6.3355   -4.3289   21.7442 O.3     1  UNL1       -0.4535
     19 C           5.7852   -3.6304   20.5363 C.ar    1  UNL1        0.1454
     20 C           4.3504   -3.8261   20.1454 C.ar    1  UNL1        0.0398
     21 C           3.8001   -3.1275   18.9374 C.ar    1  UNL1        0.0328
     22 C           4.6847   -2.2332   18.1203 C.ar    1  UNL1        0.1403
     23 F           4.1344   -1.5347   16.9124 F       1  UNL1       -0.2042
     24 C           6.1195   -2.0374   18.5112 C.ar    1  UNL1        0.0328
     25 C           6.6698   -2.7360   19.7191 C.ar    1  UNL1        0.0398
     26 C           7.2526   -0.8383   33.2045 C.3     1  UNL1        0.0281
     27 C           6.5873   -0.1397   34.3531 C.ar    1  UNL1       -0.0221
     28 C           7.0368    1.2329   34.7580 C.ar    1  UNL1       -0.0043
     29 C           6.3714    1.9315   35.9066 C.ar    1  UNL1       -0.0003
     30 C           5.2567    1.2575   36.6502 C.ar    1  UNL1       -0.0000
     31 C           4.8072   -0.1152   36.2453 C.ar    1  UNL1       -0.0003
     32 C           5.4725   -0.8137   35.0967 C.ar    1  UNL1       -0.0043
     33 C           2.3947    0.0390   30.1951 C.3     1  UNL1        0.1303
     34 C           1.1554    0.4143   29.4380 C.ar    1  UNL1        0.0634
     35 C           0.6738    1.8096   29.1711 C.ar    1  UNL1        0.1136
     36 N          -0.5992    1.7178   28.3831 N.ar    1  UNL1       -0.2229
     37 C          -0.9043    0.2657   28.1629 C.ar    1  UNL1        0.1748
     38 N           0.1800   -0.5399   28.8149 N.ar    1  UNL1       -0.3378
     39 H           0.2409   -1.5223   28.8310 H       1  UNL1        0.1672
@<TRIPOS>BOND
     1     8     9    2
     2     9    10   am
     3    10    12    1
     4    12    13   ar
     5    13    14   ar
     6    14    15   ar
     7    15    18    1
     8    18    19    1
     9    19    20   ar
    10    20    21   ar
    11    21    22   ar
    12    22    23    1
    13    22    24   ar
    14    24    25   ar
    15    15    16   ar
    16    16    17   ar
    17     1     9    1
    18     1     2    1
    19     2     3    1
    20     3    26    1
    21    26    27    1
    22    27    28   ar
    23    28    29   ar
    24    29    30   ar
    25    30    31   ar
    26    31    32   ar
    27     3     4    1
    28     4     5    1
    29     5     6   am
    30     6     7    2
    31     6    33    1
    32    33    34    1
    33    34    35   ar
    34    35    36   ar
    35    36    37   ar
    36    37    38   ar
    37    17    12   ar
    38     5     1    1
    39    38    34   ar
    40    25    19   ar
    41    32    27   ar
    42    10    11    1
    43    38    39    1
@<TRIPOS>MOLECULE
*****
 39 43 0 0 0
SMALL
GASTEIGER

@<TRIPOS>ATOM
      1 C          -1.7998    3.5713   22.1543 C.3     1  UNL1        0.1521
      2 C          -2.2406    3.5168   23.5870 C.3     1  UNL1        0.0313
      3 C          -3.4782    4.3536   23.7233 C.3     1  UNL1        0.0264
      4 C          -3.8021    4.9252   22.3748 C.3     1  UNL1        0.0942
      5 N          -2.7648    4.4417   21.4051 N.am    1  UNL1       -0.2727
      6 C          -2.7032    4.7708   19.9430 C.2     1  UNL1        0.2320
      7 O          -1.6008    4.2107   19.0939 O.2     1  UNL1       -0.2744
      8 O           0.7770    3.2766   22.0015 O.2     1  UNL1       -0.2730
      9 C          -0.6038    2.8772   21.5728 C.2     1  UNL1        0.2442
     10 N          -0.7888    1.7838   20.5628 N.am    1  UNL1       -0.2826
     11 H          -1.6951    1.5217   20.2815 H       1  UNL1        0.1549
     12 C           0.4072    1.0897   19.9814 C.ar    1  UNL1        0.0505
     13 C           1.1450    1.7051   18.8295 C.ar    1  UNL1        0.0178
     14 C           2.3409    1.0110   18.2481 C.ar    1  UNL1        0.0388
     15 C           2.7989   -0.2985   18.8186 C.ar    1  UNL1        0.1454
     16 C           2.0611   -0.9138   19.9705 C.ar    1  UNL1        0.0388
     17 C           0.8652   -0.2197   20.5519 C.ar    1  UNL1        0.0178
     18 O           3.9949   -0.9926   18.2372 O.3     1  UNL1       -0.4535
     19 C           4.8379   -1.8839   19.1002 C.ar    1  UNL1        0.1454
     20 C           4.6759   -3.3731   19.0239 C.ar    1  UNL1        0.0398
     21 C           5.5190   -4.2645   19.8870 C.ar    1  UNL1        0.0328
     22 C           6.5239   -3.6665   20.8264 C.ar    1  UNL1        0.1403
     23 F           7.3669   -4.5578   21.6894 F       1  UNL1       -0.2042
     24 C           6.6859   -2.1772   20.9027 C.ar    1  UNL1        0.0328
     25 C           5.8429   -1.2859   20.0396 C.ar    1  UNL1        0.0398
     26 C          -4.2553    4.5791   24.9863 C.3     1  UNL1        0.0281
     27 C          -5.6967    4.9883   24.9171 C.ar    1  UNL1       -0.0221
     28 C          -6.6362    4.2715   23.9932 C.ar    1  UNL1       -0.0043
     29 C          -8.0777    4.6806   23.9239 C.ar    1  UNL1       -0.0003
     30 C          -8.5796    5.8065   24.7785 C.ar    1  UNL1       -0.0000
     31 C          -7.6401    6.5233   25.7025 C.ar    1  UNL1       -0.0003
     32 C          -6.1987    6.1142   25.7717 C.ar    1  UNL1       -0.0043
     33 C          -3.7442    5.6600   19.3299 C.3     1  UNL1        0.1303
     34 C          -5.0805    5.0967   18.9465 C.ar    1  UNL1        0.0634
     35 C          -6.1333    5.7961   18.1389 C.ar    1  UNL1        0.1136
     36 N          -7.3021    4.8667   17.9968 N.ar    1  UNL1       -0.2229
     37 C          -6.9715    3.5929   18.7165 C.ar    1  UNL1        0.1748
     38 N          -5.5985    3.7350   19.3035 N.ar    1  UNL1       -0.3378
     39 H          -5.1211    3.0541   19.8305 H       1  UNL1        0.1672
@<TRIPOS>BOND
     1     8     9    2
     2     9    10   am
     3    10    12    1
     4    12    13   ar
     5    13    14   ar
     6    14    15   ar
     7    15    18    1
     8    18    19    1
     9    19    20   ar
    10    20    21   ar
    11    21    22   ar
    12    22    23    1
    13    22    24   ar
    14    24    25   ar
    15    15    16   ar
    16    16    17   ar
    17     1     9    1
    18     1     2    1
    19     2     3    1
    20     3    26    1
    21    26    27    1
    22    27    28   ar
    23    28    29   ar
    24    29    30   ar
    25    30    31   ar
    26    31    32   ar
    27     3     4    1
    28     4     5    1
    29     5     6   am
    30     6     7    2
    31     6    33    1
    32    33    34    1
    33    34    35   ar
    34    35    36   ar
    35    36    37   ar
    36    37    38   ar
    37    17    12   ar
    38     5     1    1
    39    38    34   ar
    40    25    19   ar
    41    32    27   ar
    42    10    11    1
    43    38    39    1
@<TRIPOS>MOLECULE
*****
 39 43 0 0 0
SMALL
GASTEIGER

@<TRIPOS>ATOM
      1 C           2.3183   -0.5338   21.2314 C.3     1  UNL1        0.1521
      2 C           2.8292   -1.2160   19.9970 C.3     1  UNL1        0.0313
      3 C           3.9546   -2.1221   20.4004 C.3     1  UNL1        0.0264
      4 C           4.1391   -1.9998   21.8841 C.3     1  UNL1        0.0942
      5 N           3.1278   -1.0181   22.3976 N.am    1  UNL1       -0.2727
      6 C           2.9562   -0.5951   23.8264 C.2     1  UNL1        0.2320
      7 O           1.8958    0.4010   24.1914 O.2     1  UNL1       -0.2744
      8 O          -0.1743    0.0700   20.8158 O.2     1  UNL1       -0.2730
      9 C           1.1950    0.4587   21.2892 C.2     1  UNL1        0.2442
     10 N           1.4409    1.8397   21.8205 N.am    1  UNL1       -0.2826
     11 H           2.3396    2.0947   22.1313 H       1  UNL1        0.1549
     12 C           0.3176    2.8321   21.8784 C.ar    1  UNL1        0.0505
     13 C          -0.5215    2.9438   23.1167 C.ar    1  UNL1        0.0178
     14 C          -1.6447    3.9362   23.1745 C.ar    1  UNL1        0.0388
     15 C          -1.9290    4.8169   21.9940 C.ar    1  UNL1        0.1454
     16 C          -1.0899    4.7052   20.7557 C.ar    1  UNL1        0.0388
     17 C           0.0333    3.7128   20.6979 C.ar    1  UNL1        0.0178
     18 O          -3.0523    5.8093   22.0519 O.3     1  UNL1       -0.4535
     19 C          -4.4267    5.3638   22.4550 C.ar    1  UNL1        0.1454
     20 C          -5.3499    4.7646   21.4359 C.ar    1  UNL1        0.0398
     21 C          -6.7243    4.3190   21.8391 C.ar    1  UNL1        0.0328
     22 C          -7.1755    4.4727   23.2613 C.ar    1  UNL1        0.1403
     23 F          -8.5498    4.0272   23.6644 F       1  UNL1       -0.2042
     24 C          -6.2522    5.0719   24.2804 C.ar    1  UNL1        0.0328
     25 C          -4.8779    5.5174   23.8773 C.ar    1  UNL1        0.0398
     26 C           4.7549   -2.9969   19.4816 C.3     1  UNL1        0.0281
     27 C           6.2458   -3.0724   19.6277 C.ar    1  UNL1       -0.0221
     28 C           6.8546   -4.0053   20.6323 C.ar    1  UNL1       -0.0043
     29 C           8.3455   -4.0809   20.7785 C.ar    1  UNL1       -0.0003
     30 C           9.2277   -3.2236   19.9201 C.ar    1  UNL1       -0.0000
     31 C           8.6189   -2.2907   18.9154 C.ar    1  UNL1       -0.0003
     32 C           7.1280   -2.2152   18.7693 C.ar    1  UNL1       -0.0043
     33 C           3.8449   -1.1682   24.8902 C.3     1  UNL1        0.1303
     34 C           3.5378   -0.9213   26.3375 C.ar    1  UNL1        0.0634
     35 C           4.3829   -1.3432   27.5026 C.ar    1  UNL1        0.1136
     36 N           3.6990   -0.8917   28.7590 N.ar    1  UNL1       -0.2229
     37 C           2.4312   -0.1906   28.3702 C.ar    1  UNL1        0.1748
     38 N           2.3315   -0.2089   26.8737 N.ar    1  UNL1       -0.3378
     39 H           1.6024    0.1786   26.3375 H       1  UNL1        0.1672
@<TRIPOS>BOND
     1     8     9    2
     2     9    10   am
     3    10    12    1
     4    12    13   ar
     5    13    14   ar
     6    14    15   ar
     7    15    18    1
     8    18    19    1
     9    19    20   ar
    10    20    21   ar
    11    21    22   ar
    12    22    23    1
    13    22    24   ar
    14    24    25   ar
    15    15    16   ar
    16    16    17   ar
    17     1     9    1
    18     1     2    1
    19     2     3    1
    20     3    26    1
    21    26    27    1
    22    27    28   ar
    23    28    29   ar
    24    29    30   ar
    25    30    31   ar
    26    31    32   ar
    27     3     4    1
    28     4     5    1
    29     5     6   am
    30     6     7    2
    31     6    33    1
    32    33    34    1
    33    34    35   ar
    34    35    36   ar
    35    36    37   ar
    36    37    38   ar
    37    17    12   ar
    38     5     1    1
    39    38    34   ar
    40    25    19   ar
    41    32    27   ar
    42    10    11    1
    43    38    39    1
