@<TRIPOS>MOLECULE
*****
 31 35 0 0 0
SMALL
GASTEIGER

@<TRIPOS>ATOM
      1 C           3.8176   -1.0449   22.6445 C.3     1  UNL1        0.0005
      2 C           2.7897   -0.1837   21.9724 C.3     1  UNL1        0.0089
      3 C           1.9121    0.7150   22.7920 C.3     1  UNL1        0.0219
      4 C           0.8841    1.5761   22.1198 C.3     1  UNL1        0.0922
      5 N           0.7340    1.5385   20.6278 N.pl3   1  UNL1       -0.2929
      6 C           1.6117    0.6397   19.8080 C.3     1  UNL1        0.0980
      7 C           2.6395   -0.2214   20.4803 C.3     1  UNL1        0.0603
      8 C           3.5172   -1.1202   19.6606 C.ar    1  UNL1        0.0662
      9 C           3.3588   -2.6090   19.7510 C.ar    1  UNL1        0.0353
     10 C           4.2364   -3.5078   18.9314 C.ar    1  UNL1        0.1292
     11 N           5.2726   -2.9177   18.0213 N.ar    1  UNL1       -0.2087
     12 C           5.4310   -1.4289   17.9308 C.ar    1  UNL1        0.2541
     13 N           6.3581   -0.5651   17.1282 N.ar    1  UNL1       -0.1862
     14 C           6.0534    0.8675   17.4517 C.ar    1  UNL1        0.2226
     15 N           4.9380    0.8892   18.4544 N.ar    1  UNL1       -0.1400
     16 N           4.5533   -0.5301   18.7505 N.ar    1  UNL1       -0.1990
     17 C           4.0780   -4.9967   19.0219 C.3     1  UNL1        0.3583
     18 F           2.9892   -5.5850   19.8695 F       1  UNL1       -0.1915
     19 F           5.0084   -5.8973   18.2647 F       1  UNL1       -0.1915
     20 C          -0.2939    2.3996   19.9555 C.ar    1  UNL1        0.1317
     21 C          -1.6083    2.6628   20.6287 C.ar    1  UNL1        0.0343
     22 C          -2.6361    3.5240   19.9564 C.ar    1  UNL1        0.0043
     23 C          -2.3496    4.1218   18.6109 C.ar    1  UNL1        0.0208
     24 C          -1.0352    3.8586   17.9377 C.ar    1  UNL1        0.1003
     25 N          -0.0074    2.9975   18.6099 N.ar    1  UNL1       -0.2292
     26 C          -3.9504    3.7872   20.6296 C.ar    1  UNL1        0.0001
     27 C          -4.1804    3.3172   22.0354 C.ar    1  UNL1        0.0000
     28 C          -5.4947    3.5804   22.7086 C.ar    1  UNL1        0.0000
     29 C          -6.5791    4.3136   21.9760 C.ar    1  UNL1        0.0000
     30 C          -6.3491    4.7836   20.5703 C.ar    1  UNL1        0.0000
     31 C          -5.0348    4.5204   19.8970 C.ar    1  UNL1        0.0000
@<TRIPOS>BOND
     1     2     1    1
     2     2     3    1
     3     3     4    1
     4     4     5    1
     5     5    20    1
     6    20    21   ar
     7    21    22   ar
     8    22    26    1
     9    26    27   ar
    10    27    28   ar
    11    28    29   ar
    12    29    30   ar
    13    30    31   ar
    14    22    23   ar
    15    23    24   ar
    16    24    25   ar
    17     5     6    1
    18     6     7    1
    19     7     8    1
    20     8     9   ar
    21     9    10   ar
    22    10    17    1
    23    17    18    1
    24    17    19    1
    25    10    11   ar
    26    11    12   ar
    27    12    13   ar
    28    13    14   ar
    29    14    15   ar
    30    15    16   ar
    31     7     2    1
    32    16     8   ar
    33    25    20   ar
    34    16    12   ar
    35    31    26   ar
@<TRIPOS>MOLECULE
*****
 31 35 0 0 0
SMALL
GASTEIGER

@<TRIPOS>ATOM
      1 C           3.1036    0.1600   17.7712 C.3     1  UNL1        0.0005
      2 C           2.3899    0.6173   19.0088 C.3     1  UNL1        0.0089
      3 C           1.3814    1.7245   18.9273 C.3     1  UNL1        0.0219
      4 C           0.6677    2.1817   20.1650 C.3     1  UNL1        0.0922
      5 N           0.9628    1.5316   21.4842 N.pl3   1  UNL1       -0.2929
      6 C           1.9714    0.4243   21.5658 C.3     1  UNL1        0.0980
      7 C           2.6850   -0.0329   20.3281 C.3     1  UNL1        0.0603
      8 C           3.6936   -1.1401   20.4096 C.ar    1  UNL1        0.0662
      9 C           3.3552   -2.5032   19.8829 C.ar    1  UNL1        0.0353
     10 C           4.3638   -3.6104   19.9644 C.ar    1  UNL1        0.1292
     11 N           5.7109   -3.3546   20.5727 N.ar    1  UNL1       -0.2087
     12 C           6.0493   -1.9916   21.0994 C.ar    1  UNL1        0.2541
     13 N           7.2865   -1.4449   21.7478 N.ar    1  UNL1       -0.1862
     14 C           7.0425    0.0003   22.0671 C.ar    1  UNL1        0.2226
     15 N           5.6545    0.3468   21.6160 N.ar    1  UNL1       -0.1400
     16 N           5.0407   -0.8843   21.0179 N.ar    1  UNL1       -0.1990
     17 C           4.0253   -4.9736   19.4376 C.3     1  UNL1        0.3583
     18 F           4.7304   -5.5054   18.2251 F       1  UNL1       -0.1915
     19 F           2.9819   -5.8048   20.1233 F       1  UNL1       -0.1915
     20 C           0.2492    1.9887   22.7218 C.ar    1  UNL1        0.1317
     21 C           0.5945    1.3874   24.0520 C.ar    1  UNL1        0.0343
     22 C          -0.1191    1.8446   25.2897 C.ar    1  UNL1        0.0043
     23 C          -1.1779    2.9030   25.1972 C.ar    1  UNL1        0.0208
     24 C          -1.5232    3.5043   23.8671 C.ar    1  UNL1        0.1003
     25 N          -0.8096    3.0472   22.6294 N.ar    1  UNL1       -0.2292
     26 C           0.2262    1.2433   26.6198 C.ar    1  UNL1        0.0001
     27 C           1.6407    0.8425   26.9173 C.ar    1  UNL1        0.0000
     28 C           1.9860    0.2412   28.2474 C.ar    1  UNL1        0.0000
     29 C           0.9166    0.0407   29.2800 C.ar    1  UNL1        0.0000
     30 C          -0.4978    0.4414   28.9826 C.ar    1  UNL1        0.0000
     31 C          -0.8431    1.0427   27.6525 C.ar    1  UNL1        0.0000
@<TRIPOS>BOND
     1     2     1    1
     2     2     3    1
     3     3     4    1
     4     4     5    1
     5     5    20    1
     6    20    21   ar
     7    21    22   ar
     8    22    26    1
     9    26    27   ar
    10    27    28   ar
    11    28    29   ar
    12    29    30   ar
    13    30    31   ar
    14    22    23   ar
    15    23    24   ar
    16    24    25   ar
    17     5     6    1
    18     6     7    1
    19     7     8    1
    20     8     9   ar
    21     9    10   ar
    22    10    17    1
    23    17    18    1
    24    17    19    1
    25    10    11   ar
    26    11    12   ar
    27    12    13   ar
    28    13    14   ar
    29    14    15   ar
    30    15    16   ar
    31     7     2    1
    32    16     8   ar
    33    25    20   ar
    34    16    12   ar
    35    31    26   ar
@<TRIPOS>MOLECULE
*****
 31 35 0 0 0
SMALL
GASTEIGER

@<TRIPOS>ATOM
      1 C           1.9155    5.3163   36.2994 C.3     1  UNL1        0.0005
      2 C           1.8921    4.4054   35.1079 C.3     1  UNL1        0.0089
      3 C           1.4307    4.9222   33.7776 C.3     1  UNL1        0.0219
      4 C           1.4074    4.0112   32.5860 C.3     1  UNL1        0.0922
      5 N           1.8456    2.5834   32.7250 N.pl3   1  UNL1       -0.2929
      6 C           2.3070    2.0665   34.0554 C.3     1  UNL1        0.0980
      7 C           2.3303    2.9775   35.2469 C.3     1  UNL1        0.0603
      8 C           2.7917    2.4607   36.5773 C.ar    1  UNL1        0.0662
      9 C           1.8055    1.8479   37.5269 C.ar    1  UNL1        0.0353
     10 C           2.2668    1.3311   38.8572 C.ar    1  UNL1        0.1292
     11 N           3.7145    1.4270   39.2381 N.ar    1  UNL1       -0.2087
     12 C           4.7008    2.0398   38.2885 C.ar    1  UNL1        0.2541
     13 N           6.1798    2.2692   38.3873 N.ar    1  UNL1       -0.1862
     14 C           6.6325    2.9278   37.1180 C.ar    1  UNL1        0.2226
     15 N           5.4333    3.1055   36.2346 N.ar    1  UNL1       -0.1400
     16 N           4.2394    2.5566   36.9581 N.ar    1  UNL1       -0.1990
     17 C           1.2805    0.7183   39.8069 C.3     1  UNL1        0.3583
     18 F           1.0477   -0.7635   39.7937 F       1  UNL1       -0.1915
     19 F           0.5270    1.5873   40.7697 F       1  UNL1       -0.1915
     20 C           1.8223    1.6724   31.5336 C.ar    1  UNL1        0.1317
     21 C           1.1350    2.1046   30.2722 C.ar    1  UNL1        0.0343
     22 C           1.1117    1.1935   29.0808 C.ar    1  UNL1        0.0043
     23 C           1.7757   -0.1496   29.1507 C.ar    1  UNL1        0.0208
     24 C           2.4630   -0.5819   30.4120 C.ar    1  UNL1        0.1003
     25 N           2.4863    0.3291   31.6034 N.ar    1  UNL1       -0.2292
     26 C           0.4245    1.6257   27.8195 C.ar    1  UNL1        0.0001
     27 C          -0.6146    2.7066   27.8642 C.ar    1  UNL1        0.0000
     28 C          -1.3019    3.1388   26.6029 C.ar    1  UNL1        0.0000
     29 C          -0.9500    2.4901   25.2969 C.ar    1  UNL1        0.0000
     30 C           0.0890    1.4093   25.2523 C.ar    1  UNL1        0.0000
     31 C           0.7763    0.9771   26.5136 C.ar    1  UNL1        0.0000
@<TRIPOS>BOND
     1     2     1    1
     2     2     3    1
     3     3     4    1
     4     4     5    1
     5     5    20    1
     6    20    21   ar
     7    21    22   ar
     8    22    26    1
     9    26    27   ar
    10    27    28   ar
    11    28    29   ar
    12    29    30   ar
    13    30    31   ar
    14    22    23   ar
    15    23    24   ar
    16    24    25   ar
    17     5     6    1
    18     6     7    1
    19     7     8    1
    20     8     9   ar
    21     9    10   ar
    22    10    17    1
    23    17    18    1
    24    17    19    1
    25    10    11   ar
    26    11    12   ar
    27    12    13   ar
    28    13    14   ar
    29    14    15   ar
    30    15    16   ar
    31     7     2    1
    32    16     8   ar
    33    25    20   ar
    34    16    12   ar
    35    31    26   ar
@<TRIPOS>MOLECULE
*****
 31 35 0 0 0
SMALL
GASTEIGER

@<TRIPOS>ATOM
      1 C          -3.7244    3.9492   26.2486 C.3     1  UNL1        0.0005
      2 C          -3.0488    3.7211   24.9289 C.3     1  UNL1        0.0089
      3 C          -3.7922    3.9772   23.6515 C.3     1  UNL1        0.0219
      4 C          -3.1165    3.7491   22.3318 C.3     1  UNL1        0.0922
      5 N          -1.6975    3.2649   22.2896 N.pl3   1  UNL1       -0.2929
      6 C          -0.9540    3.0088   23.5670 C.3     1  UNL1        0.0980
      7 C          -1.6297    3.2369   24.8866 C.3     1  UNL1        0.0603
      8 C          -0.8863    2.9808   26.1640 C.ar    1  UNL1        0.0662
      9 C          -0.8913    1.6099   26.7728 C.ar    1  UNL1        0.0353
     10 C          -0.1480    1.3538   28.0502 C.ar    1  UNL1        0.1292
     11 N           0.6005    2.4686   28.7189 N.ar    1  UNL1       -0.2087
     12 C           0.6055    3.8395   28.1101 C.ar    1  UNL1        0.2541
     13 N           1.2490    5.1252   28.5378 N.ar    1  UNL1       -0.1862
     14 C           0.9033    6.1759   27.5247 C.ar    1  UNL1        0.2226
     15 N           0.0461    5.5396   26.4709 N.ar    1  UNL1       -0.1400
     16 N          -0.1379    4.0956   26.8327 N.ar    1  UNL1       -0.1990
     17 C          -0.1530   -0.0172   28.6590 C.3     1  UNL1        0.3583
     18 F          -1.3631   -0.8933   28.5241 F       1  UNL1       -0.1915
     19 F           1.0520   -0.5121   29.4025 F       1  UNL1       -0.1915
     20 C          -1.0218    3.0368   20.9700 C.ar    1  UNL1        0.1317
     21 C          -0.0332    1.9191   20.8168 C.ar    1  UNL1        0.0343
     22 C           0.6425    1.6910   19.4971 C.ar    1  UNL1        0.0043
     23 C           0.3295    2.5806   18.3307 C.ar    1  UNL1        0.0208
     24 C          -0.6591    3.6983   18.4838 C.ar    1  UNL1        0.1003
     25 N          -1.3348    3.9264   19.8035 N.ar    1  UNL1       -0.2292
     26 C           1.6311    0.5733   19.3440 C.ar    1  UNL1        0.0001
     27 C           1.7235   -0.4952   20.3927 C.ar    1  UNL1        0.0000
     28 C           2.7121   -1.6128   20.2396 C.ar    1  UNL1        0.0000
     29 C           3.6083   -1.6619   19.0377 C.ar    1  UNL1        0.0000
     30 C           3.5159   -0.5935   17.9891 C.ar    1  UNL1        0.0000
     31 C           2.5273    0.5242   18.1422 C.ar    1  UNL1        0.0000
@<TRIPOS>BOND
     1     2     1    1
     2     2     3    1
     3     3     4    1
     4     4     5    1
     5     5    20    1
     6    20    21   ar
     7    21    22   ar
     8    22    26    1
     9    26    27   ar
    10    27    28   ar
    11    28    29   ar
    12    29    30   ar
    13    30    31   ar
    14    22    23   ar
    15    23    24   ar
    16    24    25   ar
    17     5     6    1
    18     6     7    1
    19     7     8    1
    20     8     9   ar
    21     9    10   ar
    22    10    17    1
    23    17    18    1
    24    17    19    1
    25    10    11   ar
    26    11    12   ar
    27    12    13   ar
    28    13    14   ar
    29    14    15   ar
    30    15    16   ar
    31     7     2    1
    32    16     8   ar
    33    25    20   ar
    34    16    12   ar
    35    31    26   ar
@<TRIPOS>MOLECULE
*****
 31 35 0 0 0
SMALL
GASTEIGER

@<TRIPOS>ATOM
      1 C           7.1506   -3.0761   27.5830 C.3     1  UNL1        0.0005
      2 C           6.5326   -3.1025   26.2165 C.3     1  UNL1        0.0089
      3 C           6.9644   -4.1348   25.2177 C.3     1  UNL1        0.0219
      4 C           6.3464   -4.1611   23.8512 C.3     1  UNL1        0.0922
      5 N           5.2964   -3.1550   23.4835 N.pl3   1  UNL1       -0.2929
      6 C           4.8645   -2.1225   24.4823 C.3     1  UNL1        0.0980
      7 C           5.4826   -2.0962   25.8487 C.3     1  UNL1        0.0603
      8 C           5.0507   -1.0638   26.8476 C.ar    1  UNL1        0.0662
      9 C           3.8668   -1.3242   27.7311 C.ar    1  UNL1        0.0353
     10 C           3.4349   -0.2919   28.7299 C.ar    1  UNL1        0.1292
     11 N           4.1869    1.0010   28.8452 N.ar    1  UNL1       -0.2087
     12 C           5.3708    1.2613   27.9616 C.ar    1  UNL1        0.2541
     13 N           6.3002    2.4332   27.8484 N.ar    1  UNL1       -0.1862
     14 C           7.3066    2.1250   26.7797 C.ar    1  UNL1        0.2226
     15 N           6.9991    0.7627   26.2323 N.ar    1  UNL1       -0.1400
     16 N           5.8026    0.2289   26.9628 N.ar    1  UNL1       -0.1990
     17 C           2.2510   -0.5522   29.6135 C.3     1  UNL1        0.3583
     18 F           2.4498   -0.8047   31.0787 F       1  UNL1       -0.1915
     19 F           0.8684   -0.5602   29.0319 F       1  UNL1       -0.1915
     20 C           4.6783   -3.1812   22.1170 C.ar    1  UNL1        0.1317
     21 C           3.8869   -2.0040   21.6291 C.ar    1  UNL1        0.0343
     22 C           3.2688   -2.0303   20.2625 C.ar    1  UNL1        0.0043
     23 C           3.4422   -3.2337   19.3841 C.ar    1  UNL1        0.0208
     24 C           4.2336   -4.4108   19.8720 C.ar    1  UNL1        0.1003
     25 N           4.8517   -4.3845   21.2384 N.ar    1  UNL1       -0.2292
     26 C           2.4774   -0.8532   19.7746 C.ar    1  UNL1        0.0001
     27 C           1.1210   -0.5710   20.3497 C.ar    1  UNL1        0.0000
     28 C           0.3296    0.6061   19.8618 C.ar    1  UNL1        0.0000
     29 C           0.8946    1.5010   18.7988 C.ar    1  UNL1        0.0000
     30 C           2.2509    1.2188   18.2238 C.ar    1  UNL1        0.0000
     31 C           3.0423    0.0417   18.7117 C.ar    1  UNL1        0.0000
@<TRIPOS>BOND
     1     2     1    1
     2     2     3    1
     3     3     4    1
     4     4     5    1
     5     5    20    1
     6    20    21   ar
     7    21    22   ar
     8    22    26    1
     9    26    27   ar
    10    27    28   ar
    11    28    29   ar
    12    29    30   ar
    13    30    31   ar
    14    22    23   ar
    15    23    24   ar
    16    24    25   ar
    17     5     6    1
    18     6     7    1
    19     7     8    1
    20     8     9   ar
    21     9    10   ar
    22    10    17    1
    23    17    18    1
    24    17    19    1
    25    10    11   ar
    26    11    12   ar
    27    12    13   ar
    28    13    14   ar
    29    14    15   ar
    30    15    16   ar
    31     7     2    1
    32    16     8   ar
    33    25    20   ar
    34    16    12   ar
    35    31    26   ar
@<TRIPOS>MOLECULE
*****
 31 35 0 0 0
SMALL
GASTEIGER

@<TRIPOS>ATOM
      1 C           5.9713    0.2385   22.2473 C.3     1  UNL1        0.0005
      2 C           4.5878    0.8000   22.1043 C.3     1  UNL1        0.0089
      3 C           4.0529    1.7485   23.1358 C.3     1  UNL1        0.0219
      4 C           2.6693    2.3100   22.9928 C.3     1  UNL1        0.0922
      5 N           1.8206    1.9229   21.8181 N.pl3   1  UNL1       -0.2929
      6 C           2.3554    0.9743   20.7865 C.3     1  UNL1        0.0980
      7 C           3.7390    0.4129   20.9296 C.3     1  UNL1        0.0603
      8 C           4.2739   -0.5357   19.8980 C.ar    1  UNL1        0.0662
      9 C           3.8089   -1.9616   19.8775 C.ar    1  UNL1        0.0353
     10 C           4.3437   -2.9101   18.8460 C.ar    1  UNL1        0.1292
     11 N           5.3437   -2.4328   17.8349 N.ar    1  UNL1       -0.2087
     12 C           5.8087   -1.0069   17.8554 C.ar    1  UNL1        0.2541
     13 N           6.7784   -0.2550   16.9926 N.ar    1  UNL1       -0.1862
     14 C           6.8428    1.1583   17.4910 C.ar    1  UNL1        0.2226
     15 N           5.9129    1.2799   18.6618 N.ar    1  UNL1       -0.1400
     16 N           5.2738   -0.0583   18.8869 N.ar    1  UNL1       -0.1990
     17 C           3.8786   -4.3362   18.8255 C.3     1  UNL1        0.3583
     18 F           2.4843   -4.6766   19.2614 F       1  UNL1       -0.1915
     19 F           4.8078   -5.4216   18.3691 F       1  UNL1       -0.1915
     20 C           0.4371    2.4844   21.6750 C.ar    1  UNL1        0.1317
     21 C          -0.4026    2.7296   22.8936 C.ar    1  UNL1        0.0343
     22 C          -1.7863    3.2911   22.7505 C.ar    1  UNL1        0.0043
     23 C          -2.3301    3.6073   21.3888 C.ar    1  UNL1        0.0208
     24 C          -1.4905    3.3621   20.1703 C.ar    1  UNL1        0.1003
     25 N          -0.1069    2.8007   20.3134 N.ar    1  UNL1       -0.2292
     26 C          -2.6259    3.5362   23.9690 C.ar    1  UNL1        0.0001
     27 C          -4.1216    3.4756   23.8739 C.ar    1  UNL1        0.0000
     28 C          -4.9612    3.7207   25.0924 C.ar    1  UNL1        0.0000
     29 C          -4.3050    4.0266   26.4062 C.ar    1  UNL1        0.0000
     30 C          -2.8094    4.0872   26.5014 C.ar    1  UNL1        0.0000
     31 C          -1.9697    3.8420   25.2828 C.ar    1  UNL1        0.0000
@<TRIPOS>BOND
     1     2     1    1
     2     2     3    1
     3     3     4    1
     4     4     5    1
     5     5    20    1
     6    20    21   ar
     7    21    22   ar
     8    22    26    1
     9    26    27   ar
    10    27    28   ar
    11    28    29   ar
    12    29    30   ar
    13    30    31   ar
    14    22    23   ar
    15    23    24   ar
    16    24    25   ar
    17     5     6    1
    18     6     7    1
    19     7     8    1
    20     8     9   ar
    21     9    10   ar
    22    10    17    1
    23    17    18    1
    24    17    19    1
    25    10    11   ar
    26    11    12   ar
    27    12    13   ar
    28    13    14   ar
    29    14    15   ar
    30    15    16   ar
    31     7     2    1
    32    16     8   ar
    33    25    20   ar
    34    16    12   ar
    35    31    26   ar
@<TRIPOS>MOLECULE
*****
 31 35 0 0 0
SMALL
GASTEIGER

@<TRIPOS>ATOM
      1 C           4.2031    1.8440   18.6856 C.3     1  UNL1        0.0005
      2 C           2.7995    2.1912   19.0845 C.3     1  UNL1        0.0089
      3 C           2.1750    3.4654   18.5986 C.3     1  UNL1        0.0219
      4 C           0.7712    3.8125   18.9976 C.3     1  UNL1        0.0922
      5 N          -0.0079    2.8852   19.8825 N.pl3   1  UNL1       -0.2929
      6 C           0.6165    1.6109   20.3684 C.3     1  UNL1        0.0980
      7 C           2.0202    1.2639   19.9695 C.3     1  UNL1        0.0603
      8 C           2.6448   -0.0104   20.4554 C.ar    1  UNL1        0.0662
      9 C           2.8848   -1.1405   19.4986 C.ar    1  UNL1        0.0353
     10 C           3.5093   -2.4147   19.9845 C.ar    1  UNL1        0.1292
     11 N           3.8939   -2.5590   21.4272 N.ar    1  UNL1       -0.2087
     12 C           3.6539   -1.4290   22.3840 C.ar    1  UNL1        0.2541
     13 N           3.9264   -1.2815   23.8516 N.ar    1  UNL1       -0.1862
     14 C           3.4702    0.0840   24.2728 C.ar    1  UNL1        0.2226
     15 N           2.9158    0.7804   23.0654 N.ar    1  UNL1       -0.1400
     16 N           3.0294   -0.1547   21.8980 N.ar    1  UNL1       -0.1990
     17 C           3.7492   -3.5448   19.0277 C.3     1  UNL1        0.3583
     18 F           4.9646   -3.5380   18.1486 F       1  UNL1       -0.1915
     19 F           2.7738   -4.6817   18.9500 F       1  UNL1       -0.1915
     20 C          -1.4116    3.2323   20.2814 C.ar    1  UNL1        0.1317
     21 C          -1.7760    3.3313   21.7332 C.ar    1  UNL1        0.0343
     22 C          -3.1798    3.6784   22.1322 C.ar    1  UNL1        0.0043
     23 C          -4.2190    3.9263   21.0794 C.ar    1  UNL1        0.0208
     24 C          -3.8547    3.8273   19.6277 C.ar    1  UNL1        0.1003
     25 N          -2.4510    3.4803   19.2287 N.ar    1  UNL1       -0.2292
     26 C          -3.5441    3.7774   23.5839 C.ar    1  UNL1        0.0001
     27 C          -4.9738    3.9885   23.9856 C.ar    1  UNL1        0.0000
     28 C          -5.3381    4.0875   25.4373 C.ar    1  UNL1        0.0000
     29 C          -4.2726    3.9754   26.4873 C.ar    1  UNL1        0.0000
     30 C          -2.8430    3.7643   26.0855 C.ar    1  UNL1        0.0000
     31 C          -2.4787    3.6653   24.6338 C.ar    1  UNL1        0.0000
@<TRIPOS>BOND
     1     2     1    1
     2     2     3    1
     3     3     4    1
     4     4     5    1
     5     5    20    1
     6    20    21   ar
     7    21    22   ar
     8    22    26    1
     9    26    27   ar
    10    27    28   ar
    11    28    29   ar
    12    29    30   ar
    13    30    31   ar
    14    22    23   ar
    15    23    24   ar
    16    24    25   ar
    17     5     6    1
    18     6     7    1
    19     7     8    1
    20     8     9   ar
    21     9    10   ar
    22    10    17    1
    23    17    18    1
    24    17    19    1
    25    10    11   ar
    26    11    12   ar
    27    12    13   ar
    28    13    14   ar
    29    14    15   ar
    30    15    16   ar
    31     7     2    1
    32    16     8   ar
    33    25    20   ar
    34    16    12   ar
    35    31    26   ar
@<TRIPOS>MOLECULE
*****
 31 35 0 0 0
SMALL
GASTEIGER

@<TRIPOS>ATOM
      1 C           1.2091    0.2828   19.2711 C.3     1  UNL1        0.0005
      2 C           1.6193    0.2162   20.7124 C.3     1  UNL1        0.0089
      3 C           0.8549    0.9886   21.7462 C.3     1  UNL1        0.0219
      4 C           1.2651    0.9220   23.1875 C.3     1  UNL1        0.0922
      5 N           2.4398    0.0829   23.5949 N.pl3   1  UNL1       -0.2929
      6 C           3.2043   -0.6896   22.5610 C.3     1  UNL1        0.0980
      7 C           2.7940   -0.6229   21.1197 C.3     1  UNL1        0.0603
      8 C           3.5585   -1.3954   20.0858 C.ar    1  UNL1        0.0662
      9 C           3.4839   -2.8933   20.0617 C.ar    1  UNL1        0.0353
     10 C           4.2482   -3.6657   19.0278 C.ar    1  UNL1        0.1292
     11 N           5.0873   -2.9403   18.0180 N.ar    1  UNL1       -0.2087
     12 C           5.1619   -1.4423   18.0421 C.ar    1  UNL1        0.2541
     13 N           5.8998   -0.4602   17.1814 N.ar    1  UNL1       -0.1862
     14 C           5.5915    0.9193   17.6833 C.ar    1  UNL1        0.2226
     15 N           4.6630    0.7897   18.8543 N.ar    1  UNL1       -0.1400
     16 N           4.3975   -0.6699   19.0760 N.ar    1  UNL1       -0.1990
     17 C           4.1736   -5.1638   19.0037 C.3     1  UNL1        0.3583
     18 F           3.1960   -5.8803   19.8874 F       1  UNL1       -0.1915
     19 F           5.0766   -5.9451   18.0959 F       1  UNL1       -0.1915
     20 C           2.8501    0.0162   25.0361 C.ar    1  UNL1        0.1317
     21 C           2.2106    0.9282   26.0410 C.ar    1  UNL1        0.0343
     22 C           2.6210    0.8614   27.4823 C.ar    1  UNL1        0.0043
     23 C           3.6706   -0.1172   27.9186 C.ar    1  UNL1        0.0208
     24 C           4.3100   -1.0291   26.9139 C.ar    1  UNL1        0.1003
     25 N           3.8997   -0.9624   25.4726 N.ar    1  UNL1       -0.2292
     26 C           1.9816    1.7734   28.4870 C.ar    1  UNL1        0.0001
     27 C           1.3546    1.2036   29.7249 C.ar    1  UNL1        0.0000
     28 C           0.7152    2.1155   30.7296 C.ar    1  UNL1        0.0000
     29 C           0.7028    3.5973   30.4964 C.ar    1  UNL1        0.0000
     30 C           1.3297    4.1670   29.2586 C.ar    1  UNL1        0.0000
     31 C           1.9691    3.2551   28.2539 C.ar    1  UNL1        0.0000
@<TRIPOS>BOND
     1     2     1    1
     2     2     3    1
     3     3     4    1
     4     4     5    1
     5     5    20    1
     6    20    21   ar
     7    21    22   ar
     8    22    26    1
     9    26    27   ar
    10    27    28   ar
    11    28    29   ar
    12    29    30   ar
    13    30    31   ar
    14    22    23   ar
    15    23    24   ar
    16    24    25   ar
    17     5     6    1
    18     6     7    1
    19     7     8    1
    20     8     9   ar
    21     9    10   ar
    22    10    17    1
    23    17    18    1
    24    17    19    1
    25    10    11   ar
    26    11    12   ar
    27    12    13   ar
    28    13    14   ar
    29    14    15   ar
    30    15    16   ar
    31     7     2    1
    32    16     8   ar
    33    25    20   ar
    34    16    12   ar
    35    31    26   ar
@<TRIPOS>MOLECULE
*****
 31 35 0 0 0
SMALL
GASTEIGER

@<TRIPOS>ATOM
      1 C           0.9284    0.1542   19.4903 C.3     1  UNL1        0.0005
      2 C           1.4476    0.1842   20.8972 C.3     1  UNL1        0.0089
      3 C           0.7139    0.9594   21.9510 C.3     1  UNL1        0.0219
      4 C           1.2331    0.9893   23.3581 C.3     1  UNL1        0.0922
      5 N           2.4860    0.2440   23.7111 N.pl3   1  UNL1       -0.2929
      6 C           3.2198   -0.5313   22.6572 C.3     1  UNL1        0.0980
      7 C           2.7005   -0.5613   21.2503 C.3     1  UNL1        0.0603
      8 C           3.4342   -1.3365   20.1964 C.ar    1  UNL1        0.0662
      9 C           3.3893   -2.8358   20.2006 C.ar    1  UNL1        0.0353
     10 C           4.1229   -3.6111   19.1468 C.ar    1  UNL1        0.1292
     11 N           4.9015   -2.8871   18.0886 N.ar    1  UNL1       -0.2087
     12 C           4.9464   -1.3878   18.0844 C.ar    1  UNL1        0.2541
     13 N           5.6252   -0.4065   17.1753 N.ar    1  UNL1       -0.1862
     14 C           5.3111    0.9752   17.6674 C.ar    1  UNL1        0.2226
     15 N           4.4381    0.8479   18.8806 N.ar    1  UNL1       -0.1400
     16 N           4.2127   -0.6125   19.1383 N.ar    1  UNL1       -0.1990
     17 C           4.0781   -5.1105   19.1510 C.3     1  UNL1        0.3583
     18 F           5.0187   -5.8914   18.2819 F       1  UNL1       -0.1915
     19 F           3.0926   -5.8289   20.0244 F       1  UNL1       -0.1915
     20 C           3.0053    0.2739   25.1180 C.ar    1  UNL1        0.1317
     21 C           3.9685   -0.7772   25.5845 C.ar    1  UNL1        0.0343
     22 C           4.4878   -0.7472   26.9915 C.ar    1  UNL1        0.0043
     23 C           4.0438    0.3337   27.9319 C.ar    1  UNL1        0.0208
     24 C           3.0806    1.3847   27.4655 C.ar    1  UNL1        0.1003
     25 N           2.5613    1.3548   26.0585 N.ar    1  UNL1       -0.2292
     26 C           5.4510   -1.7983   27.4580 C.ar    1  UNL1        0.0001
     27 C           5.7198   -1.9719   28.9235 C.ar    1  UNL1        0.0000
     28 C           6.6830   -3.0229   29.3899 C.ar    1  UNL1        0.0000
     29 C           7.3774   -3.9003   28.3908 C.ar    1  UNL1        0.0000
     30 C           7.1085   -3.7267   26.9254 C.ar    1  UNL1        0.0000
     31 C           6.1453   -2.6757   26.4590 C.ar    1  UNL1        0.0000
@<TRIPOS>BOND
     1     2     1    1
     2     2     3    1
     3     3     4    1
     4     4     5    1
     5     5    20    1
     6    20    21   ar
     7    21    22   ar
     8    22    26    1
     9    26    27   ar
    10    27    28   ar
    11    28    29   ar
    12    29    30   ar
    13    30    31   ar
    14    22    23   ar
    15    23    24   ar
    16    24    25   ar
    17     5     6    1
    18     6     7    1
    19     7     8    1
    20     8     9   ar
    21     9    10   ar
    22    10    17    1
    23    17    18    1
    24    17    19    1
    25    10    11   ar
    26    11    12   ar
    27    12    13   ar
    28    13    14   ar
    29    14    15   ar
    30    15    16   ar
    31     7     2    1
    32    16     8   ar
    33    25    20   ar
    34    16    12   ar
    35    31    26   ar
