@<TRIPOS>MOLECULE
*****
 20 21 0 0 0
SMALL
GASTEIGER

@<TRIPOS>ATOM
      1 C          -7.9509  -15.8270   25.1555 C.ar    1  UNL1        0.1724
      2 C          -6.4844  -15.5123   25.1345 C.ar    1  UNL1        0.0400
      3 C          -5.5894  -16.1750   24.1297 C.ar    1  UNL1        0.0033
      4 C          -6.1608  -17.1524   23.1458 C.ar    1  UNL1        0.0033
      5 C          -7.6273  -17.4671   23.1667 C.ar    1  UNL1        0.0400
      6 C          -8.5223  -16.8044   24.1716 C.ar    1  UNL1        0.1724
      7 C          -8.4794  -15.1771   27.6148 C.3     1  UNL1        0.2526
      8 O          -8.8459  -15.1642   26.1603 O.3     1  UNL1       -0.4684
      9 C          -5.2658  -17.8151   22.1409 C.2     1  UNL1        0.0034
     10 C          -5.5734  -19.2031   21.6627 C.2     1  UNL1        0.0421
     11 C          -4.6784  -19.8659   20.6579 C.2     1  UNL1        0.1971
     12 O          -5.0839  -21.1697   20.0371 O.2     1  UNL1       -0.2865
     13 C          -3.3779  -19.2246   20.2738 C.ar    1  UNL1        0.0581
     14 C          -3.2969  -18.3720   19.0424 C.ar    1  UNL1        0.0063
     15 C          -1.9963  -17.7308   18.6583 C.ar    1  UNL1        0.0208
     16 C          -0.7768  -17.9422   19.5058 C.ar    1  UNL1        0.0989
     17 N          -0.8578  -18.7949   20.7372 N.ar    1  UNL1       -0.2422
     18 C          -2.1584  -19.4361   21.1212 C.ar    1  UNL1        0.1020
     19 O          -9.9888  -17.1191   24.1925 O.3     1  UNL1       -0.4684
     20 C         -10.4541  -18.5023   24.5389 C.3     1  UNL1        0.2526
@<TRIPOS>BOND
     1     7     8    1
     2     8     1    1
     3     1     2   ar
     4     2     3   ar
     5     3     4   ar
     6     4     9    1
     7     9    10    2
     8    10    11    1
     9    11    12    2
    10    11    13    1
    11    13    14   ar
    12    14    15   ar
    13    15    16   ar
    14    16    17   ar
    15    17    18   ar
    16     4     5   ar
    17     5     6   ar
    18     6    19    1
    19    19    20    1
    20     6     1   ar
    21    18    13   ar
@<TRIPOS>MOLECULE
*****
 20 21 0 0 0
SMALL
GASTEIGER

@<TRIPOS>ATOM
      1 C         -18.3894   -8.2451   19.8948 C.ar    1  UNL1        0.1724
      2 C         -18.6419   -6.7710   19.7801 C.ar    1  UNL1        0.0400
      3 C         -17.5070   -5.8367   19.4812 C.ar    1  UNL1        0.0033
      4 C         -16.1197   -6.3766   19.2971 C.ar    1  UNL1        0.0033
      5 C         -15.8673   -7.8507   19.4118 C.ar    1  UNL1        0.0400
      6 C         -17.0021   -8.7850   19.7107 C.ar    1  UNL1        0.1724
      7 C         -20.4637   -9.5924   19.0997 C.3     1  UNL1        0.2526
      8 O         -19.5243   -9.1793   20.1937 O.3     1  UNL1       -0.4684
      9 C         -14.9849   -5.4424   18.9982 C.2     1  UNL1        0.0034
     10 C         -14.1285   -4.9216   20.1141 C.2     1  UNL1        0.0421
     11 C         -12.9936   -3.9873   19.8153 C.2     1  UNL1        0.1971
     12 O         -13.0611   -2.5576   20.2640 O.2     1  UNL1       -0.2865
     13 C         -11.7912   -4.4828   19.0676 C.ar    1  UNL1        0.0581
     14 C         -11.4579   -5.9453   19.0682 C.ar    1  UNL1        0.0063
     15 C         -10.2555   -6.4408   18.3206 C.ar    1  UNL1        0.0208
     16 C          -9.3866   -5.4738   17.5725 C.ar    1  UNL1        0.0989
     17 N          -9.7200   -4.0112   17.5719 N.ar    1  UNL1       -0.2422
     18 C         -10.9223   -3.5158   18.3195 C.ar    1  UNL1        0.1020
     19 O         -16.7496  -10.2592   19.8254 O.3     1  UNL1       -0.4684
     20 C         -16.9964  -11.1562   18.6488 C.3     1  UNL1        0.2526
@<TRIPOS>BOND
     1     7     8    1
     2     8     1    1
     3     1     2   ar
     4     2     3   ar
     5     3     4   ar
     6     4     9    1
     7     9    10    2
     8    10    11    1
     9    11    12    2
    10    11    13    1
    11    13    14   ar
    12    14    15   ar
    13    15    16   ar
    14    16    17   ar
    15    17    18   ar
    16     4     5   ar
    17     5     6   ar
    18     6    19    1
    19    19    20    1
    20     6     1   ar
    21    18    13   ar
@<TRIPOS>MOLECULE
*****
 20 21 0 0 0
SMALL
GASTEIGER

@<TRIPOS>ATOM
      1 C         -17.6015   -7.8712   19.7766 C.ar    1  UNL1        0.1724
      2 C         -17.4886   -6.3888   19.5772 C.ar    1  UNL1        0.0400
      3 C         -16.1823   -5.7866   19.1520 C.ar    1  UNL1        0.0033
      4 C         -14.9889   -6.6667   18.9262 C.ar    1  UNL1        0.0033
      5 C         -15.1017   -8.1490   19.1256 C.ar    1  UNL1        0.0400
      6 C         -16.4081   -8.7513   19.5508 C.ar    1  UNL1        0.1724
      7 C         -19.9106   -8.8955   19.1693 C.3     1  UNL1        0.2526
      8 O         -18.9078   -8.4734   20.2019 O.3     1  UNL1       -0.4684
      9 C         -13.6826   -6.0644   18.5009 C.2     1  UNL1        0.0034
     10 C         -12.7255   -5.5443   19.5321 C.2     1  UNL1        0.0421
     11 C         -11.4192   -4.9420   19.1069 C.2     1  UNL1        0.1971
     12 O         -10.1528   -5.7372   19.2252 O.2     1  UNL1       -0.2865
     13 C         -11.3792   -3.5445   18.5633 C.ar    1  UNL1        0.0581
     14 C         -12.2722   -2.4882   19.1436 C.ar    1  UNL1        0.0063
     15 C         -12.2323   -1.0907   18.6000 C.ar    1  UNL1        0.0208
     16 C         -11.2993   -0.7496   17.4761 C.ar    1  UNL1        0.0989
     17 N         -10.4063   -1.8059   16.8958 N.ar    1  UNL1       -0.2422
     18 C         -10.4463   -3.2034   17.4394 C.ar    1  UNL1        0.1020
     19 O         -16.5209  -10.2337   19.7502 O.3     1  UNL1       -0.4684
     20 C         -16.9980  -11.1073   18.6281 C.3     1  UNL1        0.2526
@<TRIPOS>BOND
     1     7     8    1
     2     8     1    1
     3     1     2   ar
     4     2     3   ar
     5     3     4   ar
     6     4     9    1
     7     9    10    2
     8    10    11    1
     9    11    12    2
    10    11    13    1
    11    13    14   ar
    12    14    15   ar
    13    15    16   ar
    14    16    17   ar
    15    17    18   ar
    16     4     5   ar
    17     5     6   ar
    18     6    19    1
    19    19    20    1
    20     6     1   ar
    21    18    13   ar
@<TRIPOS>MOLECULE
*****
 20 21 0 0 0
SMALL
GASTEIGER

@<TRIPOS>ATOM
      1 C         -12.4435   -3.4071   19.3218 C.ar    1  UNL1        0.1724
      2 C         -13.9287   -3.2345   19.4423 C.ar    1  UNL1        0.0400
      3 C         -14.8304   -4.4315   19.3792 C.ar    1  UNL1        0.0033
      4 C         -14.2470   -5.8011   19.1955 C.ar    1  UNL1        0.0033
      5 C         -12.7619   -5.9737   19.0750 C.ar    1  UNL1        0.0400
      6 C         -11.8602   -4.7767   19.1381 C.ar    1  UNL1        0.1724
      7 C         -11.4264   -1.2948   18.2022 C.3     1  UNL1        0.2526
      8 O         -11.5418   -2.2101   19.3849 O.3     1  UNL1       -0.4684
      9 C         -15.1488   -6.9982   19.1323 C.2     1  UNL1        0.0034
     10 C         -14.7070   -8.2323   18.4032 C.2     1  UNL1        0.0421
     11 C         -15.6088   -9.4293   18.3401 C.2     1  UNL1        0.1971
     12 O         -15.0225  -10.8041   18.2129 O.2     1  UNL1       -0.2865
     13 C         -17.0969   -9.2515   18.4040 C.ar    1  UNL1        0.0581
     14 C         -17.8562   -8.8378   17.1784 C.ar    1  UNL1        0.0063
     15 C         -19.3443   -8.6600   17.2423 C.ar    1  UNL1        0.0208
     16 C         -20.0730   -8.8959   18.5320 C.ar    1  UNL1        0.0989
     17 N         -19.3136   -9.3096   19.7577 N.ar    1  UNL1       -0.2422
     18 C         -17.8256   -9.4874   19.6937 C.ar    1  UNL1        0.1020
     19 O         -10.3750   -4.9494   19.0176 O.3     1  UNL1       -0.4684
     20 C          -9.7324   -4.9926   17.6629 C.3     1  UNL1        0.2526
@<TRIPOS>BOND
     1     7     8    1
     2     8     1    1
     3     1     2   ar
     4     2     3   ar
     5     3     4   ar
     6     4     9    1
     7     9    10    2
     8    10    11    1
     9    11    12    2
    10    11    13    1
    11    13    14   ar
    12    14    15   ar
    13    15    16   ar
    14    16    17   ar
    15    17    18   ar
    16     4     5   ar
    17     5     6   ar
    18     6    19    1
    19    19    20    1
    20     6     1   ar
    21    18    13   ar
@<TRIPOS>MOLECULE
*****
 20 21 0 0 0
SMALL
GASTEIGER

@<TRIPOS>ATOM
      1 C         -10.9582   -4.9854   17.4454 C.ar    1  UNL1        0.1724
      2 C         -10.6349   -6.3591   16.9371 C.ar    1  UNL1        0.0400
      3 C         -11.7042   -7.4097   16.8830 C.ar    1  UNL1        0.0033
      4 C         -13.0967   -7.0866   17.3372 C.ar    1  UNL1        0.0033
      5 C         -13.4200   -5.7129   17.8455 C.ar    1  UNL1        0.0400
      6 C         -12.3507   -4.6623   17.8996 C.ar    1  UNL1        0.1724
      7 C          -9.0741   -3.6303   16.2775 C.3     1  UNL1        0.2526
      8 O          -9.8889   -3.9349   17.4996 O.3     1  UNL1       -0.4684
      9 C         -14.1660   -8.1372   17.2831 C.2     1  UNL1        0.0034
     10 C         -14.5351   -8.8962   18.5230 C.2     1  UNL1        0.0421
     11 C         -15.6044   -9.9468   18.4689 C.2     1  UNL1        0.1971
     12 O         -15.2573  -11.3503   18.0691 O.2     1  UNL1       -0.2865
     13 C         -17.0207   -9.5939   18.8146 C.ar    1  UNL1        0.0581
     14 C         -17.3011   -8.5413   19.8458 C.ar    1  UNL1        0.0063
     15 C         -18.7174   -8.1884   20.1915 C.ar    1  UNL1        0.0208
     16 C         -19.8534   -8.8880   19.5059 C.ar    1  UNL1        0.0989
     17 N         -19.5730   -9.9407   18.4746 N.ar    1  UNL1       -0.2422
     18 C         -18.1567  -10.2935   18.1290 C.ar    1  UNL1        0.1020
     19 O         -12.6741   -3.2886   18.4080 O.3     1  UNL1       -0.4684
     20 C         -13.0619   -3.0921   19.8435 C.3     1  UNL1        0.2526
@<TRIPOS>BOND
     1     7     8    1
     2     8     1    1
     3     1     2   ar
     4     2     3   ar
     5     3     4   ar
     6     4     9    1
     7     9    10    2
     8    10    11    1
     9    11    12    2
    10    11    13    1
    11    13    14   ar
    12    14    15   ar
    13    15    16   ar
    14    16    17   ar
    15    17    18   ar
    16     4     5   ar
    17     5     6   ar
    18     6    19    1
    19    19    20    1
    20     6     1   ar
    21    18    13   ar
@<TRIPOS>MOLECULE
*****
 20 21 0 0 0
SMALL
GASTEIGER

@<TRIPOS>ATOM
      1 C         -12.0971   -2.6022   18.8881 C.ar    1  UNL1        0.1724
      2 C         -13.3818   -2.0226   19.4016 C.ar    1  UNL1        0.0400
      3 C         -14.5296   -2.9266   19.7409 C.ar    1  UNL1        0.0033
      4 C         -14.3929   -4.4101   19.5668 C.ar    1  UNL1        0.0033
      5 C         -13.1082   -4.9897   19.0533 C.ar    1  UNL1        0.0400
      6 C         -11.9603   -4.0857   18.7139 C.ar    1  UNL1        0.1724
      7 C         -10.7283   -1.2671   17.1291 C.3     1  UNL1        0.2526
      8 O         -10.9492   -1.6982   18.5488 O.3     1  UNL1       -0.4684
      9 C         -15.5408   -5.3141   19.9061 C.2     1  UNL1        0.0034
     10 C         -16.5704   -5.6417   18.8658 C.2     1  UNL1        0.0421
     11 C         -17.7183   -6.5457   19.2051 C.2     1  UNL1        0.1971
     12 O         -19.0082   -5.9650   19.7040 O.2     1  UNL1       -0.2865
     13 C         -17.5763   -8.0304   19.0456 C.ar    1  UNL1        0.0581
     14 C         -18.3277   -8.7435   17.9608 C.ar    1  UNL1        0.0063
     15 C         -18.1856  -10.2283   17.8013 C.ar    1  UNL1        0.0208
     16 C         -17.2921  -10.9999   18.7266 C.ar    1  UNL1        0.0989
     17 N         -16.5406  -10.2867   19.8114 N.ar    1  UNL1       -0.2422
     18 C         -16.6827   -8.8020   19.9709 C.ar    1  UNL1        0.1020
     19 O         -10.6756   -4.6653   18.2004 O.3     1  UNL1       -0.4684
     20 C          -9.6164   -5.1121   19.1639 C.3     1  UNL1        0.2526
@<TRIPOS>BOND
     1     7     8    1
     2     8     1    1
     3     1     2   ar
     4     2     3   ar
     5     3     4   ar
     6     4     9    1
     7     9    10    2
     8    10    11    1
     9    11    12    2
    10    11    13    1
    11    13    14   ar
    12    14    15   ar
    13    15    16   ar
    14    16    17   ar
    15    17    18   ar
    16     4     5   ar
    17     5     6   ar
    18     6    19    1
    19    19    20    1
    20     6     1   ar
    21    18    13   ar
@<TRIPOS>MOLECULE
*****
 20 21 0 0 0
SMALL
GASTEIGER

@<TRIPOS>ATOM
      1 C           4.0739   -1.5166   18.1716 C.ar    1  UNL1        0.1724
      2 C           3.5246   -0.2457   17.5945 C.ar    1  UNL1        0.0400
      3 C           2.3583    0.4329   18.2495 C.ar    1  UNL1        0.0033
      4 C           1.7412   -0.1593   19.4818 C.ar    1  UNL1        0.0033
      5 C           2.2905   -1.4301   20.0590 C.ar    1  UNL1        0.0400
      6 C           3.4568   -2.1088   19.4039 C.ar    1  UNL1        0.1724
      7 C           6.6211   -2.0188   18.0750 C.3     1  UNL1        0.2526
      8 O           5.2402   -2.1953   17.5166 O.3     1  UNL1       -0.4684
      9 C           0.5749    0.5194   20.1368 C.2     1  UNL1        0.0034
     10 C           0.5390    2.0154   20.2404 C.2     1  UNL1        0.0421
     11 C          -0.6273    2.6940   20.8954 C.2     1  UNL1        0.1971
     12 O          -0.6818    2.8160   22.3894 O.2     1  UNL1       -0.2865
     13 C          -1.7392    3.2508   20.0564 C.ar    1  UNL1        0.0581
     14 C          -1.4384    3.8504   18.7148 C.ar    1  UNL1        0.0063
     15 C          -2.5502    4.4071   17.8758 C.ar    1  UNL1        0.0208
     16 C          -3.9628    4.3643   18.3784 C.ar    1  UNL1        0.0989
     17 N          -4.2636    3.7647   19.7201 N.ar    1  UNL1       -0.2422
     18 C          -3.1518    3.2080   20.5591 C.ar    1  UNL1        0.1020
     19 O           4.0061   -3.3797   19.9812 O.3     1  UNL1       -0.4684
     20 C           3.5829   -4.7038   19.4176 C.3     1  UNL1        0.2526
@<TRIPOS>BOND
     1     7     8    1
     2     8     1    1
     3     1     2   ar
     4     2     3   ar
     5     3     4   ar
     6     4     9    1
     7     9    10    2
     8    10    11    1
     9    11    12    2
    10    11    13    1
    11    13    14   ar
    12    14    15   ar
    13    15    16   ar
    14    16    17   ar
    15    17    18   ar
    16     4     5   ar
    17     5     6   ar
    18     6    19    1
    19    19    20    1
    20     6     1   ar
    21    18    13   ar
@<TRIPOS>MOLECULE
*****
 20 21 0 0 0
SMALL
GASTEIGER

@<TRIPOS>ATOM
      1 C         -10.8765   -5.6445   18.7828 C.ar    1  UNL1        0.1724
      2 C          -9.9237   -4.5557   18.3872 C.ar    1  UNL1        0.0400
      3 C         -10.3673   -3.1231   18.4179 C.ar    1  UNL1        0.0033
      4 C         -11.7637   -2.7794   18.8443 C.ar    1  UNL1        0.0033
      5 C         -12.7165   -3.8682   19.2399 C.ar    1  UNL1        0.0400
      6 C         -12.2729   -5.3008   19.2092 C.ar    1  UNL1        0.1724
      7 C         -10.6474   -7.9024   17.5180 C.3     1  UNL1        0.2526
      8 O         -10.4329   -7.0771   18.7521 O.3     1  UNL1       -0.4684
      9 C         -12.2072   -1.3468   18.8750 C.2     1  UNL1        0.0034
     10 C         -13.6433   -1.0006   18.6147 C.2     1  UNL1        0.0421
     11 C         -14.0869    0.4320   18.6455 C.2     1  UNL1        0.1971
     12 O         -13.2777    1.4829   17.9449 O.2     1  UNL1       -0.2865
     13 C         -15.3397    0.8137   19.3769 C.ar    1  UNL1        0.0581
     14 C         -15.7296    2.2574   19.4938 C.ar    1  UNL1        0.0063
     15 C         -16.9824    2.6390   20.2252 C.ar    1  UNL1        0.0208
     16 C         -17.8453    1.5770   20.8396 C.ar    1  UNL1        0.0989
     17 N         -17.4553    0.1332   20.7226 N.ar    1  UNL1       -0.2422
     18 C         -16.2026   -0.2484   19.9912 C.ar    1  UNL1        0.1020
     19 O         -13.2258   -6.3896   19.6049 O.3     1  UNL1       -0.4684
     20 C         -14.6880   -6.2543   19.2990 C.3     1  UNL1        0.2526
@<TRIPOS>BOND
     1     7     8    1
     2     8     1    1
     3     1     2   ar
     4     2     3   ar
     5     3     4   ar
     6     4     9    1
     7     9    10    2
     8    10    11    1
     9    11    12    2
    10    11    13    1
    11    13    14   ar
    12    14    15   ar
    13    15    16   ar
    14    16    17   ar
    15    17    18   ar
    16     4     5   ar
    17     5     6   ar
    18     6    19    1
    19    19    20    1
    20     6     1   ar
    21    18    13   ar
@<TRIPOS>MOLECULE
*****
 20 21 0 0 0
SMALL
GASTEIGER

@<TRIPOS>ATOM
      1 C           3.8588   -1.8792   19.2892 C.ar    1  UNL1        0.1724
      2 C           2.6649   -1.6786   20.1749 C.ar    1  UNL1        0.0400
      3 C           1.6757   -0.5942   19.8661 C.ar    1  UNL1        0.0033
      4 C           1.8803    0.2898   18.6717 C.ar    1  UNL1        0.0033
      5 C           3.0742    0.0893   17.7860 C.ar    1  UNL1        0.0400
      6 C           4.0634   -0.9952   18.0948 C.ar    1  UNL1        0.1724
      7 C           4.6188   -4.3554   19.0876 C.3     1  UNL1        0.2526
      8 O           4.8480   -2.9637   19.5980 O.3     1  UNL1       -0.4684
      9 C           0.8911    1.3743   18.3629 C.2     1  UNL1        0.0034
     10 C           1.0200    2.7164   19.0202 C.2     1  UNL1        0.0421
     11 C           0.0308    3.8009   18.7114 C.2     1  UNL1        0.1971
     12 O           0.4588    5.0050   17.9261 O.2     1  UNL1       -0.2865
     13 C          -1.3865    3.6812   19.1880 C.ar    1  UNL1        0.0581
     14 C          -2.5105    4.1861   18.3328 C.ar    1  UNL1        0.0063
     15 C          -3.9278    4.0664   18.8094 C.ar    1  UNL1        0.0208
     16 C          -4.2209    3.4417   20.1413 C.ar    1  UNL1        0.0989
     17 N          -3.0968    2.9368   20.9965 N.ar    1  UNL1       -0.2422
     18 C          -1.6796    3.0565   20.5199 C.ar    1  UNL1        0.1020
     19 O           5.2573   -1.1957   17.2090 O.3     1  UNL1       -0.4684
     20 C           6.5486   -0.4995   17.5218 C.3     1  UNL1        0.2526
@<TRIPOS>BOND
     1     7     8    1
     2     8     1    1
     3     1     2   ar
     4     2     3   ar
     5     3     4   ar
     6     4     9    1
     7     9    10    2
     8    10    11    1
     9    11    12    2
    10    11    13    1
    11    13    14   ar
    12    14    15   ar
    13    15    16   ar
    14    16    17   ar
    15    17    18   ar
    16     4     5   ar
    17     5     6   ar
    18     6    19    1
    19    19    20    1
    20     6     1   ar
    21    18    13   ar
