@<TRIPOS>MOLECULE
*****
 38 41 0 0 0
SMALL
GASTEIGER

@<TRIPOS>ATOM
      1 C           6.8382   -2.3642   31.8691 C.ar    1  UNL1        0.0537
      2 C           5.4836   -2.4981   32.4992 C.ar    1  UNL1        0.0042
      3 C           5.1168   -1.6453   33.6773 C.ar    1  UNL1       -0.0041
      4 C           6.1046   -0.6585   34.2254 C.ar    1  UNL1       -0.0224
      5 C           7.4593   -0.5246   33.5953 C.ar    1  UNL1       -0.0041
      6 C           7.8261   -1.3774   32.4172 C.ar    1  UNL1        0.0042
      7 C           5.7379    0.1944   35.4036 C.3     1  UNL1        0.0251
      8 C           4.6060   -0.2119   36.3002 C.3     1  UNL1        0.0217
      9 C           4.2392    0.6409   37.4784 C.3     1  UNL1        0.0724
     10 N           5.0043    1.9000   37.7600 N.3     1  UNL1       -0.2722
     11 C           6.1361    2.3063   36.8634 C.3     1  UNL1        0.0724
     12 C           6.5029    1.4535   35.6852 C.3     1  UNL1        0.0217
     13 C           4.6375    2.7529   38.9382 C.3     1  UNL1        0.0817
     14 C           3.2189    3.2027   39.1258 C.3     1  UNL1        0.1026
     15 C           2.3432    3.4401   37.9314 C.2     1  UNL1        0.2276
     16 O           0.8782    3.1249   38.0009 O.2     1  UNL1       -0.2747
     17 N           2.9323    3.9928   36.6675 N.am    1  UNL1       -0.2821
     18 H           3.8937    4.1997   36.6218 H       1  UNL1        0.1549
     19 C           2.0565    4.2302   35.4730 C.ar    1  UNL1        0.0781
     20 C           1.2139    5.4688   35.3952 C.ar    1  UNL1        0.0170
     21 C           0.3381    5.7062   34.2008 C.ar    1  UNL1        0.0014
     22 C           0.3049    4.7052   33.0842 C.ar    1  UNL1        0.0024
     23 C           1.1475    3.4666   33.1621 C.ar    1  UNL1        0.0309
     24 C           2.0233    3.2292   34.3564 C.ar    1  UNL1        0.1535
     25 F           2.8659    1.9906   34.4343 F       1  UNL1       -0.2029
     26 N           6.5715   -4.5652   30.5147 N.am    1  UNL1       -0.2794
     27 C           7.2050   -3.2171   30.6909 C.2     1  UNL1        0.2495
     28 O           8.2053   -2.7217   29.6888 O.2     1  UNL1       -0.2698
     29 H           5.9150   -4.8903   31.1724 H       1  UNL1        0.1552
     30 N           8.8106   -6.5494   30.7382 N.pl3   1  UNL1       -0.3560
     31 C           8.0578   -6.4102   29.4483 C.ar    1  UNL1        0.0552
     32 C           8.4245   -7.2630   28.2701 C.ar    1  UNL1        0.0153
     33 C           7.6717   -7.1238   26.9802 C.ar    1  UNL1        0.0013
     34 C           6.5522   -6.1318   26.8684 C.ar    1  UNL1        0.0014
     35 C           6.1855   -5.2789   28.0466 C.ar    1  UNL1        0.0159
     36 C           6.9383   -5.4181   29.3365 C.ar    1  UNL1        0.0636
     37 H           9.5454   -7.2005   30.8115 H       1  UNL1        0.1424
     38 H           8.5699   -5.9896   31.5115 H       1  UNL1        0.1424
@<TRIPOS>BOND
     1    30    31    1
     2    31    32   ar
     3    32    33   ar
     4    33    34   ar
     5    34    35   ar
     6    35    36   ar
     7    36    26    1
     8    26    27   am
     9    27    28    2
    10    27     1    1
    11     1     2   ar
    12     2     3   ar
    13     3     4   ar
    14     4     7    1
    15     7     8    1
    16     8     9    1
    17     9    10    1
    18    10    13    1
    19    13    14    1
    20    14    15    1
    21    15    16    2
    22    15    17   am
    23    17    19    1
    24    19    20   ar
    25    20    21   ar
    26    21    22   ar
    27    22    23   ar
    28    23    24   ar
    29    24    25    1
    30    10    11    1
    31    11    12    1
    32     4     5   ar
    33     5     6   ar
    34    36    31   ar
    35     6     1   ar
    36    12     7    1
    37    24    19   ar
    38    30    37    1
    39    30    38    1
    40    26    29    1
    41    17    18    1
@<TRIPOS>MOLECULE
*****
 38 41 0 0 0
SMALL
GASTEIGER

@<TRIPOS>ATOM
      1 C           5.7191   -3.5481   23.1259 C.ar    1  UNL1        0.0537
      2 C           4.9804   -2.4500   23.8320 C.ar    1  UNL1        0.0042
      3 C           4.1372   -1.4886   23.0481 C.ar    1  UNL1       -0.0041
      4 C           4.0327   -1.6253   21.5580 C.ar    1  UNL1       -0.0224
      5 C           4.7714   -2.7233   20.8519 C.ar    1  UNL1       -0.0041
      6 C           5.6146   -3.6847   21.6358 C.ar    1  UNL1        0.0042
      7 C           3.1895   -0.6638   20.7739 C.3     1  UNL1        0.0251
      8 C           1.7811   -1.0277   20.4076 C.3     1  UNL1        0.0217
      9 C           0.9379   -0.0663   19.6235 C.3     1  UNL1        0.0724
     10 N           1.5030    1.2589   19.2059 N.3     1  UNL1       -0.2722
     11 C           2.9113    1.6227   19.5723 C.3     1  UNL1        0.0724
     12 C           3.7546    0.6614   20.3563 C.3     1  UNL1        0.0217
     13 C           0.6598    2.2203   18.4219 C.3     1  UNL1        0.0817
     14 C          -0.2389    3.1854   19.1368 C.3     1  UNL1        0.1026
     15 C          -0.6701    2.9056   20.5460 C.2     1  UNL1        0.2276
     16 O          -2.0870    2.5036   20.8309 O.2     1  UNL1       -0.2747
     17 N           0.3154    3.0276   21.6702 N.am    1  UNL1       -0.2821
     18 H           1.2453    3.2914   21.4832 H       1  UNL1        0.1549
     19 C          -0.1160    2.7478   23.0794 C.ar    1  UNL1        0.0781
     20 C          -1.1471    3.6179   23.7349 C.ar    1  UNL1        0.0170
     21 C          -1.5784    3.3382   25.1440 C.ar    1  UNL1        0.0014
     22 C          -0.9786    2.1883   25.8976 C.ar    1  UNL1        0.0024
     23 C           0.0525    1.3181   25.2421 C.ar    1  UNL1        0.0309
     24 C           0.4838    1.5979   23.8330 C.ar    1  UNL1        0.1535
     25 F           1.5149    0.7278   23.1775 F       1  UNL1       -0.2029
     26 N           6.4481   -4.5609   25.4047 N.am    1  UNL1       -0.2794
     27 C           6.5624   -4.5095   23.9100 C.2     1  UNL1        0.2495
     28 O           7.5198   -5.4195   23.1992 O.2     1  UNL1       -0.2698
     29 H           5.8196   -3.9637   25.8712 H       1  UNL1        0.1552
     30 N           8.7805   -3.5543   27.0004 N.pl3   1  UNL1       -0.3560
     31 C           8.4575   -5.0191   26.9866 C.ar    1  UNL1        0.0552
     32 C           9.3007   -5.9805   27.7706 C.ar    1  UNL1        0.0153
     33 C           8.9777   -7.4452   27.7567 C.ar    1  UNL1        0.0013
     34 C           7.8115   -7.9485   26.9589 C.ar    1  UNL1        0.0014
     35 C           6.9683   -6.9871   26.1749 C.ar    1  UNL1        0.0159
     36 C           7.2913   -5.5224   26.1887 C.ar    1  UNL1        0.0636
     37 H           9.5460   -3.2240   27.5241 H       1  UNL1        0.1424
     38 H           8.2271   -2.9233   26.4859 H       1  UNL1        0.1424
@<TRIPOS>BOND
     1    30    31    1
     2    31    32   ar
     3    32    33   ar
     4    33    34   ar
     5    34    35   ar
     6    35    36   ar
     7    36    26    1
     8    26    27   am
     9    27    28    2
    10    27     1    1
    11     1     2   ar
    12     2     3   ar
    13     3     4   ar
    14     4     7    1
    15     7     8    1
    16     8     9    1
    17     9    10    1
    18    10    13    1
    19    13    14    1
    20    14    15    1
    21    15    16    2
    22    15    17   am
    23    17    19    1
    24    19    20   ar
    25    20    21   ar
    26    21    22   ar
    27    22    23   ar
    28    23    24   ar
    29    24    25    1
    30    10    11    1
    31    11    12    1
    32     4     5   ar
    33     5     6   ar
    34    36    31   ar
    35     6     1   ar
    36    12     7    1
    37    24    19   ar
    38    30    37    1
    39    30    38    1
    40    26    29    1
    41    17    18    1
@<TRIPOS>MOLECULE
*****
 38 41 0 0 0
SMALL
GASTEIGER

@<TRIPOS>ATOM
      1 C          -0.6757    2.3914   20.6908 C.ar    1  UNL1        0.0537
      2 C          -0.0130    1.7968   21.8979 C.ar    1  UNL1        0.0042
      3 C           1.1894    0.9149   21.7353 C.ar    1  UNL1       -0.0041
      4 C           1.7291    0.6276   20.3656 C.ar    1  UNL1       -0.0224
      5 C           1.0664    1.2222   19.1585 C.ar    1  UNL1       -0.0041
      6 C          -0.1360    2.1041   19.3210 C.ar    1  UNL1        0.0042
      7 C           2.9316   -0.2543   20.2030 C.3     1  UNL1        0.0251
      8 C           2.7568   -1.7086   19.8796 C.3     1  UNL1        0.0217
      9 C           3.9592   -2.5905   19.7169 C.3     1  UNL1        0.0724
     10 N           5.3363   -2.0181   19.8778 N.3     1  UNL1       -0.2722
     11 C           5.5110   -0.5639   20.2012 C.3     1  UNL1        0.0724
     12 C           4.3087    0.3180   20.3638 C.3     1  UNL1        0.0217
     13 C           6.5387   -2.9001   19.7151 C.3     1  UNL1        0.0817
     14 C           7.4993   -3.0760   20.8537 C.3     1  UNL1        0.1026
     15 C           7.1533   -3.9888   21.9926 C.2     1  UNL1        0.2276
     16 O           5.7264   -4.3870   22.2278 O.2     1  UNL1       -0.2747
     17 N           8.2343   -4.5034   22.8963 N.am    1  UNL1       -0.2821
     18 H           9.1709   -4.2421   22.7419 H       1  UNL1        0.1549
     19 C           7.8883   -5.4163   24.0352 C.ar    1  UNL1        0.0781
     20 C           7.1943   -4.8719   25.2485 C.ar    1  UNL1        0.0170
     21 C           6.8483   -5.7846   26.3874 C.ar    1  UNL1        0.0014
     22 C           7.1963   -7.2418   26.3130 C.ar    1  UNL1        0.0024
     23 C           7.8903   -7.7862   25.0997 C.ar    1  UNL1        0.0309
     24 C           8.2363   -6.8734   23.9608 C.ar    1  UNL1        0.1535
     25 F           8.9303   -7.4178   22.7476 F       1  UNL1       -0.2029
     26 N          -3.2530    2.7145   20.6360 N.am    1  UNL1       -0.2794
     27 C          -1.8782    3.2733   20.8534 C.2     1  UNL1        0.2495
     28 O          -1.7056    4.7141   21.2334 O.2     1  UNL1       -0.2698
     29 H          -3.3663    1.7688   20.3866 H       1  UNL1        0.1552
     30 N          -4.8436    2.6285   23.1782 N.pl3   1  UNL1       -0.3560
     31 C          -5.2508    3.5534   22.0697 C.ar    1  UNL1        0.0552
     32 C          -6.4531    4.4353   22.2323 C.ar    1  UNL1        0.0153
     33 C          -6.8603    5.3602   21.1238 C.ar    1  UNL1        0.0013
     34 C          -6.0650    5.4032   19.8527 C.ar    1  UNL1        0.0014
     35 C          -4.8626    4.5213   19.6901 C.ar    1  UNL1        0.0159
     36 C          -4.4555    3.5964   20.7986 C.ar    1  UNL1        0.0636
     37 H          -5.3656    2.6002   24.0125 H       1  UNL1        0.1424
     38 H          -4.0544    2.0496   23.0715 H       1  UNL1        0.1424
@<TRIPOS>BOND
     1    30    31    1
     2    31    32   ar
     3    32    33   ar
     4    33    34   ar
     5    34    35   ar
     6    35    36   ar
     7    36    26    1
     8    26    27   am
     9    27    28    2
    10    27     1    1
    11     1     2   ar
    12     2     3   ar
    13     3     4   ar
    14     4     7    1
    15     7     8    1
    16     8     9    1
    17     9    10    1
    18    10    13    1
    19    13    14    1
    20    14    15    1
    21    15    16    2
    22    15    17   am
    23    17    19    1
    24    19    20   ar
    25    20    21   ar
    26    21    22   ar
    27    22    23   ar
    28    23    24   ar
    29    24    25    1
    30    10    11    1
    31    11    12    1
    32     4     5   ar
    33     5     6   ar
    34    36    31   ar
    35     6     1   ar
    36    12     7    1
    37    24    19   ar
    38    30    37    1
    39    30    38    1
    40    26    29    1
    41    17    18    1
@<TRIPOS>MOLECULE
*****
 38 41 0 0 0
SMALL
GASTEIGER

@<TRIPOS>ATOM
      1 C           5.8378   -3.4979   24.1164 C.ar    1  UNL1        0.0537
      2 C           5.3817   -3.8522   22.7320 C.ar    1  UNL1        0.0042
      3 C           4.3999   -2.9716   22.0175 C.ar    1  UNL1       -0.0041
      4 C           3.8742   -1.7368   22.6874 C.ar    1  UNL1       -0.0224
      5 C           4.3303   -1.3825   24.0717 C.ar    1  UNL1       -0.0041
      6 C           5.3121   -2.2631   24.7862 C.ar    1  UNL1        0.0042
      7 C           2.8923   -0.8561   21.9729 C.3     1  UNL1        0.0251
      8 C           2.5514   -1.1239   20.5369 C.3     1  UNL1        0.0217
      9 C           1.5695   -0.2433   19.8224 C.3     1  UNL1        0.0724
     10 N           0.9287    0.9050   20.5439 N.3     1  UNL1       -0.2722
     11 C           1.2696    1.1728   21.9799 C.3     1  UNL1        0.0724
     12 C           2.2514    0.2922   22.6944 C.3     1  UNL1        0.0217
     13 C          -0.0532    1.7857   19.8294 C.3     1  UNL1        0.0817
     14 C          -0.2174    3.2175   20.2452 C.3     1  UNL1        0.1026
     15 C          -1.5689    3.7330   20.6421 C.2     1  UNL1        0.2276
     16 O          -1.7765    5.2024   20.8614 O.2     1  UNL1       -0.2747
     17 N          -2.7129    2.7793   20.8197 N.am    1  UNL1       -0.2821
     18 H          -2.5767    1.8149   20.6757 H       1  UNL1        0.1549
     19 C          -4.0645    3.2948   21.2166 C.ar    1  UNL1        0.0781
     20 C          -4.4473    3.3581   22.6656 C.ar    1  UNL1        0.0170
     21 C          -5.7988    3.8736   23.0625 C.ar    1  UNL1        0.0014
     22 C          -6.7675    4.3259   22.0104 C.ar    1  UNL1        0.0024
     23 C          -6.3848    4.2627   20.5615 C.ar    1  UNL1        0.0309
     24 C          -5.0333    3.7472   20.1645 C.ar    1  UNL1        0.1535
     25 F          -4.6505    3.6840   18.7156 F       1  UNL1       -0.2029
     26 N           6.3894   -5.1548   26.0401 N.am    1  UNL1       -0.2794
     27 C           6.8197   -4.3786   24.8309 C.2     1  UNL1        0.2495
     28 O           8.2319   -4.4830   24.3360 O.2     1  UNL1       -0.2698
     29 H           5.4625   -5.0862   26.3649 H       1  UNL1        0.1552
     30 N           8.0637   -4.0381   28.2649 N.pl3   1  UNL1       -0.3560
     31 C           8.2084   -5.4771   27.8670 C.ar    1  UNL1        0.0552
     32 C           9.1902   -6.3577   28.5814 C.ar    1  UNL1        0.0153
     33 C           9.3349   -7.7967   28.1835 C.ar    1  UNL1        0.0013
     34 C           8.4978   -8.3551   27.0711 C.ar    1  UNL1        0.0014
     35 C           7.5159   -7.4744   26.3567 C.ar    1  UNL1        0.0159
     36 C           7.3713   -6.0354   26.7546 C.ar    1  UNL1        0.0636
     37 H           8.6132   -3.6716   28.9950 H       1  UNL1        0.1424
     38 H           7.4193   -3.4601   27.7960 H       1  UNL1        0.1424
@<TRIPOS>BOND
     1    30    31    1
     2    31    32   ar
     3    32    33   ar
     4    33    34   ar
     5    34    35   ar
     6    35    36   ar
     7    36    26    1
     8    26    27   am
     9    27    28    2
    10    27     1    1
    11     1     2   ar
    12     2     3   ar
    13     3     4   ar
    14     4     7    1
    15     7     8    1
    16     8     9    1
    17     9    10    1
    18    10    13    1
    19    13    14    1
    20    14    15    1
    21    15    16    2
    22    15    17   am
    23    17    19    1
    24    19    20   ar
    25    20    21   ar
    26    21    22   ar
    27    22    23   ar
    28    23    24   ar
    29    24    25    1
    30    10    11    1
    31    11    12    1
    32     4     5   ar
    33     5     6   ar
    34    36    31   ar
    35     6     1   ar
    36    12     7    1
    37    24    19   ar
    38    30    37    1
    39    30    38    1
    40    26    29    1
    41    17    18    1
@<TRIPOS>MOLECULE
*****
 38 41 0 0 0
SMALL
GASTEIGER

@<TRIPOS>ATOM
      1 C           7.0402   -2.4344   31.9256 C.ar    1  UNL1        0.0537
      2 C           8.0399   -1.5376   32.5938 C.ar    1  UNL1        0.0042
      3 C           7.6238   -0.6848   33.7555 C.ar    1  UNL1       -0.0041
      4 C           6.2080   -0.7287   34.2489 C.ar    1  UNL1       -0.0224
      5 C           5.2083   -1.6255   33.5807 C.ar    1  UNL1       -0.0041
      6 C           5.6244   -2.4783   32.4191 C.ar    1  UNL1        0.0042
      7 C           5.7918    0.1241   35.4106 C.3     1  UNL1        0.0251
      8 C           6.5665    1.3639   35.7464 C.3     1  UNL1        0.0217
      9 C           6.1504    2.2168   36.9080 C.3     1  UNL1        0.0724
     10 N           4.9596    1.8298   37.7339 N.3     1  UNL1       -0.2722
     11 C           4.1849    0.5900   37.3982 C.3     1  UNL1        0.0724
     12 C           4.6010   -0.2628   36.2365 C.3     1  UNL1        0.0217
     13 C           4.5434    2.6827   38.8956 C.3     1  UNL1        0.0817
     14 C           3.4932    3.7380   38.7131 C.3     1  UNL1        0.1026
     15 C           2.5799    3.6895   37.5241 C.2     1  UNL1        0.2276
     16 O           1.1536    3.2559   37.6911 O.2     1  UNL1       -0.2747
     17 N           3.0929    4.0745   36.1682 N.am    1  UNL1       -0.2821
     18 H           4.0290    4.3590   36.0585 H       1  UNL1        0.1549
     19 C           2.1796    4.0259   34.9792 C.ar    1  UNL1        0.0781
     20 C           2.2353    2.8594   34.0379 C.ar    1  UNL1        0.0170
     21 C           1.3220    2.8108   32.8489 C.ar    1  UNL1        0.0014
     22 C           0.3531    3.9288   32.6014 C.ar    1  UNL1        0.0024
     23 C           0.2974    5.0953   33.5427 C.ar    1  UNL1        0.0309
     24 C           1.2107    5.1439   34.7316 C.ar    1  UNL1        0.1535
     25 F           1.1550    6.3104   35.6730 F       1  UNL1       -0.2029
     26 N           6.6304   -4.4766   30.3727 N.am    1  UNL1       -0.2794
     27 C           7.4564   -3.2872   30.7639 C.2     1  UNL1        0.2495
     28 O           8.6986   -2.9507   29.9934 O.2     1  UNL1       -0.2698
     29 H           5.8151   -4.6975   30.8784 H       1  UNL1        0.1552
     30 N           5.6435   -3.8371   27.6127 N.pl3   1  UNL1       -0.3560
     31 C           6.5531   -5.0097   27.8311 C.ar    1  UNL1        0.0552
     32 C           6.9693   -5.8625   26.6694 C.ar    1  UNL1        0.0153
     33 C           7.8789   -7.0351   26.8877 C.ar    1  UNL1        0.0013
     34 C           8.3724   -7.3549   28.2677 C.ar    1  UNL1        0.0014
     35 C           7.9562   -6.5020   29.4293 C.ar    1  UNL1        0.0159
     36 C           7.0466   -5.3294   29.2110 C.ar    1  UNL1        0.0636
     37 H           5.3197   -3.6273   26.7070 H       1  UNL1        0.1424
     38 H           5.3704   -3.2774   28.3752 H       1  UNL1        0.1424
@<TRIPOS>BOND
     1    30    31    1
     2    31    32   ar
     3    32    33   ar
     4    33    34   ar
     5    34    35   ar
     6    35    36   ar
     7    36    26    1
     8    26    27   am
     9    27    28    2
    10    27     1    1
    11     1     2   ar
    12     2     3   ar
    13     3     4   ar
    14     4     7    1
    15     7     8    1
    16     8     9    1
    17     9    10    1
    18    10    13    1
    19    13    14    1
    20    14    15    1
    21    15    16    2
    22    15    17   am
    23    17    19    1
    24    19    20   ar
    25    20    21   ar
    26    21    22   ar
    27    22    23   ar
    28    23    24   ar
    29    24    25    1
    30    10    11    1
    31    11    12    1
    32     4     5   ar
    33     5     6   ar
    34    36    31   ar
    35     6     1   ar
    36    12     7    1
    37    24    19   ar
    38    30    37    1
    39    30    38    1
    40    26    29    1
    41    17    18    1
@<TRIPOS>MOLECULE
*****
 38 41 0 0 0
SMALL
GASTEIGER

@<TRIPOS>ATOM
      1 C          -0.4667    2.2976   20.4301 C.ar    1  UNL1        0.0537
      2 C           0.1700    2.0830   19.0890 C.ar    1  UNL1        0.0042
      3 C           1.3856    1.2130   18.9665 C.ar    1  UNL1       -0.0041
      4 C           1.9646    0.5575   20.1851 C.ar    1  UNL1       -0.0224
      5 C           1.3280    0.7721   21.5262 C.ar    1  UNL1       -0.0041
      6 C           0.1123    1.6421   21.6487 C.ar    1  UNL1        0.0042
      7 C           3.1804   -0.3126   20.0627 C.3     1  UNL1        0.0251
      8 C           4.5471    0.2788   20.2425 C.3     1  UNL1        0.0217
      9 C           5.7628   -0.5912   20.1200 C.3     1  UNL1        0.0724
     10 N           5.6119   -2.0527   19.8178 N.3     1  UNL1       -0.2722
     11 C           4.2451   -2.6441   19.6380 C.3     1  UNL1        0.0724
     12 C           3.0294   -1.7740   19.7605 C.3     1  UNL1        0.0217
     13 C           6.8276   -2.9228   19.6954 C.3     1  UNL1        0.0817
     14 C           7.7429   -3.1021   20.8701 C.3     1  UNL1        0.1026
     15 C           7.3603   -4.0309   21.9841 C.2     1  UNL1        0.2276
     16 O           5.9359   -4.4770   22.1328 O.2     1  UNL1       -0.2747
     17 N           8.4021   -4.5137   22.9493 N.am    1  UNL1       -0.2821
     18 H           9.3370   -4.2209   22.8517 H       1  UNL1        0.1549
     19 C           8.0194   -5.4425   24.0633 C.ar    1  UNL1        0.0781
     20 C           8.4343   -6.8832   24.0144 C.ar    1  UNL1        0.0170
     21 C           8.0517   -7.8120   25.1283 C.ar    1  UNL1        0.0014
     22 C           7.2542   -7.3002   26.2911 C.ar    1  UNL1        0.0024
     23 C           6.8393   -5.8595   26.3399 C.ar    1  UNL1        0.0309
     24 C           7.2219   -4.9307   25.2260 C.ar    1  UNL1        0.1535
     25 F           6.8070   -3.4901   25.2748 F       1  UNL1       -0.2029
     26 N          -3.0466    2.5465   20.6109 N.am    1  UNL1       -0.2794
     27 C          -1.6825    3.1677   20.5526 C.2     1  UNL1        0.2495
     28 O          -1.5341    4.6590   20.6167 O.2     1  UNL1       -0.2698
     29 H          -3.1439    1.5678   20.5688 H       1  UNL1        0.1552
     30 N          -3.9288    4.2270   18.2875 N.pl3   1  UNL1       -0.3560
     31 C          -4.7034    4.2568   19.5717 C.ar    1  UNL1        0.0552
     32 C          -5.9191    5.1269   19.6942 C.ar    1  UNL1        0.0153
     33 C          -6.6937    5.1567   20.9783 C.ar    1  UNL1        0.0013
     34 C          -6.2526    4.3166   22.1400 C.ar    1  UNL1        0.0014
     35 C          -5.0369    3.4465   22.0175 C.ar    1  UNL1        0.0159
     36 C          -4.2623    3.4167   20.7333 C.ar    1  UNL1        0.0636
     37 H          -4.2183    4.7784   17.5251 H       1  UNL1        0.1424
     38 H          -3.1308    3.6559   18.2071 H       1  UNL1        0.1424
@<TRIPOS>BOND
     1    30    31    1
     2    31    32   ar
     3    32    33   ar
     4    33    34   ar
     5    34    35   ar
     6    35    36   ar
     7    36    26    1
     8    26    27   am
     9    27    28    2
    10    27     1    1
    11     1     2   ar
    12     2     3   ar
    13     3     4   ar
    14     4     7    1
    15     7     8    1
    16     8     9    1
    17     9    10    1
    18    10    13    1
    19    13    14    1
    20    14    15    1
    21    15    16    2
    22    15    17   am
    23    17    19    1
    24    19    20   ar
    25    20    21   ar
    26    21    22   ar
    27    22    23   ar
    28    23    24   ar
    29    24    25    1
    30    10    11    1
    31    11    12    1
    32     4     5   ar
    33     5     6   ar
    34    36    31   ar
    35     6     1   ar
    36    12     7    1
    37    24    19   ar
    38    30    37    1
    39    30    38    1
    40    26    29    1
    41    17    18    1
@<TRIPOS>MOLECULE
*****
 38 41 0 0 0
SMALL
GASTEIGER

@<TRIPOS>ATOM
      1 C          -1.6801    3.0330   24.9927 C.ar    1  UNL1        0.0537
      2 C          -1.8699    3.1678   26.4745 C.ar    1  UNL1        0.0042
      3 C          -0.8758    2.5562   27.4167 C.ar    1  UNL1       -0.0041
      4 C           0.3081    1.8099   26.8770 C.ar    1  UNL1       -0.0224
      5 C           0.4979    1.6751   25.3952 C.ar    1  UNL1       -0.0041
      6 C          -0.4962    2.2867   24.4530 C.ar    1  UNL1        0.0042
      7 C           1.3022    1.1982   27.8192 C.3     1  UNL1        0.0251
      8 C           2.7109    1.7121   27.8604 C.3     1  UNL1        0.0217
      9 C           3.7050    1.1006   28.8025 C.3     1  UNL1        0.0724
     10 N           3.2905   -0.0249   29.7034 N.3     1  UNL1       -0.2722
     11 C           1.8819   -0.5387   29.6621 C.3     1  UNL1        0.0724
     12 C           0.8878    0.0728   28.7200 C.3     1  UNL1        0.0217
     13 C           4.2847   -0.6365   30.6456 C.3     1  UNL1        0.0817
     14 C           4.5280   -0.0127   31.9879 C.3     1  UNL1        0.1026
     15 C           3.8541    1.2780   32.3483 C.2     1  UNL1        0.2276
     16 O           4.6222    2.5654   32.2952 O.2     1  UNL1       -0.2747
     17 N           2.4123    1.2814   32.7618 N.am    1  UNL1       -0.2821
     18 H           1.9082    0.4365   32.7967 H       1  UNL1        0.1549
     19 C           1.7385    2.5722   33.1223 C.ar    1  UNL1        0.0781
     20 C           2.0298    3.2280   34.4395 C.ar    1  UNL1        0.0170
     21 C           1.3561    4.5188   34.7999 C.ar    1  UNL1        0.0014
     22 C           0.3910    5.1537   33.8432 C.ar    1  UNL1        0.0024
     23 C           0.0996    4.4979   32.5260 C.ar    1  UNL1        0.0309
     24 C           0.7734    3.2071   32.1655 C.ar    1  UNL1        0.1535
     25 F           0.4820    2.5513   30.8483 F       1  UNL1       -0.2029
     26 N          -4.0401    3.0417   23.9062 N.am    1  UNL1       -0.2794
     27 C          -2.6743    3.6447   24.0505 C.2     1  UNL1        0.2495
     28 O          -2.3025    4.8593   23.2527 O.2     1  UNL1       -0.2698
     29 H          -4.2841    2.2445   24.4298 H       1  UNL1        0.1552
     30 N          -3.6804    2.7408   20.9430 N.pl3   1  UNL1       -0.3560
     31 C          -4.8544    3.5029   21.4825 C.ar    1  UNL1        0.0552
     32 C          -5.8485    4.1145   20.5404 C.ar    1  UNL1        0.0153
     33 C          -7.0225    4.8765   21.0798 C.ar    1  UNL1        0.0013
     34 C          -7.2024    5.0270   22.5614 C.ar    1  UNL1        0.0014
     35 C          -6.2083    4.4154   23.5034 C.ar    1  UNL1        0.0159
     36 C          -5.0343    3.6533   22.9640 C.ar    1  UNL1        0.0636
     37 H          -3.5624    2.6421   19.9706 H       1  UNL1        0.1424
     38 H          -3.0279    2.3394   21.5614 H       1  UNL1        0.1424
@<TRIPOS>BOND
     1    30    31    1
     2    31    32   ar
     3    32    33   ar
     4    33    34   ar
     5    34    35   ar
     6    35    36   ar
     7    36    26    1
     8    26    27   am
     9    27    28    2
    10    27     1    1
    11     1     2   ar
    12     2     3   ar
    13     3     4   ar
    14     4     7    1
    15     7     8    1
    16     8     9    1
    17     9    10    1
    18    10    13    1
    19    13    14    1
    20    14    15    1
    21    15    16    2
    22    15    17   am
    23    17    19    1
    24    19    20   ar
    25    20    21   ar
    26    21    22   ar
    27    22    23   ar
    28    23    24   ar
    29    24    25    1
    30    10    11    1
    31    11    12    1
    32     4     5   ar
    33     5     6   ar
    34    36    31   ar
    35     6     1   ar
    36    12     7    1
    37    24    19   ar
    38    30    37    1
    39    30    38    1
    40    26    29    1
    41    17    18    1
@<TRIPOS>MOLECULE
*****
 38 41 0 0 0
SMALL
GASTEIGER

@<TRIPOS>ATOM
      1 C           4.6094   -1.2039   28.0758 C.ar    1  UNL1        0.0537
      2 C           3.5419   -1.0021   27.0415 C.ar    1  UNL1        0.0042
      3 C           3.8280   -1.3021   25.6000 C.ar    1  UNL1       -0.0041
      4 C           5.1816   -1.8039   25.1927 C.ar    1  UNL1       -0.0224
      5 C           6.2491   -2.0057   26.2270 C.ar    1  UNL1       -0.0041
      6 C           5.9630   -1.7057   27.6685 C.ar    1  UNL1        0.0042
      7 C           5.4678   -2.1039   23.7511 C.3     1  UNL1        0.0251
      8 C           6.5147   -1.3210   23.0156 C.3     1  UNL1        0.0217
      9 C           6.8009   -1.6209   21.5741 C.3     1  UNL1        0.0724
     10 N           6.0401   -2.7038   20.8680 N.3     1  UNL1       -0.2722
     11 C           4.9931   -3.4867   21.6035 C.3     1  UNL1        0.0724
     12 C           4.7070   -3.1867   23.0450 C.3     1  UNL1        0.0217
     13 C           6.3263   -3.0038   19.4264 C.3     1  UNL1        0.0817
     14 C           5.2091   -3.0098   18.4255 C.3     1  UNL1        0.1026
     15 C           4.4127   -1.7620   18.1829 C.2     1  UNL1        0.2276
     16 O           4.1687   -1.2888   16.7805 O.2     1  UNL1       -0.2747
     17 N           3.8604   -0.9874   19.3426 N.am    1  UNL1       -0.2821
     18 H           4.0206   -1.2980   20.2630 H       1  UNL1        0.1549
     19 C           3.0641    0.2604   19.1000 C.ar    1  UNL1        0.0781
     20 C           3.7484    1.5048   18.6171 C.ar    1  UNL1        0.0170
     21 C           2.9521    2.7526   18.3745 C.ar    1  UNL1        0.0014
     22 C           1.4715    2.7560   18.6147 C.ar    1  UNL1        0.0024
     23 C           0.7872    1.5116   19.0976 C.ar    1  UNL1        0.0309
     24 C           1.5835    0.2638   19.3402 C.ar    1  UNL1        0.1535
     25 F           0.8991   -0.9806   19.8231 F       1  UNL1       -0.2029
     26 N           5.4500   -0.8198   30.5040 N.am    1  UNL1       -0.2794
     27 C           4.3233   -0.9039   29.5174 C.2     1  UNL1        0.2495
     28 O           2.9103   -0.6881   29.9724 O.2     1  UNL1       -0.2698
     29 H           6.3774   -0.9615   30.2053 H       1  UNL1        0.1552
     30 N           5.1707   -3.0631   32.4762 N.pl3   1  UNL1       -0.3560
     31 C           5.0242   -1.6414   32.9317 C.ar    1  UNL1        0.0552
     32 C           4.7381   -1.3414   34.3732 C.ar    1  UNL1        0.0153
     33 C           4.5916    0.0803   34.8286 C.ar    1  UNL1        0.0013
     34 C           4.7312    1.2019   33.8426 C.ar    1  UNL1        0.0014
     35 C           5.0174    0.9019   32.4010 C.ar    1  UNL1        0.0159
     36 C           5.1639   -0.5198   31.9456 C.ar    1  UNL1        0.0636
     37 H           5.0790   -3.7992   33.1234 H       1  UNL1        0.1424
     38 H           5.3585   -3.2600   31.5301 H       1  UNL1        0.1424
@<TRIPOS>BOND
     1    30    31    1
     2    31    32   ar
     3    32    33   ar
     4    33    34   ar
     5    34    35   ar
     6    35    36   ar
     7    36    26    1
     8    26    27   am
     9    27    28    2
    10    27     1    1
    11     1     2   ar
    12     2     3   ar
    13     3     4   ar
    14     4     7    1
    15     7     8    1
    16     8     9    1
    17     9    10    1
    18    10    13    1
    19    13    14    1
    20    14    15    1
    21    15    16    2
    22    15    17   am
    23    17    19    1
    24    19    20   ar
    25    20    21   ar
    26    21    22   ar
    27    22    23   ar
    28    23    24   ar
    29    24    25    1
    30    10    11    1
    31    11    12    1
    32     4     5   ar
    33     5     6   ar
    34    36    31   ar
    35     6     1   ar
    36    12     7    1
    37    24    19   ar
    38    30    37    1
    39    30    38    1
    40    26    29    1
    41    17    18    1
@<TRIPOS>MOLECULE
*****
 38 41 0 0 0
SMALL
GASTEIGER

@<TRIPOS>ATOM
      1 C          -0.8288    2.4916   20.5058 C.ar    1  UNL1        0.0537
      2 C          -0.1877    1.7995   21.6719 C.ar    1  UNL1        0.0042
      3 C           1.0209    0.9367   21.4601 C.ar    1  UNL1       -0.0041
      4 C           1.5884    0.7661   20.0821 C.ar    1  UNL1       -0.0224
      5 C           0.9473    1.4583   18.9160 C.ar    1  UNL1       -0.0041
      6 C          -0.2613    2.3211   19.1278 C.ar    1  UNL1        0.0042
      7 C           2.7970   -0.0967   19.8703 C.3     1  UNL1        0.0251
      8 C           2.6583   -1.5901   19.8510 C.3     1  UNL1        0.0217
      9 C           3.8669   -2.4529   19.6391 C.3     1  UNL1        0.0724
     10 N           5.2141   -1.8223   19.4466 N.3     1  UNL1       -0.2722
     11 C           5.3528   -0.3288   19.4659 C.3     1  UNL1        0.0724
     12 C           4.1443    0.5340   19.6778 C.3     1  UNL1        0.0217
     13 C           6.4228   -2.6851   19.2347 C.3     1  UNL1        0.0817
     14 C           7.2362   -3.1382   20.4107 C.3     1  UNL1        0.1026
     15 C           6.6538   -3.0820   21.7919 C.2     1  UNL1        0.2276
     16 O           6.1762   -4.3392   22.4562 O.2     1  UNL1       -0.2747
     17 N           6.5490   -1.7686   22.5087 N.am    1  UNL1       -0.2821
     18 H           6.8625   -0.9434   22.0727 H       1  UNL1        0.1549
     19 C           5.9666   -1.7124   23.8900 C.ar    1  UNL1        0.0781
     20 C           6.8498   -1.9160   25.0852 C.ar    1  UNL1        0.0170
     21 C           6.2674   -1.8599   26.4663 C.ar    1  UNL1        0.0014
     22 C           4.8019   -1.6000   26.6523 C.ar    1  UNL1        0.0024
     23 C           3.9187   -1.3964   25.4571 C.ar    1  UNL1        0.0309
     24 C           4.5011   -1.4525   24.0759 C.ar    1  UNL1        0.1535
     25 F           3.6179   -1.2489   22.8807 F       1  UNL1       -0.2029
     26 N          -3.4049    2.7383   20.7361 N.am    1  UNL1       -0.2794
     27 C          -2.0375    3.3545   20.7176 C.2     1  UNL1        0.2495
     28 O          -1.8786    4.8334   20.9110 O.2     1  UNL1       -0.2698
     29 H          -3.5092    1.7676   20.6092 H       1  UNL1        0.1552
     30 N          -4.8532    2.6725   23.3626 N.pl3   1  UNL1       -0.3560
     31 C          -5.3377    3.5682   22.2612 C.ar    1  UNL1        0.0552
     32 C          -6.5462    4.4309   22.4730 C.ar    1  UNL1        0.0153
     33 C          -7.0307    5.3266   21.3716 C.ar    1  UNL1        0.0013
     34 C          -6.3066    5.3595   20.0584 C.ar    1  UNL1        0.0014
     35 C          -5.0980    4.4967   19.8466 C.ar    1  UNL1        0.0159
     36 C          -4.6135    3.6011   20.9480 C.ar    1  UNL1        0.0636
     37 H          -5.3285    2.6509   24.2245 H       1  UNL1        0.1424
     38 H          -4.0599    2.1062   23.2235 H       1  UNL1        0.1424
@<TRIPOS>BOND
     1    30    31    1
     2    31    32   ar
     3    32    33   ar
     4    33    34   ar
     5    34    35   ar
     6    35    36   ar
     7    36    26    1
     8    26    27   am
     9    27    28    2
    10    27     1    1
    11     1     2   ar
    12     2     3   ar
    13     3     4   ar
    14     4     7    1
    15     7     8    1
    16     8     9    1
    17     9    10    1
    18    10    13    1
    19    13    14    1
    20    14    15    1
    21    15    16    2
    22    15    17   am
    23    17    19    1
    24    19    20   ar
    25    20    21   ar
    26    21    22   ar
    27    22    23   ar
    28    23    24   ar
    29    24    25    1
    30    10    11    1
    31    11    12    1
    32     4     5   ar
    33     5     6   ar
    34    36    31   ar
    35     6     1   ar
    36    12     7    1
    37    24    19   ar
    38    30    37    1
    39    30    38    1
    40    26    29    1
    41    17    18    1
