@<TRIPOS>MOLECULE
*****
 26 30 0 0 0
SMALL
GASTEIGER

@<TRIPOS>ATOM
      1 C          -9.0649   -7.0144   19.2672 C.3     1  UNL1        0.0899
      2 N         -10.3924   -6.3617   19.0184 N.3     1  UNL1       -0.2671
      3 C         -10.4777   -4.8729   18.8572 C.3     1  UNL1        0.0989
      4 C         -11.8052   -4.2202   18.6084 C.ar    1  UNL1       -0.0085
      5 C         -11.8905   -2.7314   18.4473 C.ar    1  UNL1        0.0113
      6 C         -13.2179   -2.0788   18.1985 C.ar    1  UNL1        0.0477
      7 C         -14.4601   -2.9151   18.1108 C.ar    1  UNL1        0.0142
      8 C         -14.3748   -4.4039   18.2719 C.ar    1  UNL1       -0.0029
      9 C         -13.0473   -5.0565   18.5207 C.ar    1  UNL1       -0.0196
     10 C         -12.9620   -6.5454   18.6819 C.3     1  UNL1        0.0602
     11 C         -11.6345   -7.1980   18.9307 C.3     1  UNL1        0.0811
     12 C         -14.2042   -7.3817   18.5942 C.ar    1  UNL1       -0.0170
     13 C         -14.2830   -8.5060   17.6043 C.ar    1  UNL1       -0.0034
     14 C         -15.5252   -9.3423   17.5166 C.ar    1  UNL1        0.0062
     15 C         -16.6885   -9.0542   18.4188 C.ar    1  UNL1        0.0295
     16 S         -18.0336   -9.7027   18.5601 S.2     1  UNL1       -0.0864
     17 C         -18.7861   -8.9793   19.6373 C.ar    1  UNL1        0.0354
     18 C         -17.9060   -7.8837   20.1617 C.ar    1  UNL1        0.0075
     19 C         -16.6096   -7.9300   19.4086 C.ar    1  UNL1        0.0062
     20 C         -15.3674   -7.0937   19.4963 C.ar    1  UNL1       -0.0034
     21 N         -13.3033   -0.5899   18.0374 N.pl3   1  UNL1       -0.3028
     22 C         -14.4605    0.1629   18.6242 C.3     1  UNL1        0.1231
     23 C         -14.5458    1.6517   18.4631 C.3     1  UNL1        0.1636
     24 O         -13.4740    2.3879   17.7152 O.3     1  UNL1       -0.3501
     25 C         -12.3169    1.6352   17.1284 C.3     1  UNL1        0.1636
     26 C         -12.2315    0.1462   17.2895 C.3     1  UNL1        0.1231
@<TRIPOS>BOND
     1     1     2    1
     2     2     3    1
     3     3     4    1
     4     4     5   ar
     5     5     6   ar
     6     6    21    1
     7    21    22    1
     8    22    23    1
     9    23    24    1
    10    24    25    1
    11    25    26    1
    12     6     7   ar
    13     7     8   ar
    14     8     9   ar
    15     9    10    1
    16    10    12    1
    17    12    13   ar
    18    13    14   ar
    19    14    15   ar
    20    15    16   ar
    21    16    17   ar
    22    17    18   ar
    23    18    19   ar
    24    19    20   ar
    25    10    11    1
    26    11     2    1
    27     9     4   ar
    28    20    12   ar
    29    26    21    1
    30    19    15   ar
@<TRIPOS>MOLECULE
*****
 26 30 0 0 0
SMALL
GASTEIGER

@<TRIPOS>ATOM
      1 C          -9.5275   -5.4456   19.0598 C.3     1  UNL1        0.0899
      2 N         -10.9992   -5.1552   19.0626 N.3     1  UNL1       -0.2671
      3 C         -11.4846   -3.7423   19.1974 C.3     1  UNL1        0.0989
      4 C         -12.9563   -3.4519   19.2001 C.ar    1  UNL1       -0.0085
      5 C         -13.4417   -2.0391   19.3350 C.ar    1  UNL1        0.0113
      6 C         -14.9133   -1.7487   19.3377 C.ar    1  UNL1        0.0477
      7 C         -15.8995   -2.8712   19.2057 C.ar    1  UNL1        0.0142
      8 C         -15.4141   -4.2840   19.0709 C.ar    1  UNL1       -0.0029
      9 C         -13.9425   -4.5744   19.0681 C.ar    1  UNL1       -0.0196
     10 C         -13.4570   -5.9873   18.9333 C.3     1  UNL1        0.0602
     11 C         -11.9854   -6.2777   18.9305 C.3     1  UNL1        0.0811
     12 C         -14.4432   -7.1098   18.8012 C.ar    1  UNL1       -0.0170
     13 C         -14.1268   -8.2872   17.9273 C.ar    1  UNL1       -0.0034
     14 C         -15.1130   -9.4097   17.7952 C.ar    1  UNL1        0.0062
     15 C         -16.4156   -9.3548   18.5371 C.ar    1  UNL1        0.0295
     16 S         -17.5745  -10.3048   18.6019 S.2     1  UNL1       -0.0864
     17 C         -18.6071   -9.7146   19.5159 C.ar    1  UNL1        0.0354
     18 C         -18.0864   -8.3998   20.0160 C.ar    1  UNL1        0.0075
     19 C         -16.7319   -8.1774   19.4110 C.ar    1  UNL1        0.0062
     20 C         -15.7457   -7.0549   19.5431 C.ar    1  UNL1       -0.0034
     21 N         -15.3987   -0.3358   19.4725 N.pl3   1  UNL1       -0.3028
     22 C         -14.6979    0.7709   18.7418 C.3     1  UNL1        0.1231
     23 C         -15.1833    2.1838   18.8766 C.3     1  UNL1        0.1636
     24 O         -16.3696    2.4899   19.7421 O.3     1  UNL1       -0.3501
     25 C         -17.0704    1.3832   20.4729 C.3     1  UNL1        0.1636
     26 C         -16.5849   -0.0297   20.3381 C.3     1  UNL1        0.1231
@<TRIPOS>BOND
     1     1     2    1
     2     2     3    1
     3     3     4    1
     4     4     5   ar
     5     5     6   ar
     6     6    21    1
     7    21    22    1
     8    22    23    1
     9    23    24    1
    10    24    25    1
    11    25    26    1
    12     6     7   ar
    13     7     8   ar
    14     8     9   ar
    15     9    10    1
    16    10    12    1
    17    12    13   ar
    18    13    14   ar
    19    14    15   ar
    20    15    16   ar
    21    16    17   ar
    22    17    18   ar
    23    18    19   ar
    24    19    20   ar
    25    10    11    1
    26    11     2    1
    27     9     4   ar
    28    20    12   ar
    29    26    21    1
    30    19    15   ar
@<TRIPOS>MOLECULE
*****
 26 30 0 0 0
SMALL
GASTEIGER

@<TRIPOS>ATOM
      1 C          -9.6975   -5.2054   19.2118 C.3     1  UNL1        0.0899
      2 N         -11.1815   -5.0286   19.0825 N.3     1  UNL1       -0.2671
      3 C         -12.0698   -6.2284   18.9364 C.3     1  UNL1        0.0989
      4 C         -13.5538   -6.0515   18.8071 C.ar    1  UNL1       -0.0085
      5 C         -14.4421   -7.2513   18.6610 C.ar    1  UNL1        0.0113
      6 C         -15.9260   -7.0744   18.5317 C.ar    1  UNL1        0.0477
      7 C         -16.5215   -5.6978   18.5485 C.ar    1  UNL1        0.0142
      8 C         -15.6332   -4.4981   18.6946 C.ar    1  UNL1       -0.0029
      9 C         -14.1493   -4.6749   18.8239 C.ar    1  UNL1       -0.0196
     10 C         -13.2609   -3.4751   18.9700 C.3     1  UNL1        0.0602
     11 C         -11.7770   -3.6520   19.0993 C.3     1  UNL1        0.0811
     12 C         -13.8564   -2.0985   18.9868 C.ar    1  UNL1       -0.0170
     13 C         -13.2312   -1.0009   18.1778 C.ar    1  UNL1       -0.0034
     14 C         -13.8267    0.3757   18.1946 C.ar    1  UNL1        0.0062
     15 C         -15.0475    0.6547   19.0205 C.ar    1  UNL1        0.0295
     16 S         -15.8515    1.9030   19.2332 S.2     1  UNL1       -0.0864
     17 C         -16.9736    1.5769   20.1737 C.ar    1  UNL1        0.0354
     18 C         -16.8630    0.1271   20.5422 C.ar    1  UNL1        0.0075
     19 C         -15.6726   -0.4428   19.8295 C.ar    1  UNL1        0.0062
     20 C         -15.0771   -1.8195   19.8127 C.ar    1  UNL1       -0.0034
     21 N         -16.8144   -8.2742   18.3855 N.pl3   1  UNL1       -0.3028
     22 C         -18.2513   -8.0999   17.9916 C.3     1  UNL1        0.1231
     23 C         -19.1397   -9.2996   17.8455 C.3     1  UNL1        0.1636
     24 O         -18.5913  -10.6737   18.0933 O.3     1  UNL1       -0.3501
     25 C         -17.1545  -10.8479   18.4872 C.3     1  UNL1        0.1636
     26 C         -16.2661   -9.6482   18.6333 C.3     1  UNL1        0.1231
@<TRIPOS>BOND
     1     1     2    1
     2     2     3    1
     3     3     4    1
     4     4     5   ar
     5     5     6   ar
     6     6    21    1
     7    21    22    1
     8    22    23    1
     9    23    24    1
    10    24    25    1
    11    25    26    1
    12     6     7   ar
    13     7     8   ar
    14     8     9   ar
    15     9    10    1
    16    10    12    1
    17    12    13   ar
    18    13    14   ar
    19    14    15   ar
    20    15    16   ar
    21    16    17   ar
    22    17    18   ar
    23    18    19   ar
    24    19    20   ar
    25    10    11    1
    26    11     2    1
    27     9     4   ar
    28    20    12   ar
    29    26    21    1
    30    19    15   ar
@<TRIPOS>MOLECULE
*****
 26 30 0 0 0
SMALL
GASTEIGER

@<TRIPOS>ATOM
      1 C          -6.5576  -14.3742   27.7387 C.3     1  UNL1        0.0899
      2 N          -6.6325  -15.2124   26.4969 N.3     1  UNL1       -0.2671
      3 C          -5.3797  -15.5541   25.7460 C.3     1  UNL1        0.0989
      4 C          -5.4546  -16.3923   24.5043 C.ar    1  UNL1       -0.0085
      5 C          -4.2019  -16.7340   23.7534 C.ar    1  UNL1        0.0113
      6 C          -4.2768  -17.5722   22.5117 C.ar    1  UNL1        0.0477
      7 C          -5.6044  -18.0686   22.0209 C.ar    1  UNL1        0.0142
      8 C          -6.8572  -17.7268   22.7717 C.ar    1  UNL1       -0.0029
      9 C          -6.7822  -16.8887   24.0134 C.ar    1  UNL1       -0.0196
     10 C          -8.0350  -16.5469   24.7643 C.3     1  UNL1        0.0602
     11 C          -7.9601  -15.7088   26.0060 C.3     1  UNL1        0.0811
     12 C          -9.3627  -17.0433   24.2735 C.ar    1  UNL1       -0.0170
     13 C         -10.0159  -18.2191   24.9375 C.ar    1  UNL1       -0.0034
     14 C         -11.3436  -18.7155   24.4467 C.ar    1  UNL1        0.0062
     15 C         -12.0180  -18.0361   23.2918 C.ar    1  UNL1        0.0295
     16 S         -13.3191  -18.2990   22.5933 S.2     1  UNL1       -0.0864
     17 C         -13.4700  -17.2858   21.4977 C.ar    1  UNL1        0.0354
     18 C         -12.2621  -16.3967   21.5189 C.ar    1  UNL1        0.0075
     19 C         -11.3647  -16.8604   22.6278 C.ar    1  UNL1        0.0062
     20 C         -10.0371  -16.3640   23.1186 C.ar    1  UNL1       -0.0034
     21 N          -3.0240  -17.9139   21.7608 N.pl3   1  UNL1       -0.3028
     22 C          -2.6631  -19.3495   21.5181 C.3     1  UNL1        0.1231
     23 C          -1.4104  -19.6913   20.7672 C.3     1  UNL1        0.1636
     24 O          -0.5185  -18.5975   20.2590 O.3     1  UNL1       -0.3501
     25 C          -0.8794  -17.1620   20.5017 C.3     1  UNL1        0.1636
     26 C          -2.1321  -16.8202   21.2527 C.3     1  UNL1        0.1231
@<TRIPOS>BOND
     1     1     2    1
     2     2     3    1
     3     3     4    1
     4     4     5   ar
     5     5     6   ar
     6     6    21    1
     7    21    22    1
     8    22    23    1
     9    23    24    1
    10    24    25    1
    11    25    26    1
    12     6     7   ar
    13     7     8   ar
    14     8     9   ar
    15     9    10    1
    16    10    12    1
    17    12    13   ar
    18    13    14   ar
    19    14    15   ar
    20    15    16   ar
    21    16    17   ar
    22    17    18   ar
    23    18    19   ar
    24    19    20   ar
    25    10    11    1
    26    11     2    1
    27     9     4   ar
    28    20    12   ar
    29    26    21    1
    30    19    15   ar
@<TRIPOS>MOLECULE
*****
 26 30 0 0 0
SMALL
GASTEIGER

@<TRIPOS>ATOM
      1 C          -2.0862    3.3161   20.3545 C.3     1  UNL1        0.0899
      2 N          -0.9916    2.5242   21.0063 N.3     1  UNL1       -0.2671
      3 C          -0.1431    1.6000   20.1843 C.3     1  UNL1        0.0989
      4 C           0.9516    0.8080   20.8361 C.ar    1  UNL1       -0.0085
      5 C           1.8001   -0.1162   20.0141 C.ar    1  UNL1        0.0113
      6 C           2.8947   -0.9081   20.6659 C.ar    1  UNL1        0.0477
      7 C           3.1406   -0.7758   22.1396 C.ar    1  UNL1        0.0142
      8 C           2.2920    0.1484   22.9616 C.ar    1  UNL1       -0.0029
      9 C           1.1975    0.9403   22.3098 C.ar    1  UNL1       -0.0196
     10 C           0.3488    1.8646   23.1318 C.3     1  UNL1        0.0602
     11 C          -0.7457    2.6565   22.4800 C.3     1  UNL1        0.0811
     12 C           0.5948    1.9969   24.6056 C.ar    1  UNL1       -0.0170
     13 C           1.6642    2.9214   25.1075 C.ar    1  UNL1       -0.0034
     14 C           1.9101    3.0537   26.5813 C.ar    1  UNL1        0.0062
     15 C           1.0867    2.2615   27.5531 C.ar    1  UNL1        0.0295
     16 S           1.1001    2.1849   29.0511 S.2     1  UNL1       -0.0864
     17 C           0.0390    1.2131   29.4750 C.ar    1  UNL1        0.0354
     18 C          -0.6302    0.6891   28.2390 C.ar    1  UNL1        0.0075
     19 C           0.0174    1.3371   27.0512 C.ar    1  UNL1        0.0062
     20 C          -0.2286    1.2048   25.5775 C.ar    1  UNL1       -0.0034
     21 N           3.7433   -1.8323   19.8439 N.pl3   1  UNL1       -0.3028
     22 C           4.9092   -1.2913   19.0706 C.3     1  UNL1        0.1231
     23 C           5.7579   -2.2155   18.2487 C.3     1  UNL1        0.1636
     24 O           5.4406   -3.6808   18.1999 O.3     1  UNL1       -0.3501
     25 C           4.2747   -4.2218   18.9731 C.3     1  UNL1        0.1636
     26 C           3.4260   -3.2976   19.7951 C.3     1  UNL1        0.1231
@<TRIPOS>BOND
     1     1     2    1
     2     2     3    1
     3     3     4    1
     4     4     5   ar
     5     5     6   ar
     6     6    21    1
     7    21    22    1
     8    22    23    1
     9    23    24    1
    10    24    25    1
    11    25    26    1
    12     6     7   ar
    13     7     8   ar
    14     8     9   ar
    15     9    10    1
    16    10    12    1
    17    12    13   ar
    18    13    14   ar
    19    14    15   ar
    20    15    16   ar
    21    16    17   ar
    22    17    18   ar
    23    18    19   ar
    24    19    20   ar
    25    10    11    1
    26    11     2    1
    27     9     4   ar
    28    20    12   ar
    29    26    21    1
    30    19    15   ar
@<TRIPOS>MOLECULE
*****
 26 30 0 0 0
SMALL
GASTEIGER

@<TRIPOS>ATOM
      1 C          -1.1453    3.2301   20.8570 C.3     1  UNL1        0.0899
      2 N          -0.1618    2.3861   21.6123 N.3     1  UNL1       -0.2671
      3 C          -0.1905    2.3616   23.1118 C.3     1  UNL1        0.0989
      4 C           0.7930    1.5175   23.8671 C.ar    1  UNL1       -0.0085
      5 C           0.7644    1.4930   25.3666 C.ar    1  UNL1        0.0113
      6 C           1.7478    0.6490   26.1218 C.ar    1  UNL1        0.0477
      7 C           2.7600   -0.1705   25.3775 C.ar    1  UNL1        0.0142
      8 C           2.7886   -0.1460   23.8780 C.ar    1  UNL1       -0.0029
      9 C           1.8052    0.6980   23.1228 C.ar    1  UNL1       -0.0196
     10 C           1.8338    0.7225   21.6232 C.3     1  UNL1        0.0602
     11 C           0.8503    1.5665   20.8680 C.3     1  UNL1        0.0811
     12 C           2.8459   -0.0970   20.8789 C.ar    1  UNL1       -0.0170
     13 C           4.1622    0.5086   20.4905 C.ar    1  UNL1       -0.0034
     14 C           5.1743   -0.3109   19.7462 C.ar    1  UNL1        0.0062
     15 C           4.8702   -1.7360   19.3903 C.ar    1  UNL1        0.0295
     16 S           5.6657   -2.7813   18.6662 S.2     1  UNL1       -0.0864
     17 C           4.8411   -4.0330   18.6070 C.ar    1  UNL1        0.0354
     18 C           3.5360   -3.7611   19.2945 C.ar    1  UNL1        0.0075
     19 C           3.5540   -2.3415   19.7787 C.ar    1  UNL1        0.0062
     20 C           2.5418   -1.5220   20.5229 C.ar    1  UNL1       -0.0034
     21 N           1.7192    0.6245   27.6213 N.pl3   1  UNL1       -0.3028
     22 C           2.3872   -0.4932   28.3660 C.3     1  UNL1        0.1231
     23 C           2.3586   -0.5178   29.8655 C.3     1  UNL1        0.1636
     24 O           1.6620    0.5754   30.6204 O.3     1  UNL1       -0.3501
     25 C           0.9941    1.6931   29.8757 C.3     1  UNL1        0.1636
     26 C           1.0227    1.7176   28.3761 C.3     1  UNL1        0.1231
@<TRIPOS>BOND
     1     1     2    1
     2     2     3    1
     3     3     4    1
     4     4     5   ar
     5     5     6   ar
     6     6    21    1
     7    21    22    1
     8    22    23    1
     9    23    24    1
    10    24    25    1
    11    25    26    1
    12     6     7   ar
    13     7     8   ar
    14     8     9   ar
    15     9    10    1
    16    10    12    1
    17    12    13   ar
    18    13    14   ar
    19    14    15   ar
    20    15    16   ar
    21    16    17   ar
    22    17    18   ar
    23    18    19   ar
    24    19    20   ar
    25    10    11    1
    26    11     2    1
    27     9     4   ar
    28    20    12   ar
    29    26    21    1
    30    19    15   ar
@<TRIPOS>MOLECULE
*****
 26 30 0 0 0
SMALL
GASTEIGER

@<TRIPOS>ATOM
      1 C           4.4598    5.1726   17.2967 C.3     1  UNL1        0.0899
      2 N           3.5561    4.0840   17.7951 N.3     1  UNL1       -0.2671
      3 C           4.1339    2.7698   18.2297 C.3     1  UNL1        0.0989
      4 C           3.2302    1.6812   18.7281 C.ar    1  UNL1       -0.0085
      5 C           3.8081    0.3670   19.1627 C.ar    1  UNL1        0.0113
      6 C           2.9044   -0.7215   19.6611 C.ar    1  UNL1        0.0477
      7 C           1.4229   -0.4959   19.7248 C.ar    1  UNL1        0.0142
      8 C           0.8450    0.8183   19.2902 C.ar    1  UNL1       -0.0029
      9 C           1.7487    1.9068   18.7918 C.ar    1  UNL1       -0.0196
     10 C           1.1708    3.2211   18.3572 C.3     1  UNL1        0.0602
     11 C           2.0745    4.3096   17.8588 C.3     1  UNL1        0.0811
     12 C          -0.3108    3.4467   18.4209 C.ar    1  UNL1       -0.0170
     13 C          -1.0755    3.7642   17.1701 C.ar    1  UNL1       -0.0034
     14 C          -2.5571    3.9898   17.2338 C.ar    1  UNL1        0.0062
     15 C          -3.2739    3.8980   18.5483 C.ar    1  UNL1        0.0295
     16 S          -4.7173    4.0696   18.9185 S.2     1  UNL1       -0.0864
     17 C          -4.8446    3.8582   20.3980 C.ar    1  UNL1        0.0354
     18 C          -3.4799    3.5560   20.9422 C.ar    1  UNL1        0.0075
     19 C          -2.5091    3.5806   19.7990 C.ar    1  UNL1        0.0062
     20 C          -1.0275    3.3549   19.7353 C.ar    1  UNL1       -0.0034
     21 N           3.4823   -2.0358   20.0958 N.pl3   1  UNL1       -0.3028
     22 C           3.5443   -3.1833   19.1318 C.3     1  UNL1        0.1231
     23 C           4.1221   -4.4975   19.5663 C.3     1  UNL1        0.1636
     24 O           4.6380   -4.6643   20.9650 O.3     1  UNL1       -0.3501
     25 C           4.5759   -3.5167   21.9290 C.3     1  UNL1        0.1636
     26 C           3.9981   -2.2025   21.4944 C.3     1  UNL1        0.1231
@<TRIPOS>BOND
     1     1     2    1
     2     2     3    1
     3     3     4    1
     4     4     5   ar
     5     5     6   ar
     6     6    21    1
     7    21    22    1
     8    22    23    1
     9    23    24    1
    10    24    25    1
    11    25    26    1
    12     6     7   ar
    13     7     8   ar
    14     8     9   ar
    15     9    10    1
    16    10    12    1
    17    12    13   ar
    18    13    14   ar
    19    14    15   ar
    20    15    16   ar
    21    16    17   ar
    22    17    18   ar
    23    18    19   ar
    24    19    20   ar
    25    10    11    1
    26    11     2    1
    27     9     4   ar
    28    20    12   ar
    29    26    21    1
    30    19    15   ar
@<TRIPOS>MOLECULE
*****
 26 30 0 0 0
SMALL
GASTEIGER

@<TRIPOS>ATOM
      1 C           4.6990    0.9849   36.5021 C.3     1  UNL1        0.0899
      2 N           4.6337    0.5007   35.0839 N.3     1  UNL1       -0.2671
      3 C           3.5506    0.9953   34.1716 C.3     1  UNL1        0.0989
      4 C           3.4853    0.5110   32.7534 C.ar    1  UNL1       -0.0085
      5 C           2.4022    1.0056   31.8411 C.ar    1  UNL1        0.0113
      6 C           2.3369    0.5213   30.4230 C.ar    1  UNL1        0.0477
      7 C           3.3548   -0.4575   29.9171 C.ar    1  UNL1        0.0142
      8 C           4.4379   -0.9520   30.8293 C.ar    1  UNL1       -0.0029
      9 C           4.5031   -0.4678   32.2475 C.ar    1  UNL1       -0.0196
     10 C           5.5863   -0.9624   33.1598 C.3     1  UNL1        0.0602
     11 C           5.6515   -0.4781   34.5780 C.3     1  UNL1        0.0811
     12 C           6.6041   -1.9412   32.6539 C.ar    1  UNL1       -0.0170
     13 C           8.0337   -1.5182   32.4882 C.ar    1  UNL1       -0.0034
     14 C           9.0516   -2.4970   31.9823 C.ar    1  UNL1        0.0062
     15 C           8.6398   -3.8988   31.6421 C.ar    1  UNL1        0.0295
     16 S           9.4144   -5.0751   31.1264 S.2     1  UNL1       -0.0864
     17 C           8.4636   -6.2251   30.9734 C.ar    1  UNL1        0.0354
     18 C           7.1014   -5.7594   31.3946 C.ar    1  UNL1        0.0075
     19 C           7.2103   -4.3216   31.8079 C.ar    1  UNL1        0.0062
     20 C           6.1924   -3.3428   32.3138 C.ar    1  UNL1       -0.0034
     21 N           1.2538    1.0159   29.5106 N.pl3   1  UNL1       -0.3028
     22 C           0.1969    0.0712   29.0202 C.3     1  UNL1        0.1231
     23 C          -0.8862    0.5657   28.1079 C.3     1  UNL1        0.1636
     24 O          -0.9125    2.0049   27.6860 O.3     1  UNL1       -0.3501
     25 C           0.1445    2.9496   28.1764 C.3     1  UNL1        0.1636
     26 C           1.2276    2.4551   29.0887 C.3     1  UNL1        0.1231
@<TRIPOS>BOND
     1     1     2    1
     2     2     3    1
     3     3     4    1
     4     4     5   ar
     5     5     6   ar
     6     6    21    1
     7    21    22    1
     8    22    23    1
     9    23    24    1
    10    24    25    1
    11    25    26    1
    12     6     7   ar
    13     7     8   ar
    14     8     9   ar
    15     9    10    1
    16    10    12    1
    17    12    13   ar
    18    13    14   ar
    19    14    15   ar
    20    15    16   ar
    21    16    17   ar
    22    17    18   ar
    23    18    19   ar
    24    19    20   ar
    25    10    11    1
    26    11     2    1
    27     9     4   ar
    28    20    12   ar
    29    26    21    1
    30    19    15   ar
@<TRIPOS>MOLECULE
*****
 26 30 0 0 0
SMALL
GASTEIGER

@<TRIPOS>ATOM
      1 C          -1.9195    5.8540   16.7306 C.3     1  UNL1        0.0899
      2 N          -1.5875    4.8075   17.7527 N.3     1  UNL1       -0.2671
      3 C          -0.4960    3.8148   17.4825 C.3     1  UNL1        0.0989
      4 C          -0.1640    2.7683   18.5046 C.ar    1  UNL1       -0.0085
      5 C           0.9275    1.7755   18.2344 C.ar    1  UNL1        0.0113
      6 C           1.2594    0.7291   19.2565 C.ar    1  UNL1        0.0477
      7 C           0.4998    0.6754   20.5488 C.ar    1  UNL1        0.0142
      8 C          -0.5917    1.6681   20.8191 C.ar    1  UNL1       -0.0029
      9 C          -0.9236    2.7145   19.7970 C.ar    1  UNL1       -0.0196
     10 C          -2.0152    3.7073   20.0672 C.3     1  UNL1        0.0602
     11 C          -2.3471    4.7538   19.0451 C.3     1  UNL1        0.0811
     12 C          -2.7747    3.6536   21.3595 C.ar    1  UNL1       -0.0170
     13 C          -4.2140    3.2310   21.3665 C.ar    1  UNL1       -0.0034
     14 C          -4.9736    3.1772   22.6589 C.ar    1  UNL1        0.0062
     15 C          -4.2939    3.5462   23.9442 C.ar    1  UNL1        0.0295
     16 S          -4.7826    3.5886   25.3617 S.2     1  UNL1       -0.0864
     17 C          -3.6454    4.0375   26.2308 C.ar    1  UNL1        0.0354
     18 C          -2.4539    4.2725   25.3504 C.ar    1  UNL1        0.0075
     19 C          -2.8547    3.9688   23.9372 C.ar    1  UNL1        0.0062
     20 C          -2.0951    4.0225   22.6448 C.ar    1  UNL1       -0.0034
     21 N           2.3510   -0.2637   18.9863 N.pl3   1  UNL1       -0.3028
     22 C           2.6303   -1.3583   19.9731 C.3     1  UNL1        0.1231
     23 C           3.7218   -2.3510   19.7029 C.3     1  UNL1        0.1636
     24 O           4.5340   -2.2492   18.4459 O.3     1  UNL1       -0.3501
     25 C           4.2546   -1.1547   17.4591 C.3     1  UNL1        0.1636
     26 C           3.1631   -0.1619   17.7293 C.3     1  UNL1        0.1231
@<TRIPOS>BOND
     1     1     2    1
     2     2     3    1
     3     3     4    1
     4     4     5   ar
     5     5     6   ar
     6     6    21    1
     7    21    22    1
     8    22    23    1
     9    23    24    1
    10    24    25    1
    11    25    26    1
    12     6     7   ar
    13     7     8   ar
    14     8     9   ar
    15     9    10    1
    16    10    12    1
    17    12    13   ar
    18    13    14   ar
    19    14    15   ar
    20    15    16   ar
    21    16    17   ar
    22    17    18   ar
    23    18    19   ar
    24    19    20   ar
    25    10    11    1
    26    11     2    1
    27     9     4   ar
    28    20    12   ar
    29    26    21    1
    30    19    15   ar
