@<TRIPOS>MOLECULE
*****
 25 28 0 0 0
SMALL
GASTEIGER

@<TRIPOS>ATOM
      1 C          -8.3810  -19.2739   20.9251 C.3     1  UNL1        0.1473
      2 O          -9.0277  -19.0119   19.5973 O.3     1  UNL1       -0.3787
      3 H          -9.9907  -18.9772   19.7079 H       1  UNL1        0.2108
      4 C          -9.2276  -19.4359   22.1528 C.ar    1  UNL1        0.0087
      5 C          -8.7741  -20.3367   23.2630 C.ar    1  UNL1        0.0188
      6 C          -9.6207  -20.4987   24.4906 C.ar    1  UNL1        0.0986
      7 N         -10.9208  -19.7597   24.6079 N.ar    1  UNL1       -0.2439
      8 C         -11.3743  -18.8588   23.4977 C.ar    1  UNL1        0.0813
      9 C         -12.6743  -18.1199   23.6150 C.ar    1  UNL1        0.0222
     10 C         -13.1278  -17.2190   22.5047 C.ar    1  UNL1        0.0384
     11 C         -12.2812  -17.0570   21.2770 C.ar    1  UNL1        0.1388
     12 C         -10.9811  -17.7960   21.1597 C.ar    1  UNL1        0.0382
     13 C         -10.5277  -18.6969   22.2701 C.ar    1  UNL1        0.0190
     14 O         -12.7346  -16.1561   20.1668 O.3     1  UNL1       -0.4714
     15 C         -11.7387  -15.6206   19.1813 C.3     1  UNL1        0.2525
     16 C          -3.9011  -19.5741   21.2258 C.3     1  UNL1        0.0381
     17 C          -4.6347  -18.5132   21.9915 C.3     1  UNL1        0.0765
     18 N          -6.1280  -18.4131   21.8912 N.3     1  UNL1       -0.2712
     19 C          -6.8877  -19.3740   21.0253 C.3     1  UNL1        0.0722
     20 C          -6.1540  -20.4348   20.2597 C.3     1  UNL1        0.0177
     21 C          -4.6607  -20.5349   20.3599 C.3     1  UNL1        0.0082
     22 C          -5.7995  -19.9865   20.6637 C.3     1  UNL1        0.0192
     23 C          -6.1908  -19.4207   21.0721 C.3     1  UNL1        0.0888
     24 C          -1.5385  -18.8286   20.4432 C.2     1  UNL1       -0.0049
     25 C          -2.4078  -19.6742   21.3260 C.2     1  UNL1       -0.0251
@<TRIPOS>BOND
     1    24    25    2
     2    16    25    1
     3    16    17    1
     4    17    18    1
     5    18    19    1
     6    19    20    1
     7    20    21    1
     8    21    22    1
     9    22    23    1
    10    23     1    1
    11     1     2    1
    12     1     4    1
    13     4     5   ar
    14     5     6   ar
    15     6     7   ar
    16     7     8   ar
    17     8     9   ar
    18     9    10   ar
    19    10    11   ar
    20    11    14    1
    21    14    15    1
    22    11    12   ar
    23    12    13   ar
    24    21    16    1
    25    13     4   ar
    26    23    18    1
    27    13     8   ar
    28     2     3    1
@<TRIPOS>MOLECULE
*****
 25 28 0 0 0
SMALL
GASTEIGER

@<TRIPOS>ATOM
      1 C          -9.0831  -16.7842   21.9310 C.3     1  UNL1        0.1473
      2 O          -8.8314  -15.3517   21.5645 O.3     1  UNL1       -0.3787
      3 H          -7.9464  -15.2679   21.1764 H       1  UNL1        0.2108
      4 C          -8.0288  -17.8202   21.6752 C.ar    1  UNL1        0.0087
      5 C          -8.2991  -18.9456   20.7210 C.ar    1  UNL1        0.0188
      6 C          -7.2449  -19.9815   20.4652 C.ar    1  UNL1        0.0986
      7 N          -5.9204  -19.8920   21.1636 N.ar    1  UNL1       -0.2439
      8 C          -5.6501  -18.7667   22.1178 C.ar    1  UNL1        0.0813
      9 C          -4.3257  -18.6772   22.8162 C.ar    1  UNL1        0.0222
     10 C          -4.0554  -17.5519   23.7703 C.ar    1  UNL1        0.0384
     11 C          -5.1096  -16.5159   24.0261 C.ar    1  UNL1        0.1388
     12 C          -6.4341  -16.6053   23.3278 C.ar    1  UNL1        0.0382
     13 C          -6.7044  -17.7308   22.3736 C.ar    1  UNL1        0.0190
     14 O          -4.8394  -15.3905   24.9803 O.3     1  UNL1       -0.4714
     15 C          -5.7307  -15.1847   26.1691 C.3     1  UNL1        0.2525
     16 C         -13.0008  -17.9743   23.7979 C.3     1  UNL1        0.0381
     17 C         -12.9823  -17.0402   22.6243 C.3     1  UNL1        0.0765
     18 N         -11.6764  -16.6436   22.0020 N.3     1  UNL1       -0.2712
     19 C         -10.3890  -17.1809   22.5533 C.3     1  UNL1        0.0722
     20 C         -10.4075  -18.1149   23.7269 C.3     1  UNL1        0.0177
     21 C         -11.7134  -18.5116   24.3492 C.3     1  UNL1        0.0082
     22 C         -11.0083  -17.8642   23.4696 C.3     1  UNL1        0.0192
     23 C         -10.9984  -17.3660   22.8437 C.3     1  UNL1        0.0888
     24 C         -14.4236  -18.4827   25.9114 C.2     1  UNL1       -0.0049
     25 C         -14.3067  -18.3709   24.4202 C.2     1  UNL1       -0.0251
@<TRIPOS>BOND
     1    24    25    2
     2    16    25    1
     3    16    17    1
     4    17    18    1
     5    18    19    1
     6    19    20    1
     7    20    21    1
     8    21    22    1
     9    22    23    1
    10    23     1    1
    11     1     2    1
    12     1     4    1
    13     4     5   ar
    14     5     6   ar
    15     6     7   ar
    16     7     8   ar
    17     8     9   ar
    18     9    10   ar
    19    10    11   ar
    20    11    14    1
    21    14    15    1
    22    11    12   ar
    23    12    13   ar
    24    21    16    1
    25    13     4   ar
    26    23    18    1
    27    13     8   ar
    28     2     3    1
@<TRIPOS>MOLECULE
*****
 25 28 0 0 0
SMALL
GASTEIGER

@<TRIPOS>ATOM
      1 C          -6.4974  -19.8924   21.6675 C.3     1  UNL1        0.1473
      2 O          -6.5651  -21.0550   22.6129 O.3     1  UNL1       -0.3787
      3 H          -7.4831  -21.3599   22.6853 H       1  UNL1        0.2108
      4 C          -7.7469  -19.3882   21.0081 C.ar    1  UNL1        0.0087
      5 C          -8.0970  -19.8389   19.6209 C.ar    1  UNL1        0.0188
      6 C          -9.3464  -19.3347   18.9616 C.ar    1  UNL1        0.0986
      7 N         -10.2456  -18.3799   19.6894 N.ar    1  UNL1       -0.2439
      8 C          -9.8955  -17.9293   21.0765 C.ar    1  UNL1        0.0813
      9 C         -10.7947  -16.9745   21.8044 C.ar    1  UNL1        0.0222
     10 C         -10.4446  -16.5238   23.1915 C.ar    1  UNL1        0.0384
     11 C          -9.1952  -17.0280   23.8510 C.ar    1  UNL1        0.1388
     12 C          -8.2959  -17.9828   23.1231 C.ar    1  UNL1        0.0382
     13 C          -8.6461  -18.4334   21.7359 C.ar    1  UNL1        0.0190
     14 O          -8.8450  -16.5774   25.2381 O.3     1  UNL1       -0.4714
     15 C          -7.8491  -15.4739   25.4393 C.3     1  UNL1        0.2525
     16 C          -2.5463  -17.9171   20.8094 C.3     1  UNL1        0.0381
     17 C          -3.2511  -17.6522   22.1068 C.3     1  UNL1        0.0765
     18 N          -4.5682  -18.3107   22.3928 N.3     1  UNL1       -0.2712
     19 C          -5.1804  -19.2340   21.3815 C.3     1  UNL1        0.0722
     20 C          -4.4755  -19.4988   20.0842 C.3     1  UNL1        0.0177
     21 C          -3.1585  -18.8404   19.7981 C.3     1  UNL1        0.0082
     22 C          -4.1898  -19.0680   20.5561 C.3     1  UNL1        0.0192
     23 C          -4.5658  -18.9267   21.2480 C.3     1  UNL1        0.0888
     24 C          -0.1846  -17.9848   19.7287 C.2     1  UNL1       -0.0049
     25 C          -1.2292  -17.2587   20.5234 C.2     1  UNL1       -0.0251
@<TRIPOS>BOND
     1    24    25    2
     2    16    25    1
     3    16    17    1
     4    17    18    1
     5    18    19    1
     6    19    20    1
     7    20    21    1
     8    21    22    1
     9    22    23    1
    10    23     1    1
    11     1     2    1
    12     1     4    1
    13     4     5   ar
    14     5     6   ar
    15     6     7   ar
    16     7     8   ar
    17     8     9   ar
    18     9    10   ar
    19    10    11   ar
    20    11    14    1
    21    14    15    1
    22    11    12   ar
    23    12    13   ar
    24    21    16    1
    25    13     4   ar
    26    23    18    1
    27    13     8   ar
    28     2     3    1
@<TRIPOS>MOLECULE
*****
 25 28 0 0 0
SMALL
GASTEIGER

@<TRIPOS>ATOM
      1 C         -10.6411  -18.5546   24.4228 C.3     1  UNL1        0.1473
      2 O         -11.2361  -19.6843   25.2101 O.3     1  UNL1       -0.3787
      3 H         -11.8558  -20.1776   24.6501 H       1  UNL1        0.2108
      4 C         -11.0417  -18.3445   22.9926 C.ar    1  UNL1        0.0087
      5 C         -12.3637  -17.7141   22.6689 C.ar    1  UNL1        0.0188
      6 C         -12.7643  -17.5040   21.2388 C.ar    1  UNL1        0.0986
      7 N         -11.8428  -17.9243   20.1323 N.ar    1  UNL1       -0.2439
      8 C         -10.5208  -18.5547   20.4560 C.ar    1  UNL1        0.0813
      9 C          -9.5993  -18.9750   19.3496 C.ar    1  UNL1        0.0222
     10 C          -8.2773  -19.6054   19.6733 C.ar    1  UNL1        0.0384
     11 C          -7.8767  -19.8156   21.1035 C.ar    1  UNL1        0.1388
     12 C          -8.7982  -19.3953   22.2100 C.ar    1  UNL1        0.0382
     13 C         -10.1203  -18.7648   21.8862 C.ar    1  UNL1        0.0190
     14 O          -6.5547  -20.4460   21.4272 O.3     1  UNL1       -0.4714
     15 C          -5.4671  -19.6267   22.0566 C.3     1  UNL1        0.2525
     16 C          -7.6545  -15.7959   26.3514 C.3     1  UNL1        0.0381
     17 C          -8.2147  -16.9531   27.1242 C.3     1  UNL1        0.0765
     18 N          -9.2102  -17.8727   26.4814 N.3     1  UNL1       -0.2712
     19 C          -9.6456  -17.6351   25.0657 C.3     1  UNL1        0.0722
     20 C          -9.0855  -16.4779   24.2930 C.3     1  UNL1        0.0177
     21 C          -8.0899  -15.5583   24.9358 C.3     1  UNL1        0.0082
     22 C          -8.8823  -16.5888   24.9536 C.3     1  UNL1        0.0192
     23 C          -9.1810  -17.2059   25.3657 C.3     1  UNL1        0.0888
     24 C          -5.2860  -14.7296   26.4083 C.2     1  UNL1       -0.0049
     25 C          -6.6590  -14.8763   26.9943 C.2     1  UNL1       -0.0251
@<TRIPOS>BOND
     1    24    25    2
     2    16    25    1
     3    16    17    1
     4    17    18    1
     5    18    19    1
     6    19    20    1
     7    20    21    1
     8    21    22    1
     9    22    23    1
    10    23     1    1
    11     1     2    1
    12     1     4    1
    13     4     5   ar
    14     5     6   ar
    15     6     7   ar
    16     7     8   ar
    17     8     9   ar
    18     9    10   ar
    19    10    11   ar
    20    11    14    1
    21    14    15    1
    22    11    12   ar
    23    12    13   ar
    24    21    16    1
    25    13     4   ar
    26    23    18    1
    27    13     8   ar
    28     2     3    1
@<TRIPOS>MOLECULE
*****
 25 28 0 0 0
SMALL
GASTEIGER

@<TRIPOS>ATOM
      1 C          -9.0419  -17.5393   21.6638 C.3     1  UNL1        0.1473
      2 O          -8.2454  -16.2825   21.8533 O.3     1  UNL1       -0.3787
      3 H          -7.4244  -16.3395   21.3399 H       1  UNL1        0.2108
      4 C          -8.5178  -18.6336   20.7817 C.ar    1  UNL1        0.0087
      5 C          -9.3947  -19.2238   19.7175 C.ar    1  UNL1        0.0188
      6 C          -8.8705  -20.3180   18.8355 C.ar    1  UNL1        0.0986
      7 N          -7.4695  -20.8220   19.0177 N.ar    1  UNL1       -0.2439
      8 C          -6.5926  -20.2318   20.0819 C.ar    1  UNL1        0.0813
      9 C          -5.1916  -20.7357   20.2642 C.ar    1  UNL1        0.0222
     10 C          -4.3148  -20.1455   21.3284 C.ar    1  UNL1        0.0384
     11 C          -4.8389  -19.0512   22.2105 C.ar    1  UNL1        0.1388
     12 C          -6.2399  -18.5473   22.0282 C.ar    1  UNL1        0.0382
     13 C          -7.1168  -19.1376   20.9639 C.ar    1  UNL1        0.0190
     14 O          -3.9620  -18.4610   23.2747 O.3     1  UNL1       -0.4714
     15 C          -2.9156  -17.4504   22.9091 C.3     1  UNL1        0.2525
     16 C         -13.0036  -18.0273   23.7413 C.3     1  UNL1        0.0381
     17 C         -12.9280  -17.2990   22.4321 C.3     1  UNL1        0.0765
     18 N         -11.6074  -17.1364   21.7396 N.3     1  UNL1       -0.2712
     19 C         -10.3625  -17.7020   22.3563 C.3     1  UNL1        0.0722
     20 C         -10.4381  -18.4301   23.6655 C.3     1  UNL1        0.0177
     21 C         -11.7587  -18.5928   24.3580 C.3     1  UNL1        0.0082
     22 C         -11.0191  -18.1662   23.3777 C.3     1  UNL1        0.0192
     23 C         -10.9787  -17.7779   22.6795 C.3     1  UNL1        0.0888
     24 C         -14.3688  -18.4950   25.9018 C.2     1  UNL1       -0.0049
     25 C         -14.3242  -18.1899   24.4339 C.2     1  UNL1       -0.0251
@<TRIPOS>BOND
     1    24    25    2
     2    16    25    1
     3    16    17    1
     4    17    18    1
     5    18    19    1
     6    19    20    1
     7    20    21    1
     8    21    22    1
     9    22    23    1
    10    23     1    1
    11     1     2    1
    12     1     4    1
    13     4     5   ar
    14     5     6   ar
    15     6     7   ar
    16     7     8   ar
    17     8     9   ar
    18     9    10   ar
    19    10    11   ar
    20    11    14    1
    21    14    15    1
    22    11    12   ar
    23    12    13   ar
    24    21    16    1
    25    13     4   ar
    26    23    18    1
    27    13     8   ar
    28     2     3    1
@<TRIPOS>MOLECULE
*****
 25 28 0 0 0
SMALL
GASTEIGER

@<TRIPOS>ATOM
      1 C          -7.8334  -15.9934   22.6786 C.3     1  UNL1        0.1473
      2 O          -7.6353  -14.5542   22.3052 O.3     1  UNL1       -0.3787
      3 H          -6.6879  -14.3752   22.1991 H       1  UNL1        0.2108
      4 C          -6.6474  -16.8993   22.8290 C.ar    1  UNL1        0.0087
      5 C          -5.5765  -16.5733   23.8274 C.ar    1  UNL1        0.0188
      6 C          -4.3905  -17.4793   23.9778 C.ar    1  UNL1        0.0986
      7 N          -4.2754  -18.7112   23.1298 N.ar    1  UNL1       -0.2439
      8 C          -5.3463  -19.0372   22.1314 C.ar    1  UNL1        0.0813
      9 C          -5.2312  -20.2691   21.2835 C.ar    1  UNL1        0.0222
     10 C          -6.3021  -20.5951   20.2850 C.ar    1  UNL1        0.0384
     11 C          -7.4882  -19.6892   20.1346 C.ar    1  UNL1        0.1388
     12 C          -7.6033  -18.4572   20.9826 C.ar    1  UNL1        0.0382
     13 C          -6.5323  -18.1313   21.9810 C.ar    1  UNL1        0.0190
     14 O          -8.5591  -20.0152   19.1362 O.3     1  UNL1       -0.4714
     15 C          -9.9788  -19.6090   19.3996 C.3     1  UNL1        0.2525
     16 C         -11.9859  -17.5932   23.3476 C.3     1  UNL1        0.0381
     17 C         -11.7023  -16.7141   22.1658 C.3     1  UNL1        0.0765
     18 N         -10.3181  -16.1808   21.9428 N.3     1  UNL1       -0.2712
     19 C          -9.2176  -16.5267   22.9016 C.3     1  UNL1        0.0722
     20 C          -9.5013  -17.4058   24.0834 C.3     1  UNL1        0.0177
     21 C         -10.8854  -17.9390   24.3064 C.3     1  UNL1        0.0082
     22 C         -10.0148  -17.2444   23.6360 C.3     1  UNL1        0.0192
     23 C          -9.8635  -16.7755   23.0057 C.3     1  UNL1        0.0888
     24 C         -13.8570  -18.3892   24.9648 C.2     1  UNL1       -0.0049
     25 C         -13.3700  -18.1265   23.5706 C.2     1  UNL1       -0.0251
@<TRIPOS>BOND
     1    24    25    2
     2    16    25    1
     3    16    17    1
     4    17    18    1
     5    18    19    1
     6    19    20    1
     7    20    21    1
     8    21    22    1
     9    22    23    1
    10    23     1    1
    11     1     2    1
    12     1     4    1
    13     4     5   ar
    14     5     6   ar
    15     6     7   ar
    16     7     8   ar
    17     8     9   ar
    18     9    10   ar
    19    10    11   ar
    20    11    14    1
    21    14    15    1
    22    11    12   ar
    23    12    13   ar
    24    21    16    1
    25    13     4   ar
    26    23    18    1
    27    13     8   ar
    28     2     3    1
@<TRIPOS>MOLECULE
*****
 25 28 0 0 0
SMALL
GASTEIGER

@<TRIPOS>ATOM
      1 C          -8.4315  -18.9502   21.0246 C.3     1  UNL1        0.1473
      2 O          -9.1863  -18.7233   19.7484 O.3     1  UNL1       -0.3787
      3 H         -10.1272  -18.5967   19.9474 H       1  UNL1        0.2108
      4 C          -9.1594  -18.9532   22.3362 C.ar    1  UNL1        0.0087
      5 C         -10.2143  -19.9848   22.6061 C.ar    1  UNL1        0.0188
      6 C         -10.9422  -19.9878   23.9176 C.ar    1  UNL1        0.0986
      7 N         -10.6151  -18.9592   24.9592 N.ar    1  UNL1       -0.2439
      8 C          -9.5601  -17.9276   24.6893 C.ar    1  UNL1        0.0813
      9 C          -9.2330  -16.8990   25.7310 C.ar    1  UNL1        0.0222
     10 C          -8.1780  -15.8675   25.4611 C.ar    1  UNL1        0.0384
     11 C          -7.4501  -15.8645   24.1495 C.ar    1  UNL1        0.1388
     12 C          -7.7772  -16.8931   23.1078 C.ar    1  UNL1        0.0382
     13 C          -8.8323  -17.9247   23.3778 C.ar    1  UNL1        0.0190
     14 O          -6.3952  -14.8329   23.8796 O.3     1  UNL1       -0.4714
     15 C          -4.9585  -15.2449   23.7523 C.3     1  UNL1        0.2525
     16 C          -3.9831  -19.6218   20.9186 C.3     1  UNL1        0.0381
     17 C          -4.6428  -18.7978   19.8528 C.3     1  UNL1        0.0765
     18 N          -6.1256  -18.5739   19.8881 N.3     1  UNL1       -0.2712
     19 C          -6.9487  -19.1741   20.9892 C.3     1  UNL1        0.0722
     20 C          -6.2890  -19.9981   22.0549 C.3     1  UNL1        0.0177
     21 C          -4.8062  -20.2220   22.0196 C.3     1  UNL1        0.0082
     22 C          -5.9049  -19.7180   21.5411 C.3     1  UNL1        0.0192
     23 C          -6.2567  -19.2786   20.9727 C.3     1  UNL1        0.0888
     24 C          -1.5992  -18.8078   20.2827 C.2     1  UNL1       -0.0049
     25 C          -2.5003  -19.8457   20.8832 C.2     1  UNL1       -0.0251
@<TRIPOS>BOND
     1    24    25    2
     2    16    25    1
     3    16    17    1
     4    17    18    1
     5    18    19    1
     6    19    20    1
     7    20    21    1
     8    21    22    1
     9    22    23    1
    10    23     1    1
    11     1     2    1
    12     1     4    1
    13     4     5   ar
    14     5     6   ar
    15     6     7   ar
    16     7     8   ar
    17     8     9   ar
    18     9    10   ar
    19    10    11   ar
    20    11    14    1
    21    14    15    1
    22    11    12   ar
    23    12    13   ar
    24    21    16    1
    25    13     4   ar
    26    23    18    1
    27    13     8   ar
    28     2     3    1
@<TRIPOS>MOLECULE
*****
 25 28 0 0 0
SMALL
GASTEIGER

@<TRIPOS>ATOM
      1 C          -7.6731  -19.8620   22.2434 C.3     1  UNL1        0.1473
      2 O          -7.9683  -20.7804   23.3920 O.3     1  UNL1       -0.3787
      3 H          -7.1735  -21.2924   23.6090 H       1  UNL1        0.2108
      4 C          -6.3062  -19.8489   21.6257 C.ar    1  UNL1        0.0087
      5 C          -5.9548  -20.8450   20.5607 C.ar    1  UNL1        0.0188
      6 C          -4.5880  -20.8318   19.9430 C.ar    1  UNL1        0.0986
      7 N          -3.5725  -19.8226   20.3904 N.ar    1  UNL1       -0.2439
      8 C          -3.9238  -18.8265   21.4554 C.ar    1  UNL1        0.0813
      9 C          -2.9083  -17.8172   21.9028 C.ar    1  UNL1        0.0222
     10 C          -3.2596  -16.8211   22.9678 C.ar    1  UNL1        0.0384
     11 C          -4.6265  -16.8342   23.5855 C.ar    1  UNL1        0.1388
     12 C          -5.6420  -17.8435   23.1381 C.ar    1  UNL1        0.0382
     13 C          -5.2906  -18.8396   22.0730 C.ar    1  UNL1        0.0190
     14 O          -4.9779  -15.8381   24.6505 O.3     1  UNL1       -0.4714
     15 C          -6.4100  -15.4515   24.8728 C.3     1  UNL1        0.2525
     16 C         -10.8880  -17.1460   20.6504 C.3     1  UNL1        0.0381
     17 C         -10.1981  -16.8152   21.9406 C.3     1  UNL1        0.0765
     18 N          -9.1265  -17.7205   22.4716 N.3     1  UNL1       -0.2712
     19 C          -8.7447  -18.9566   21.7124 C.3     1  UNL1        0.0722
     20 C          -9.4346  -19.2874   20.4222 C.3     1  UNL1        0.0177
     21 C         -10.5063  -18.3820   19.8912 C.3     1  UNL1        0.0082
     22 C          -9.6128  -18.7105   20.7765 C.3     1  UNL1        0.0192
     23 C          -9.2448  -18.5342   21.4646 C.3     1  UNL1        0.0888
     24 C         -11.6983  -15.4016   18.9038 C.2     1  UNL1       -0.0049
     25 C         -11.9597  -16.2407   20.1194 C.2     1  UNL1       -0.0251
@<TRIPOS>BOND
     1    24    25    2
     2    16    25    1
     3    16    17    1
     4    17    18    1
     5    18    19    1
     6    19    20    1
     7    20    21    1
     8    21    22    1
     9    22    23    1
    10    23     1    1
    11     1     2    1
    12     1     4    1
    13     4     5   ar
    14     5     6   ar
    15     6     7   ar
    16     7     8   ar
    17     8     9   ar
    18     9    10   ar
    19    10    11   ar
    20    11    14    1
    21    14    15    1
    22    11    12   ar
    23    12    13   ar
    24    21    16    1
    25    13     4   ar
    26    23    18    1
    27    13     8   ar
    28     2     3    1
@<TRIPOS>MOLECULE
*****
 25 28 0 0 0
SMALL
GASTEIGER

@<TRIPOS>ATOM
      1 C         -14.0896   -3.5392   20.2619 C.3     1  UNL1        0.1473
      2 O         -13.8693   -3.1716   21.6993 O.3     1  UNL1       -0.3787
      3 H         -13.2264   -2.4473   21.7529 H       1  UNL1        0.2108
      4 C         -13.3540   -2.8067   19.1791 C.ar    1  UNL1        0.0087
      5 C         -13.9231   -1.5410   18.6098 C.ar    1  UNL1        0.0188
      6 C         -13.1875   -0.8085   17.5270 C.ar    1  UNL1        0.0986
      7 N         -11.8828   -1.3417   17.0137 N.ar    1  UNL1       -0.2439
      8 C         -11.3137   -2.6073   17.5831 C.ar    1  UNL1        0.0813
      9 C         -10.0090   -3.1404   17.0698 C.ar    1  UNL1        0.0222
     10 C          -9.4399   -4.4061   17.6391 C.ar    1  UNL1        0.0384
     11 C         -10.1755   -5.1387   18.7219 C.ar    1  UNL1        0.1388
     12 C         -11.4802   -4.6055   19.2352 C.ar    1  UNL1        0.0382
     13 C         -12.0493   -3.3398   18.6658 C.ar    1  UNL1        0.0190
     14 O          -9.6064   -6.4043   19.2913 O.3     1  UNL1       -0.4714
     15 C          -9.6622   -7.6756   18.4971 C.3     1  UNL1        0.2525
     16 C         -16.9574   -6.8397   19.1976 C.3     1  UNL1        0.0381
     17 C         -15.4951   -7.1371   19.3508 C.3     1  UNL1        0.0765
     18 N         -14.5392   -6.0369   19.7055 N.3     1  UNL1       -0.2712
     19 C         -15.0456   -4.6394   19.9071 C.3     1  UNL1        0.0722
     20 C         -16.5078   -4.3421   19.7540 C.3     1  UNL1        0.0177
     21 C         -17.4637   -5.4422   19.3992 C.3     1  UNL1        0.0082
     22 C         -16.2715   -4.9942   19.6599 C.3     1  UNL1        0.0192
     23 C         -15.4917   -5.1528   19.7416 C.3     1  UNL1        0.0888
     24 C         -18.0177   -9.1539   19.7176 C.2     1  UNL1       -0.0049
     25 C         -17.9133   -7.9399   18.8428 C.2     1  UNL1       -0.0251
@<TRIPOS>BOND
     1    24    25    2
     2    16    25    1
     3    16    17    1
     4    17    18    1
     5    18    19    1
     6    19    20    1
     7    20    21    1
     8    21    22    1
     9    22    23    1
    10    23     1    1
    11     1     2    1
    12     1     4    1
    13     4     5   ar
    14     5     6   ar
    15     6     7   ar
    16     7     8   ar
    17     8     9   ar
    18     9    10   ar
    19    10    11   ar
    20    11    14    1
    21    14    15    1
    22    11    12   ar
    23    12    13   ar
    24    21    16    1
    25    13     4   ar
    26    23    18    1
    27    13     8   ar
    28     2     3    1
