@<TRIPOS>MOLECULE
*****
 29 33 0 0 0
SMALL
GASTEIGER

@<TRIPOS>ATOM
      1 O           4.3337   -0.9095   16.3510 O.2     1  UNL1       -0.2911
      2 C           3.7165   -0.8998   17.7182 C.2     1  UNL1        0.1795
      3 C           2.6159    0.0681   18.0373 C.3     1  UNL1        0.1092
      4 C           1.9988    0.0779   19.4045 C.3     1  UNL1        0.1436
      5 C           1.3817    0.0876   20.7716 C.3     1  UNL1        0.0620
      6 C           0.2811    1.0555   21.0908 C.3     1  UNL1        0.0985
      7 N          -0.2024    2.0136   20.0428 N.am    1  UNL1       -0.2640
      8 C          -1.3031    2.9815   20.3620 C.2     1  UNL1        0.3039
      9 O          -1.7866    3.9396   19.3140 O.2     1  UNL1       -0.2526
     10 N          -1.9202    2.9912   21.7291 N.am    1  UNL1       -0.2901
     11 C           0.4147    2.0038   18.6757 C.3     1  UNL1        0.0985
     12 C           1.5153    1.0360   18.3565 C.3     1  UNL1        0.0620
     13 O           2.4823   -0.8802   20.4525 O.3     1  UNL1       -0.4819
     14 C           3.5830   -1.8481   20.1333 C.ar    1  UNL1        0.1409
     15 C           4.0665   -2.8062   21.1813 C.ar    1  UNL1        0.0370
     16 C           5.1671   -3.7741   20.8621 C.ar    1  UNL1        0.0031
     17 C           5.7842   -3.7838   19.4949 C.ar    1  UNL1        0.0003
     18 C           5.3007   -2.8257   18.4470 C.ar    1  UNL1        0.0059
     19 C           4.2000   -1.8579   18.7662 C.ar    1  UNL1        0.0687
     20 H          -1.6028    2.3624   22.4169 H       1  UNL1        0.1509
     21 C          -3.0208    3.9591   22.0483 C.3     1  UNL1        0.0774
     22 C          -3.6193    4.9925   22.9560 C.3     1  UNL1        0.0259
     23 C          -4.3288    4.6021   21.6934 C.3     1  UNL1        0.0420
     24 C          -5.4935    4.7480   20.7596 C.ar    1  UNL1       -0.0208
     25 C          -5.6891    3.7633   19.6450 C.ar    1  UNL1       -0.0042
     26 C          -6.8538    3.9091   18.7112 C.ar    1  UNL1       -0.0003
     27 C          -7.8230    5.0397   18.8918 C.ar    1  UNL1       -0.0000
     28 C          -7.6274    6.0244   20.0063 C.ar    1  UNL1       -0.0003
     29 C          -6.4626    5.8785   20.9402 C.ar    1  UNL1       -0.0042
@<TRIPOS>BOND
     1     1     2    2
     2     2     3    1
     3     3     4    1
     4     4     5    1
     5     5     6    1
     6     6     7    1
     7     7     8   am
     8     8     9    2
     9     8    10   am
    10    21    10    1
    11    21    22    1
    12    22    23    1
    13    23    24    1
    14    24    25   ar
    15    25    26   ar
    16    26    27   ar
    17    27    28   ar
    18    28    29   ar
    19     7    11    1
    20    11    12    1
    21     4    13    1
    22    13    14    1
    23    14    15   ar
    24    15    16   ar
    25    16    17   ar
    26    17    18   ar
    27    18    19   ar
    28    19     2    1
    29    12     4    1
    30    19    14   ar
    31    23    21    1
    32    29    24   ar
    33    10    20    1
@<TRIPOS>MOLECULE
*****
 29 33 0 0 0
SMALL
GASTEIGER

@<TRIPOS>ATOM
      1 O           4.6379   -0.6938   16.3982 O.2     1  UNL1       -0.2911
      2 C           3.9026   -0.7785   17.7029 C.2     1  UNL1        0.1795
      3 C           2.7972    0.1893   18.0051 C.3     1  UNL1        0.1092
      4 C           2.0620    0.1046   19.3098 C.3     1  UNL1        0.1436
      5 C           1.3267    0.0198   20.6145 C.3     1  UNL1        0.0620
      6 C           0.2213    0.9876   20.9167 C.3     1  UNL1        0.0985
      7 N          -0.1488    2.0402   19.9142 N.am    1  UNL1       -0.2640
      8 C          -1.2543    3.0081   20.2165 C.2     1  UNL1        0.3039
      9 O          -1.6245    4.0607   19.2140 O.2     1  UNL1       -0.2526
     10 N          -1.9895    2.9233   21.5211 N.am    1  UNL1       -0.2901
     11 C           0.5864    2.1250   18.6095 C.3     1  UNL1        0.0985
     12 C           1.6918    1.1572   18.3073 C.3     1  UNL1        0.0620
     13 O           2.4321   -0.9481   20.3123 O.3     1  UNL1       -0.4819
     14 C           3.5376   -1.9159   20.0101 C.ar    1  UNL1        0.1409
     15 C           3.9078   -2.9685   21.0125 C.ar    1  UNL1        0.0370
     16 C           5.0132   -3.9364   20.7104 C.ar    1  UNL1        0.0031
     17 C           5.7484   -3.8516   19.4056 C.ar    1  UNL1        0.0003
     18 C           5.3783   -2.7990   18.4031 C.ar    1  UNL1        0.0059
     19 C           4.2728   -1.8311   18.7054 C.ar    1  UNL1        0.0687
     20 H          -1.7465    2.2324   22.1791 H       1  UNL1        0.1509
     21 C          -3.0950    3.8911   21.8234 C.3     1  UNL1        0.0774
     22 C          -4.1087    4.8928   21.3553 C.3     1  UNL1        0.0259
     23 C          -3.9959    4.5658   22.8149 C.3     1  UNL1        0.0420
     24 C          -4.4509    4.7666   24.2300 C.ar    1  UNL1       -0.0208
     25 C          -5.5481    5.7433   24.5336 C.ar    1  UNL1       -0.0042
     26 C          -6.0031    5.9441   25.9488 C.ar    1  UNL1       -0.0003
     27 C          -5.3609    5.1681   27.0603 C.ar    1  UNL1       -0.0000
     28 C          -4.2637    4.1914   26.7567 C.ar    1  UNL1       -0.0003
     29 C          -3.8087    3.9907   25.3415 C.ar    1  UNL1       -0.0042
@<TRIPOS>BOND
     1     1     2    2
     2     2     3    1
     3     3     4    1
     4     4     5    1
     5     5     6    1
     6     6     7    1
     7     7     8   am
     8     8     9    2
     9     8    10   am
    10    21    10    1
    11    21    22    1
    12    22    23    1
    13    23    24    1
    14    24    25   ar
    15    25    26   ar
    16    26    27   ar
    17    27    28   ar
    18    28    29   ar
    19     7    11    1
    20    11    12    1
    21     4    13    1
    22    13    14    1
    23    14    15   ar
    24    15    16   ar
    25    16    17   ar
    26    17    18   ar
    27    18    19   ar
    28    19     2    1
    29    12     4    1
    30    19    14   ar
    31    23    21    1
    32    29    24   ar
    33    10    20    1
@<TRIPOS>MOLECULE
*****
 29 33 0 0 0
SMALL
GASTEIGER

@<TRIPOS>ATOM
      1 O           0.8755    0.5749   18.2332 O.2     1  UNL1       -0.2911
      2 C           1.2094    0.4983   19.6936 C.2     1  UNL1        0.1795
      3 C           2.2047   -0.5113   20.1835 C.3     1  UNL1        0.1092
      4 C           2.5386   -0.5879   21.6439 C.3     1  UNL1        0.1436
      5 C           2.8724   -0.6645   23.1042 C.3     1  UNL1        0.0620
      6 C           3.8676   -1.6742   23.5941 C.3     1  UNL1        0.0985
      7 N           4.5290   -2.6073   22.6236 N.am    1  UNL1       -0.2640
      8 C           5.5243   -3.6170   23.1135 C.2     1  UNL1        0.3039
      9 O           6.1857   -4.5502   22.1430 O.2     1  UNL1       -0.2526
     10 N           5.8582   -3.6936   24.5739 N.am    1  UNL1       -0.2901
     11 C           4.1952   -2.5308   21.1633 C.3     1  UNL1        0.0985
     12 C           3.1999   -1.5211   20.6734 C.3     1  UNL1        0.0620
     13 O           1.8772    0.3452   22.6144 O.3     1  UNL1       -0.4819
     14 C           0.8819    1.3549   22.1244 C.ar    1  UNL1        0.1409
     15 C           0.2205    2.2881   23.0949 C.ar    1  UNL1        0.0370
     16 C          -0.7747    3.2977   22.6051 C.ar    1  UNL1        0.0031
     17 C          -1.1086    3.3743   21.1446 C.ar    1  UNL1        0.0003
     18 C          -0.4472    2.4412   20.1742 C.ar    1  UNL1        0.0059
     19 C           0.5481    1.4315   20.6641 C.ar    1  UNL1        0.0687
     20 H           5.4241   -3.0811   25.2108 H       1  UNL1        0.1509
     21 C           6.8534   -4.7033   25.0638 C.3     1  UNL1        0.0774
     22 C           7.9124   -5.7270   24.7800 C.3     1  UNL1        0.0259
     23 C           7.5183   -5.4284   26.1961 C.3     1  UNL1        0.0420
     24 C           7.6745   -5.6747   27.6675 C.ar    1  UNL1       -0.0208
     25 C           6.6967   -5.0780   28.6358 C.ar    1  UNL1       -0.0042
     26 C           6.8529   -5.3242   30.1071 C.ar    1  UNL1       -0.0003
     27 C           7.9871   -6.1673   30.6102 C.ar    1  UNL1       -0.0000
     28 C           8.9650   -6.7640   29.6419 C.ar    1  UNL1       -0.0003
     29 C           8.8087   -6.5177   28.1705 C.ar    1  UNL1       -0.0042
@<TRIPOS>BOND
     1     1     2    2
     2     2     3    1
     3     3     4    1
     4     4     5    1
     5     5     6    1
     6     6     7    1
     7     7     8   am
     8     8     9    2
     9     8    10   am
    10    21    10    1
    11    21    22    1
    12    22    23    1
    13    23    24    1
    14    24    25   ar
    15    25    26   ar
    16    26    27   ar
    17    27    28   ar
    18    28    29   ar
    19     7    11    1
    20    11    12    1
    21     4    13    1
    22    13    14    1
    23    14    15   ar
    24    15    16   ar
    25    16    17   ar
    26    17    18   ar
    27    18    19   ar
    28    19     2    1
    29    12     4    1
    30    19    14   ar
    31    23    21    1
    32    29    24   ar
    33    10    20    1
@<TRIPOS>MOLECULE
*****
 29 33 0 0 0
SMALL
GASTEIGER

@<TRIPOS>ATOM
      1 O           5.0682   -1.6643   17.4023 O.2     1  UNL1       -0.2911
      2 C           4.5248   -1.6165   18.7996 C.2     1  UNL1        0.1795
      3 C           5.2381   -2.3347   19.9066 C.3     1  UNL1        0.1092
      4 C           4.6947   -2.2868   21.3040 C.3     1  UNL1        0.1436
      5 C           4.1514   -2.2390   22.7013 C.3     1  UNL1        0.0620
      6 C           4.8646   -2.9572   23.8083 C.3     1  UNL1        0.0985
      7 N           6.1211   -3.7232   23.5180 N.am    1  UNL1       -0.2640
      8 C           6.8344   -4.4415   24.6251 C.2     1  UNL1        0.3039
      9 O           8.0909   -5.2075   24.3348 O.2     1  UNL1       -0.2526
     10 N           6.2910   -4.3936   26.0223 N.am    1  UNL1       -0.2901
     11 C           6.6645   -3.7711   22.1207 C.3     1  UNL1        0.0985
     12 C           5.9513   -3.0529   21.0137 C.3     1  UNL1        0.0620
     13 O           3.4382   -1.5208   21.5943 O.3     1  UNL1       -0.4819
     14 C           2.7249   -0.8026   20.4872 C.ar    1  UNL1        0.1409
     15 C           1.4684   -0.0366   20.7775 C.ar    1  UNL1        0.0370
     16 C           0.7552    0.6816   19.6705 C.ar    1  UNL1        0.0031
     17 C           1.2985    0.6338   18.2731 C.ar    1  UNL1        0.0003
     18 C           2.5551   -0.1322   17.9828 C.ar    1  UNL1        0.0059
     19 C           3.2683   -0.8504   19.0899 C.ar    1  UNL1        0.0687
     20 H           5.4663   -3.8909   26.2129 H       1  UNL1        0.1509
     21 C           7.0042   -5.1118   27.1294 C.3     1  UNL1        0.0774
     22 C           7.6739   -6.3457   27.6576 C.3     1  UNL1        0.0259
     23 C           7.5699   -5.1219   28.5187 C.3     1  UNL1        0.0420
     24 C           7.8363   -4.4211   29.8178 C.ar    1  UNL1       -0.0208
     25 C           6.6913   -3.9664   30.6734 C.ar    1  UNL1       -0.0042
     26 C           6.9577   -3.2656   31.9725 C.ar    1  UNL1       -0.0003
     27 C           8.3694   -3.0196   32.4162 C.ar    1  UNL1       -0.0000
     28 C           9.5145   -3.4743   31.5606 C.ar    1  UNL1       -0.0003
     29 C           9.2479   -4.1751   30.2614 C.ar    1  UNL1       -0.0042
@<TRIPOS>BOND
     1     1     2    2
     2     2     3    1
     3     3     4    1
     4     4     5    1
     5     5     6    1
     6     6     7    1
     7     7     8   am
     8     8     9    2
     9     8    10   am
    10    21    10    1
    11    21    22    1
    12    22    23    1
    13    23    24    1
    14    24    25   ar
    15    25    26   ar
    16    26    27   ar
    17    27    28   ar
    18    28    29   ar
    19     7    11    1
    20    11    12    1
    21     4    13    1
    22    13    14    1
    23    14    15   ar
    24    15    16   ar
    25    16    17   ar
    26    17    18   ar
    27    18    19   ar
    28    19     2    1
    29    12     4    1
    30    19    14   ar
    31    23    21    1
    32    29    24   ar
    33    10    20    1
@<TRIPOS>MOLECULE
*****
 29 33 0 0 0
SMALL
GASTEIGER

@<TRIPOS>ATOM
      1 O           6.7595   -2.0767   17.4900 O.2     1  UNL1       -0.2911
      2 C           5.8577   -1.8889   18.6738 C.2     1  UNL1        0.1795
      3 C           4.6607   -0.9908   18.5698 C.3     1  UNL1        0.1092
      4 C           3.7589   -0.8030   19.7537 C.3     1  UNL1        0.1436
      5 C           2.8571   -0.6151   20.9375 C.3     1  UNL1        0.0620
      6 C           1.6602    0.2829   20.8335 C.3     1  UNL1        0.0985
      7 N           1.3650    0.9931   19.5456 N.am    1  UNL1       -0.2640
      8 C           0.1680    1.8912   19.4417 C.2     1  UNL1        0.3039
      9 O          -0.1271    2.6014   18.1538 O.2     1  UNL1       -0.2526
     10 N          -0.7338    2.0790   20.6255 N.am    1  UNL1       -0.2901
     11 C           2.2668    0.8053   18.3618 C.3     1  UNL1        0.0985
     12 C           3.4637   -0.0928   18.4658 C.3     1  UNL1        0.0620
     13 O           4.0540   -1.5132   21.0415 O.3     1  UNL1       -0.4819
     14 C           5.2510   -2.4112   21.1455 C.ar    1  UNL1        0.1409
     15 C           5.5462   -3.1215   22.4333 C.ar    1  UNL1        0.0370
     16 C           6.7431   -4.0195   22.5373 C.ar    1  UNL1        0.0031
     17 C           7.6449   -4.2073   21.3535 C.ar    1  UNL1        0.0003
     18 C           7.3498   -3.4971   20.0656 C.ar    1  UNL1        0.0059
     19 C           6.1528   -2.5991   19.9617 C.ar    1  UNL1        0.0687
     20 H          -0.5400    1.6128   21.4707 H       1  UNL1        0.1509
     21 C          -1.9308    2.9770   20.5215 C.3     1  UNL1        0.0774
     22 C          -2.7825    3.9191   19.7234 C.3     1  UNL1        0.0259
     23 C          -3.1522    3.5904   21.1395 C.3     1  UNL1        0.0420
     24 C          -4.0708    3.7547   22.3138 C.ar    1  UNL1       -0.0208
     25 C          -5.5256    4.0464   22.0930 C.ar    1  UNL1       -0.0042
     26 C          -6.4442    4.2106   23.2674 C.ar    1  UNL1       -0.0003
     27 C          -5.9081    4.0832   24.6626 C.ar    1  UNL1       -0.0000
     28 C          -4.4534    3.7916   24.8833 C.ar    1  UNL1       -0.0003
     29 C          -3.5347    3.6273   23.7089 C.ar    1  UNL1       -0.0042
@<TRIPOS>BOND
     1     1     2    2
     2     2     3    1
     3     3     4    1
     4     4     5    1
     5     5     6    1
     6     6     7    1
     7     7     8   am
     8     8     9    2
     9     8    10   am
    10    21    10    1
    11    21    22    1
    12    22    23    1
    13    23    24    1
    14    24    25   ar
    15    25    26   ar
    16    26    27   ar
    17    27    28   ar
    18    28    29   ar
    19     7    11    1
    20    11    12    1
    21     4    13    1
    22    13    14    1
    23    14    15   ar
    24    15    16   ar
    25    16    17   ar
    26    17    18   ar
    27    18    19   ar
    28    19     2    1
    29    12     4    1
    30    19    14   ar
    31    23    21    1
    32    29    24   ar
    33    10    20    1
@<TRIPOS>MOLECULE
*****
 29 33 0 0 0
SMALL
GASTEIGER

@<TRIPOS>ATOM
      1 O           3.5395   -0.9143   17.0761 O.2     1  UNL1       -0.2911
      2 C           3.3206   -0.8701   18.5594 C.2     1  UNL1        0.1795
      3 C           4.1402   -1.7412   19.4647 C.3     1  UNL1        0.1092
      4 C           3.9213   -1.6971   20.9481 C.3     1  UNL1        0.1436
      5 C           3.7023   -1.6529   22.4313 C.3     1  UNL1        0.0620
      6 C           4.5219   -2.5239   23.3366 C.3     1  UNL1        0.0985
      7 N           5.5604   -3.4391   22.7586 N.am    1  UNL1       -0.2640
      8 C           6.3800   -4.3101   23.6640 C.2     1  UNL1        0.3039
      9 O           7.4184   -5.2253   23.0861 O.2     1  UNL1       -0.2526
     10 N           6.1610   -4.2660   25.1473 N.am    1  UNL1       -0.2901
     11 C           5.7793   -3.4832   21.2754 C.3     1  UNL1        0.0985
     12 C           4.9597   -2.6122   20.3701 C.3     1  UNL1        0.0620
     13 O           2.8828   -0.7819   21.5260 O.3     1  UNL1       -0.4819
     14 C           2.0632    0.0892   20.6206 C.ar    1  UNL1        0.1409
     15 C           1.0247    1.0043   21.1986 C.ar    1  UNL1        0.0370
     16 C           0.2052    1.8754   20.2933 C.ar    1  UNL1        0.0031
     17 C           0.4241    1.8312   18.8100 C.ar    1  UNL1        0.0003
     18 C           1.4625    0.9161   18.2320 C.ar    1  UNL1        0.0059
     19 C           2.2821    0.0450   19.1374 C.ar    1  UNL1        0.0687
     20 H           5.4795   -3.6653   25.5266 H       1  UNL1        0.1509
     21 C           6.9806   -5.1370   26.0527 C.3     1  UNL1        0.0774
     22 C           7.8236   -6.3592   26.2659 C.3     1  UNL1        0.0259
     23 C           7.5571   -5.4235   27.4075 C.3     1  UNL1        0.0420
     24 C           7.7361   -5.0486   28.8488 C.ar    1  UNL1       -0.0208
     25 C           6.9847   -5.7890   29.9152 C.ar    1  UNL1       -0.0042
     26 C           7.1637   -5.4142   31.3565 C.ar    1  UNL1       -0.0003
     27 C           8.0940   -4.2988   31.7315 C.ar    1  UNL1       -0.0000
     28 C           8.8453   -3.5583   30.6650 C.ar    1  UNL1       -0.0003
     29 C           8.6663   -3.9333   29.2237 C.ar    1  UNL1       -0.0042
@<TRIPOS>BOND
     1     1     2    2
     2     2     3    1
     3     3     4    1
     4     4     5    1
     5     5     6    1
     6     6     7    1
     7     7     8   am
     8     8     9    2
     9     8    10   am
    10    21    10    1
    11    21    22    1
    12    22    23    1
    13    23    24    1
    14    24    25   ar
    15    25    26   ar
    16    26    27   ar
    17    27    28   ar
    18    28    29   ar
    19     7    11    1
    20    11    12    1
    21     4    13    1
    22    13    14    1
    23    14    15   ar
    24    15    16   ar
    25    16    17   ar
    26    17    18   ar
    27    18    19   ar
    28    19     2    1
    29    12     4    1
    30    19    14   ar
    31    23    21    1
    32    29    24   ar
    33    10    20    1
@<TRIPOS>MOLECULE
*****
 29 33 0 0 0
SMALL
GASTEIGER

@<TRIPOS>ATOM
      1 O           2.1478   -0.1721   21.5985 O.2     1  UNL1       -0.2911
      2 C           3.2072   -1.1488   22.0156 C.2     1  UNL1        0.1795
      3 C           3.6262   -1.2320   23.4535 C.3     1  UNL1        0.1092
      4 C           4.6856   -2.2087   23.8706 C.3     1  UNL1        0.1436
      5 C           5.7449   -3.1853   24.2877 C.3     1  UNL1        0.0620
      6 C           6.1639   -3.2686   25.7255 C.3     1  UNL1        0.0985
      7 N           5.5237   -2.3752   26.7463 N.am    1  UNL1       -0.2640
      8 C           5.9428   -2.4585   28.1842 C.2     1  UNL1        0.3039
      9 O           5.3025   -1.5651   29.2049 O.2     1  UNL1       -0.2526
     10 N           7.0021   -3.4351   28.6013 N.am    1  UNL1       -0.2901
     11 C           4.4644   -1.3986   26.3292 C.3     1  UNL1        0.0985
     12 C           4.0453   -1.3153   24.8914 C.3     1  UNL1        0.0620
     13 O           5.3258   -3.1021   22.8498 O.3     1  UNL1       -0.4819
     14 C           4.9067   -3.0188   21.4119 C.ar    1  UNL1        0.1409
     15 C           5.5469   -3.9122   20.3912 C.ar    1  UNL1        0.0370
     16 C           5.1279   -3.8289   18.9534 C.ar    1  UNL1        0.0031
     17 C           4.0685   -2.8522   18.5362 C.ar    1  UNL1        0.0003
     18 C           3.4283   -1.9589   19.5570 C.ar    1  UNL1        0.0059
     19 C           3.8474   -2.0421   20.9949 C.ar    1  UNL1        0.0687
     20 H           7.4223   -4.0215   27.9313 H       1  UNL1        0.1509
     21 C           7.4212   -3.5184   30.0392 C.3     1  UNL1        0.0774
     22 C           8.3466   -4.0486   31.0939 C.3     1  UNL1        0.0259
     23 C           7.2217   -3.1325   31.4749 C.3     1  UNL1        0.0420
     24 C           6.4569   -2.3808   32.5237 C.ar    1  UNL1       -0.0208
     25 C           5.0505   -2.7812   32.8578 C.ar    1  UNL1       -0.0042
     26 C           4.2858   -2.0295   33.9066 C.ar    1  UNL1       -0.0003
     27 C           4.9275   -0.8774   34.6215 C.ar    1  UNL1       -0.0000
     28 C           6.3340   -0.4771   34.2874 C.ar    1  UNL1       -0.0003
     29 C           7.0987   -1.2288   33.2385 C.ar    1  UNL1       -0.0042
@<TRIPOS>BOND
     1     1     2    2
     2     2     3    1
     3     3     4    1
     4     4     5    1
     5     5     6    1
     6     6     7    1
     7     7     8   am
     8     8     9    2
     9     8    10   am
    10    21    10    1
    11    21    22    1
    12    22    23    1
    13    23    24    1
    14    24    25   ar
    15    25    26   ar
    16    26    27   ar
    17    27    28   ar
    18    28    29   ar
    19     7    11    1
    20    11    12    1
    21     4    13    1
    22    13    14    1
    23    14    15   ar
    24    15    16   ar
    25    16    17   ar
    26    17    18   ar
    27    18    19   ar
    28    19     2    1
    29    12     4    1
    30    19    14   ar
    31    23    21    1
    32    29    24   ar
    33    10    20    1
@<TRIPOS>MOLECULE
*****
 29 33 0 0 0
SMALL
GASTEIGER

@<TRIPOS>ATOM
      1 O          -6.2156    5.8404   28.1762 O.2     1  UNL1       -0.2911
      2 C          -5.6341    5.3659   26.8774 C.2     1  UNL1        0.1795
      3 C          -4.3523    4.5870   26.8696 C.3     1  UNL1        0.1092
      4 C          -3.7708    4.1126   25.5707 C.3     1  UNL1        0.1436
      5 C          -3.1894    3.6382   24.2719 C.3     1  UNL1        0.0620
      6 C          -1.9076    2.8593   24.2641 C.3     1  UNL1        0.0985
      7 N          -1.2071    2.5548   25.5551 N.am    1  UNL1       -0.2640
      8 C           0.0748    1.7759   25.5472 C.2     1  UNL1        0.3039
      9 O           0.7753    1.4714   26.8382 O.2     1  UNL1       -0.2526
     10 N           0.6562    1.3014   24.2485 N.am    1  UNL1       -0.2901
     11 C          -1.7885    3.0292   26.8539 C.3     1  UNL1        0.0985
     12 C          -3.0703    3.8081   26.8617 C.3     1  UNL1        0.0620
     13 O          -4.4713    4.4171   24.2798 O.3     1  UNL1       -0.4819
     14 C          -5.7532    5.1960   24.2876 C.ar    1  UNL1        0.1409
     15 C          -6.4537    5.5005   22.9966 C.ar    1  UNL1        0.0370
     16 C          -7.7356    6.2794   23.0045 C.ar    1  UNL1        0.0031
     17 C          -8.3170    6.7538   24.3033 C.ar    1  UNL1        0.0003
     18 C          -7.6165    6.4494   25.5943 C.ar    1  UNL1        0.0059
     19 C          -6.3346    5.6704   25.5864 C.ar    1  UNL1        0.0687
     20 H           0.1964    1.5013   23.4012 H       1  UNL1        0.1509
     21 C           1.9381    0.5225   24.2406 C.3     1  UNL1        0.0774
     22 C           3.2162    0.1175   24.9133 C.3     1  UNL1        0.0259
     23 C           2.8804   -0.4216   23.5544 C.3     1  UNL1        0.0420
     24 C           3.2305   -1.2778   22.3736 C.ar    1  UNL1       -0.0208
     25 C           2.6426   -0.9753   21.0272 C.ar    1  UNL1       -0.0042
     26 C           2.9926   -1.8316   19.8464 C.ar    1  UNL1       -0.0003
     27 C           3.9307   -2.9904   20.0120 C.ar    1  UNL1       -0.0000
     28 C           4.5186   -3.2928   21.3585 C.ar    1  UNL1       -0.0003
     29 C           4.1685   -2.4365   22.5393 C.ar    1  UNL1       -0.0042
@<TRIPOS>BOND
     1     1     2    2
     2     2     3    1
     3     3     4    1
     4     4     5    1
     5     5     6    1
     6     6     7    1
     7     7     8   am
     8     8     9    2
     9     8    10   am
    10    21    10    1
    11    21    22    1
    12    22    23    1
    13    23    24    1
    14    24    25   ar
    15    25    26   ar
    16    26    27   ar
    17    27    28   ar
    18    28    29   ar
    19     7    11    1
    20    11    12    1
    21     4    13    1
    22    13    14    1
    23    14    15   ar
    24    15    16   ar
    25    16    17   ar
    26    17    18   ar
    27    18    19   ar
    28    19     2    1
    29    12     4    1
    30    19    14   ar
    31    23    21    1
    32    29    24   ar
    33    10    20    1
@<TRIPOS>MOLECULE
*****
 29 33 0 0 0
SMALL
GASTEIGER

@<TRIPOS>ATOM
      1 O           6.6794   -0.3315   20.5563 O.2     1  UNL1       -0.2911
      2 C           5.2483   -0.7173   20.3252 C.2     1  UNL1        0.1795
      3 C           4.1563    0.2882   20.5404 C.3     1  UNL1        0.1092
      4 C           2.7252   -0.0976   20.3094 C.3     1  UNL1        0.1436
      5 C           1.2943   -0.4835   20.0783 C.3     1  UNL1        0.0620
      6 C           0.2023    0.5221   20.2935 C.3     1  UNL1        0.0985
      7 N           0.5412    1.9135   20.7397 N.am    1  UNL1       -0.2640
      8 C          -0.5509    2.9191   20.9548 C.2     1  UNL1        0.3039
      9 O          -0.2119    4.3105   21.4010 O.2     1  UNL1       -0.2526
     10 N          -1.9818    2.5332   20.7238 N.am    1  UNL1       -0.2901
     11 C           1.9722    2.2994   20.9707 C.3     1  UNL1        0.0985
     12 C           3.0642    1.2938   20.7555 C.3     1  UNL1        0.0620
     13 O           2.3863   -1.4890   19.8632 O.3     1  UNL1       -0.4819
     14 C           3.4784   -2.4946   19.6480 C.ar    1  UNL1        0.1409
     15 C           3.1394   -3.8860   19.2018 C.ar    1  UNL1        0.0370
     16 C           4.2314   -4.8916   18.9867 C.ar    1  UNL1        0.0031
     17 C           5.6625   -4.5057   19.2177 C.ar    1  UNL1        0.0003
     18 C           6.0014   -3.1143   19.6639 C.ar    1  UNL1        0.0059
     19 C           4.9093   -2.1087   19.8790 C.ar    1  UNL1        0.0687
     20 H          -2.2043    1.6200   20.4310 H       1  UNL1        0.1509
     21 C          -3.0739    3.5388   20.9390 C.3     1  UNL1        0.0774
     22 C          -4.0172    4.5691   20.3925 C.3     1  UNL1        0.0259
     23 C          -4.0221    4.2502   21.8581 C.3     1  UNL1        0.0420
     24 C          -4.5724    4.4767   23.2350 C.ar    1  UNL1       -0.0208
     25 C          -5.6860    5.4594   23.4453 C.ar    1  UNL1       -0.0042
     26 C          -6.2363    5.6860   24.8222 C.ar    1  UNL1       -0.0003
     27 C          -5.6730    4.9299   25.9888 C.ar    1  UNL1       -0.0000
     28 C          -4.5594    3.9472   25.7785 C.ar    1  UNL1       -0.0003
     29 C          -4.0091    3.7206   24.4016 C.ar    1  UNL1       -0.0042
@<TRIPOS>BOND
     1     1     2    2
     2     2     3    1
     3     3     4    1
     4     4     5    1
     5     5     6    1
     6     6     7    1
     7     7     8   am
     8     8     9    2
     9     8    10   am
    10    21    10    1
    11    21    22    1
    12    22    23    1
    13    23    24    1
    14    24    25   ar
    15    25    26   ar
    16    26    27   ar
    17    27    28   ar
    18    28    29   ar
    19     7    11    1
    20    11    12    1
    21     4    13    1
    22    13    14    1
    23    14    15   ar
    24    15    16   ar
    25    16    17   ar
    26    17    18   ar
    27    18    19   ar
    28    19     2    1
    29    12     4    1
    30    19    14   ar
    31    23    21    1
    32    29    24   ar
    33    10    20    1
