@<TRIPOS>MOLECULE
*****
 30 32 0 0 0
SMALL
GASTEIGER

@<TRIPOS>ATOM
      1 C          -2.6145  -17.8878   19.8518 C.3     1  UNL1        0.0926
      2 C          -1.4485  -17.9389   18.9096 C.3     1  UNL1        0.0887
      3 N          -0.3362  -17.1267   19.5039 N.3     1  UNL1       -0.2958
      4 C          -0.8149  -16.5737   20.8136 C.3     1  UNL1        0.0747
      5 C          -2.2229  -17.0440   21.0285 C.3     1  UNL1        0.0573
      6 H          -0.0910  -16.3626   18.8744 H       1  UNL1        0.1233
      7 C          -3.0875  -16.7264   22.2124 C.ar    1  UNL1       -0.0195
      8 C          -3.3046  -17.7569   23.2806 C.ar    1  UNL1       -0.0043
      9 C          -4.1692  -17.4393   24.4645 C.ar    1  UNL1        0.0006
     10 C          -4.8167  -16.0911   24.5802 C.ar    1  UNL1        0.0377
     11 C          -4.5996  -15.0607   23.5121 C.ar    1  UNL1        0.0006
     12 C          -3.7350  -15.3783   22.3282 C.ar    1  UNL1       -0.0043
     13 C          -5.6813  -15.7735   25.7641 C.3     1  UNL1        0.2828
     14 C          -6.5459  -15.4558   26.9479 C.3     1  UNL1        0.0771
     15 F          -6.5669  -14.9337   24.8920 F       1  UNL1       -0.1996
     16 F          -4.7957  -16.6132   26.6362 F       1  UNL1       -0.1996
     17 C          -4.2023  -19.8995   20.2784 C.2     1  UNL1        0.2269
     18 O          -3.1400  -20.5628   21.1041 O.2     1  UNL1       -0.2747
     19 N          -3.9395  -18.5620   19.6523 N.am    1  UNL1       -0.3040
     20 H          -4.6367  -18.1267   19.1104 H       1  UNL1        0.1494
     21 C          -5.5272  -20.5737   20.0789 C.3     1  UNL1        0.1113
     22 C          -9.3122  -18.5351   21.4088 C.ar    1  UNL1        0.0479
     23 C          -8.1191  -18.5682   22.3174 C.ar    1  UNL1        0.0142
     24 C          -6.8574  -19.2478   21.8740 C.ar    1  UNL1       -0.0025
     25 C          -6.7889  -19.8942   20.5222 C.ar    1  UNL1       -0.0130
     26 C          -7.9820  -19.8610   19.6136 C.ar    1  UNL1       -0.0025
     27 C          -9.2436  -19.1815   20.0569 C.ar    1  UNL1        0.0142
     28 C         -10.5500  -16.9214   23.0253 C.3     1  UNL1        0.1122
     29 N         -10.5738  -17.8555   21.8520 N.pl3   1  UNL1       -0.3041
     30 C         -11.8592  -18.1102   21.1220 C.3     1  UNL1        0.1122
@<TRIPOS>BOND
     1    28    29    1
     2    29    30    1
     3    29    22    1
     4    22    23   ar
     5    23    24   ar
     6    24    25   ar
     7    25    21    1
     8    21    17    1
     9    17    18    2
    10    17    19   am
    11     1    19    1
    12     1     2    1
    13     2     3    1
    14     3     4    1
    15     4     5    1
    16     5     7    1
    17     7     8   ar
    18     8     9   ar
    19     9    10   ar
    20    10    13    1
    21    13    14    1
    22    13    15    1
    23    13    16    1
    24    10    11   ar
    25    11    12   ar
    26    25    26   ar
    27    26    27   ar
    28    27    22   ar
    29     5     1    1
    30    12     7   ar
    31    19    20    1
    32     3     6    1
@<TRIPOS>MOLECULE
*****
 30 32 0 0 0
SMALL
GASTEIGER

@<TRIPOS>ATOM
      1 C          -3.5780  -18.9449   21.9580 C.3     1  UNL1        0.0926
      2 C          -2.2804  -19.2357   21.2639 C.3     1  UNL1        0.0887
      3 N          -1.2416  -18.3039   21.8139 N.3     1  UNL1       -0.2958
      4 C          -1.8972  -17.4371   22.8479 C.3     1  UNL1        0.0747
      5 C          -3.3412  -17.8333   22.9369 C.3     1  UNL1        0.0573
      6 H          -0.8652  -17.7237   21.0641 H       1  UNL1        0.1233
      7 C          -4.3680  -17.2248   23.8453 C.ar    1  UNL1       -0.0195
      8 C          -4.0845  -17.0875   25.3120 C.ar    1  UNL1       -0.0043
      9 C          -5.1113  -16.4789   26.2204 C.ar    1  UNL1        0.0006
     10 C          -6.4215  -16.0077   25.6624 C.ar    1  UNL1        0.0377
     11 C          -6.7049  -16.1450   24.1958 C.ar    1  UNL1        0.0006
     12 C          -5.6781  -16.7536   23.2874 C.ar    1  UNL1       -0.0043
     13 C          -7.4483  -15.3991   26.5709 C.3     1  UNL1        0.2828
     14 C          -8.4751  -14.7906   27.4794 C.3     1  UNL1        0.0771
     15 F          -6.5465  -15.6328   27.7466 F       1  UNL1       -0.1996
     16 F          -8.3501  -15.1655   25.3952 F       1  UNL1       -0.1996
     17 C          -5.6258  -19.4206   20.4314 C.2     1  UNL1        0.2269
     18 O          -5.0630  -18.4999   19.3895 O.2     1  UNL1       -0.2747
     19 N          -4.8833  -19.6431   21.7156 N.am    1  UNL1       -0.3040
     20 H          -5.2527  -20.2475   22.3994 H       1  UNL1        0.1494
     21 C          -6.9310  -20.1189   20.1891 C.3     1  UNL1        0.1113
     22 C         -10.7996  -18.1065   21.3005 C.ar    1  UNL1        0.0479
     23 C         -10.6635  -18.7878   19.9711 C.ar    1  UNL1        0.0142
     24 C          -9.3740  -19.4587   19.6007 C.ar    1  UNL1       -0.0025
     25 C          -8.2206  -19.4481   20.5595 C.ar    1  UNL1       -0.0130
     26 C          -8.3566  -18.7667   21.8889 C.ar    1  UNL1       -0.0025
     27 C          -9.6461  -18.0959   22.2594 C.ar    1  UNL1        0.0142
     28 C         -12.5912  -16.2770   20.8615 C.3     1  UNL1        0.1122
     29 N         -12.0890  -17.4357   21.6710 N.pl3   1  UNL1       -0.3041
     30 C         -12.8763  -17.9236   22.8509 C.3     1  UNL1        0.1122
@<TRIPOS>BOND
     1    28    29    1
     2    29    30    1
     3    29    22    1
     4    22    23   ar
     5    23    24   ar
     6    24    25   ar
     7    25    21    1
     8    21    17    1
     9    17    18    2
    10    17    19   am
    11     1    19    1
    12     1     2    1
    13     2     3    1
    14     3     4    1
    15     4     5    1
    16     5     7    1
    17     7     8   ar
    18     8     9   ar
    19     9    10   ar
    20    10    13    1
    21    13    14    1
    22    13    15    1
    23    13    16    1
    24    10    11   ar
    25    11    12   ar
    26    25    26   ar
    27    26    27   ar
    28    27    22   ar
    29     5     1    1
    30    12     7   ar
    31    19    20    1
    32     3     6    1
@<TRIPOS>MOLECULE
*****
 30 32 0 0 0
SMALL
GASTEIGER

@<TRIPOS>ATOM
      1 C          -3.6692  -17.9912   22.8926 C.3     1  UNL1        0.0926
      2 C          -2.2610  -17.7453   23.3470 C.3     1  UNL1        0.0887
      3 N          -1.3407  -18.4988   22.4331 N.3     1  UNL1       -0.2958
      4 C          -2.1802  -19.2105   21.4139 C.3     1  UNL1        0.0747
      5 C          -3.6193  -18.8968   21.6979 C.3     1  UNL1        0.0573
      6 H          -0.7988  -19.1764   22.9694 H       1  UNL1        0.1233
      7 C          -4.8009  -19.4003   20.9231 C.ar    1  UNL1       -0.0195
      8 C          -6.0040  -18.5241   20.7367 C.ar    1  UNL1       -0.0043
      9 C          -7.1857  -19.0276   19.9620 C.ar    1  UNL1        0.0006
     10 C          -7.1642  -20.4072   19.3736 C.ar    1  UNL1        0.0377
     11 C          -5.9611  -21.2834   19.5601 C.ar    1  UNL1        0.0006
     12 C          -4.7795  -20.7799   20.3348 C.ar    1  UNL1       -0.0043
     13 C          -8.3458  -20.9107   18.5989 C.3     1  UNL1        0.2828
     14 C          -9.5274  -21.4143   17.8241 C.3     1  UNL1        0.0771
     15 F          -7.6499  -22.2232   18.3905 F       1  UNL1       -0.1996
     16 F          -9.0417  -19.5984   18.8073 F       1  UNL1       -0.1996
     17 C          -5.1768  -15.9551   23.4683 C.2     1  UNL1        0.2269
     18 O          -4.2036  -15.0412   22.7845 O.2     1  UNL1       -0.2747
     19 N          -4.9096  -17.4301   23.5224 N.am    1  UNL1       -0.3040
     20 H          -5.5484  -18.0299   23.9712 H       1  UNL1        0.1494
     21 C          -6.4171  -15.3940   24.0981 C.3     1  UNL1        0.1113
     22 C         -10.4563  -16.9985   22.9314 C.ar    1  UNL1        0.0479
     23 C          -9.9880  -17.1072   24.3522 C.ar    1  UNL1        0.0142
     24 C          -8.6416  -16.5724   24.7411 C.ar    1  UNL1       -0.0025
     25 C          -7.7636  -15.9288   23.7092 C.ar    1  UNL1       -0.0130
     26 C          -8.2319  -15.8201   22.2884 C.ar    1  UNL1       -0.0025
     27 C          -9.5782  -16.3549   21.8994 C.ar    1  UNL1        0.0142
     28 C         -12.6914  -18.1536   23.5794 C.3     1  UNL1        0.1122
     29 N         -11.8027  -17.5333   22.5424 N.pl3   1  UNL1       -0.3041
     30 C         -12.2603  -17.4478   21.1165 C.3     1  UNL1        0.1122
@<TRIPOS>BOND
     1    28    29    1
     2    29    30    1
     3    29    22    1
     4    22    23   ar
     5    23    24   ar
     6    24    25   ar
     7    25    21    1
     8    21    17    1
     9    17    18    2
    10    17    19   am
    11     1    19    1
    12     1     2    1
    13     2     3    1
    14     3     4    1
    15     4     5    1
    16     5     7    1
    17     7     8   ar
    18     8     9   ar
    19     9    10   ar
    20    10    13    1
    21    13    14    1
    22    13    15    1
    23    13    16    1
    24    10    11   ar
    25    11    12   ar
    26    25    26   ar
    27    26    27   ar
    28    27    22   ar
    29     5     1    1
    30    12     7   ar
    31    19    20    1
    32     3     6    1
@<TRIPOS>MOLECULE
*****
 30 32 0 0 0
SMALL
GASTEIGER

@<TRIPOS>ATOM
      1 C          -7.1615  -15.6846   24.5600 C.3     1  UNL1        0.0926
      2 C          -7.7403  -15.2469   25.8728 C.3     1  UNL1        0.0887
      3 N          -6.6455  -15.2843   26.8975 N.3     1  UNL1       -0.2958
      4 C          -5.3901  -15.7450   26.2179 C.3     1  UNL1        0.0747
      5 C          -5.7091  -15.9924   24.7733 C.3     1  UNL1        0.0573
      6 H          -6.8927  -15.9331   27.6447 H       1  UNL1        0.1233
      7 C          -4.7448  -16.4647   23.7258 C.ar    1  UNL1       -0.0195
      8 C          -3.8237  -15.4865   23.0588 C.ar    1  UNL1       -0.0043
      9 C          -2.8594  -15.9588   22.0114 C.ar    1  UNL1        0.0006
     10 C          -2.8162  -17.4091   21.6309 C.ar    1  UNL1        0.0377
     11 C          -3.7373  -18.3872   22.2979 C.ar    1  UNL1        0.0006
     12 C          -4.7016  -17.9149   23.3454 C.ar    1  UNL1       -0.0043
     13 C          -1.8519  -17.8814   20.5835 C.3     1  UNL1        0.2828
     14 C          -0.8876  -18.3536   19.5360 C.3     1  UNL1        0.0771
     15 F          -1.1722  -16.5444   20.6064 F       1  UNL1       -0.1996
     16 F          -2.5317  -19.2184   20.5605 F       1  UNL1       -0.1996
     17 C          -9.1263  -16.6605   23.1681 C.2     1  UNL1        0.2269
     18 O          -9.6046  -17.4157   24.3727 O.2     1  UNL1       -0.2747
     19 N          -7.9049  -15.7950   23.2617 N.am    1  UNL1       -0.3040
     20 H          -7.5910  -15.2993   22.4711 H       1  UNL1        0.1494
     21 C          -9.8696  -16.7708   21.8699 C.3     1  UNL1        0.1113
     22 C          -8.9434  -20.1329   19.0257 C.ar    1  UNL1        0.0479
     23 C         -10.2909  -19.4746   18.9955 C.ar    1  UNL1        0.0142
     24 C         -10.5996  -18.3539   19.9435 C.ar    1  UNL1       -0.0025
     25 C          -9.5609  -17.8916   20.9218 C.ar    1  UNL1       -0.0130
     26 C          -8.2134  -18.5498   20.9521 C.ar    1  UNL1       -0.0025
     27 C          -7.9046  -19.6705   20.0041 C.ar    1  UNL1        0.0142
     28 C          -7.6142  -22.2889   18.4474 C.3     1  UNL1        0.1122
     29 N          -8.6347  -21.2536   18.0777 N.pl3   1  UNL1       -0.3041
     30 C          -9.3464  -21.3389   16.7601 C.3     1  UNL1        0.1122
@<TRIPOS>BOND
     1    28    29    1
     2    29    30    1
     3    29    22    1
     4    22    23   ar
     5    23    24   ar
     6    24    25   ar
     7    25    21    1
     8    21    17    1
     9    17    18    2
    10    17    19   am
    11     1    19    1
    12     1     2    1
    13     2     3    1
    14     3     4    1
    15     4     5    1
    16     5     7    1
    17     7     8   ar
    18     8     9   ar
    19     9    10   ar
    20    10    13    1
    21    13    14    1
    22    13    15    1
    23    13    16    1
    24    10    11   ar
    25    11    12   ar
    26    25    26   ar
    27    26    27   ar
    28    27    22   ar
    29     5     1    1
    30    12     7   ar
    31    19    20    1
    32     3     6    1
@<TRIPOS>MOLECULE
*****
 30 32 0 0 0
SMALL
GASTEIGER

@<TRIPOS>ATOM
      1 C         -12.0385   -3.6001   18.6129 C.3     1  UNL1        0.0926
      2 C         -10.7176   -2.9112   18.7880 C.3     1  UNL1        0.0887
      3 N          -9.6877   -3.9560   19.1002 N.3     1  UNL1       -0.2958
      4 C         -10.3720   -5.2907   19.1181 C.3     1  UNL1        0.0747
      5 C         -11.8249   -5.0707   18.8169 C.3     1  UNL1        0.0573
      6 H          -9.2701   -3.7689   20.0118 H       1  UNL1        0.1233
      7 C         -12.8791   -6.1346   18.7343 C.ar    1  UNL1       -0.0195
      8 C         -14.1194   -6.0280   19.5712 C.ar    1  UNL1       -0.0043
      9 C         -15.1736   -7.0919   19.4886 C.ar    1  UNL1        0.0006
     10 C         -14.9876   -8.2624   18.5691 C.ar    1  UNL1        0.0377
     11 C         -13.7473   -8.3689   17.7322 C.ar    1  UNL1        0.0006
     12 C         -12.6931   -7.3050   17.8148 C.ar    1  UNL1       -0.0043
     13 C         -16.0418   -9.3263   18.4864 C.3     1  UNL1        0.2828
     14 C         -17.0960  -10.3901   18.4038 C.3     1  UNL1        0.0771
     15 F         -16.9933   -8.4416   19.2361 F       1  UNL1       -0.1996
     16 F         -15.0902  -10.2109   17.7368 F       1  UNL1       -0.1996
     17 C         -14.2633   -2.5114   19.3973 C.2     1  UNL1        0.2269
     18 O         -13.8775   -2.7526   20.8266 O.2     1  UNL1       -0.2747
     19 N         -13.3439   -2.9351   18.2905 N.am    1  UNL1       -0.3040
     20 H         -13.5971   -2.7768   17.3524 H       1  UNL1        0.1494
     21 C         -15.5685   -1.8464   19.0748 C.3     1  UNL1        0.1113
     22 C         -16.2459    2.4533   20.2168 C.ar    1  UNL1        0.0479
     23 C         -17.0782    1.3719   20.8396 C.ar    1  UNL1        0.0142
     24 C         -16.8524   -0.0614   20.4589 C.ar    1  UNL1       -0.0025
     25 C         -15.7943   -0.4131   19.4555 C.ar    1  UNL1       -0.0130
     26 C         -14.9621    0.6683   18.8327 C.ar    1  UNL1       -0.0025
     27 C         -15.1878    2.1015   19.2134 C.ar    1  UNL1        0.0142
     28 C         -17.2279    4.7970   19.6761 C.3     1  UNL1        0.1122
     29 N         -16.4716    3.8865   20.5975 N.pl3   1  UNL1       -0.3041
     30 C         -15.9411    4.4092   21.8995 C.3     1  UNL1        0.1122
@<TRIPOS>BOND
     1    28    29    1
     2    29    30    1
     3    29    22    1
     4    22    23   ar
     5    23    24   ar
     6    24    25   ar
     7    25    21    1
     8    21    17    1
     9    17    18    2
    10    17    19   am
    11     1    19    1
    12     1     2    1
    13     2     3    1
    14     3     4    1
    15     4     5    1
    16     5     7    1
    17     7     8   ar
    18     8     9   ar
    19     9    10   ar
    20    10    13    1
    21    13    14    1
    22    13    15    1
    23    13    16    1
    24    10    11   ar
    25    11    12   ar
    26    25    26   ar
    27    26    27   ar
    28    27    22   ar
    29     5     1    1
    30    12     7   ar
    31    19    20    1
    32     3     6    1
@<TRIPOS>MOLECULE
*****
 30 32 0 0 0
SMALL
GASTEIGER

@<TRIPOS>ATOM
      1 C           4.5798   -1.6936   27.7061 C.3     1  UNL1        0.0926
      2 C           4.3630   -0.8618   28.9354 C.3     1  UNL1        0.0887
      3 N           5.4850   -1.1443   29.8900 N.3     1  UNL1       -0.2958
      4 C           6.3952   -2.1508   29.2506 C.3     1  UNL1        0.0747
      5 C           5.8357   -2.4902   27.9009 C.3     1  UNL1        0.0573
      6 H           5.1116   -1.5199   30.7617 H       1  UNL1        0.1233
      7 C           6.4282   -3.4565   26.9185 C.ar    1  UNL1       -0.0195
      8 C           6.4742   -4.9207   27.2415 C.ar    1  UNL1       -0.0043
      9 C           7.0667   -5.8871   26.2591 C.ar    1  UNL1        0.0006
     10 C           7.6132   -5.3894   24.9538 C.ar    1  UNL1        0.0377
     11 C           7.5672   -3.9253   24.6310 C.ar    1  UNL1        0.0006
     12 C           6.9747   -2.9589   25.6133 C.ar    1  UNL1       -0.0043
     13 C           8.2057   -6.3558   23.9714 C.3     1  UNL1        0.2828
     14 C           8.7981   -7.3222   22.9891 C.3     1  UNL1        0.0771
     15 F           7.6979   -7.5030   24.7938 F       1  UNL1       -0.1996
     16 F           8.7134   -5.2086   23.1491 F       1  UNL1       -0.1996
     17 C           3.9560   -0.7861   25.3529 C.2     1  UNL1        0.2269
     18 O           5.1003    0.1812   25.4226 O.2     1  UNL1       -0.2747
     19 N           3.6957   -1.7235   26.4946 N.am    1  UNL1       -0.3040
     20 H           2.9446   -2.3583   26.4489 H       1  UNL1        0.1494
     21 C           3.0719   -0.8160   24.1415 C.3     1  UNL1        0.1113
     22 C           4.4591   -2.8860   20.3943 C.ar    1  UNL1        0.0479
     23 C           3.5390   -1.7049   20.3019 C.ar    1  UNL1        0.0142
     24 C           3.0766   -1.0149   21.5510 C.ar    1  UNL1       -0.0025
     25 C           3.5343   -1.5060   22.8924 C.ar    1  UNL1       -0.0130
     26 C           4.4544   -2.6871   22.9848 C.ar    1  UNL1       -0.0025
     27 C           4.9168   -3.3771   21.7357 C.ar    1  UNL1        0.0142
     28 C           4.5428   -5.0055   18.8941 C.3     1  UNL1        0.1122
     29 N           4.9215   -3.5760   19.1453 N.pl3   1  UNL1       -0.3041
     30 C           5.7625   -2.8365   18.1474 C.3     1  UNL1        0.1122
@<TRIPOS>BOND
     1    28    29    1
     2    29    30    1
     3    29    22    1
     4    22    23   ar
     5    23    24   ar
     6    24    25   ar
     7    25    21    1
     8    21    17    1
     9    17    18    2
    10    17    19   am
    11     1    19    1
    12     1     2    1
    13     2     3    1
    14     3     4    1
    15     4     5    1
    16     5     7    1
    17     7     8   ar
    18     8     9   ar
    19     9    10   ar
    20    10    13    1
    21    13    14    1
    22    13    15    1
    23    13    16    1
    24    10    11   ar
    25    11    12   ar
    26    25    26   ar
    27    26    27   ar
    28    27    22   ar
    29     5     1    1
    30    12     7   ar
    31    19    20    1
    32     3     6    1
@<TRIPOS>MOLECULE
*****
 30 32 0 0 0
SMALL
GASTEIGER

@<TRIPOS>ATOM
      1 C           7.5780   -4.2674   21.2010 C.3     1  UNL1        0.0926
      2 C           8.5518   -5.3972   21.0414 C.3     1  UNL1        0.0887
      3 N           8.7831   -6.0043   22.3933 N.3     1  UNL1       -0.2958
      4 C           7.9524   -5.2497   23.3886 C.3     1  UNL1        0.0747
      5 C           7.2076   -4.1763   22.6517 C.3     1  UNL1        0.0573
      6 H           9.7700   -5.9323   22.6408 H       1  UNL1        0.1233
      7 C           6.2589   -3.1857   23.2589 C.ar    1  UNL1       -0.0195
      8 C           4.8065   -3.2116   22.8846 C.ar    1  UNL1       -0.0043
      9 C           3.8579   -2.2210   23.4918 C.ar    1  UNL1        0.0006
     10 C           4.3614   -1.2045   24.4733 C.ar    1  UNL1        0.0377
     11 C           5.8138   -1.1787   24.8475 C.ar    1  UNL1        0.0006
     12 C           6.7624   -2.1693   24.2403 C.ar    1  UNL1       -0.0043
     13 C           3.4128   -0.2139   25.0805 C.3     1  UNL1        0.2828
     14 C           2.4642    0.7767   25.6877 C.3     1  UNL1        0.0771
     15 F           4.4182    0.0930   26.1506 F       1  UNL1       -0.1996
     16 F           2.4074   -0.5208   24.0104 F       1  UNL1       -0.1996
     17 C           5.8155   -3.7577   19.3615 C.2     1  UNL1        0.2269
     18 O           5.0794   -5.0149   19.7184 O.2     1  UNL1       -0.2747
     19 N           7.0648   -3.3839   20.1028 N.am    1  UNL1       -0.3040
     20 H           7.5480   -2.5587   19.8685 H       1  UNL1        0.1494
     21 C           5.3024   -2.8742   18.2633 C.3     1  UNL1        0.1113
     22 C           2.0013    0.0677   19.0992 C.ar    1  UNL1        0.0479
     23 C           2.2263   -1.0903   20.0257 C.ar    1  UNL1        0.0142
     24 C           3.3267   -2.0710   19.7470 C.ar    1  UNL1       -0.0025
     25 C           4.2020   -1.8935   18.5420 C.ar    1  UNL1       -0.0130
     26 C           3.9770   -0.7355   17.6155 C.ar    1  UNL1       -0.0025
     27 C           2.8767    0.2451   17.8941 C.ar    1  UNL1        0.0142
     28 C           0.0986    0.9365   20.6402 C.3     1  UNL1        0.1122
     29 N           0.9010    1.0483   19.3778 N.pl3   1  UNL1       -0.3041
     30 C           0.6030    2.1407   18.3940 C.3     1  UNL1        0.1122
@<TRIPOS>BOND
     1    28    29    1
     2    29    30    1
     3    29    22    1
     4    22    23   ar
     5    23    24   ar
     6    24    25   ar
     7    25    21    1
     8    21    17    1
     9    17    18    2
    10    17    19   am
    11     1    19    1
    12     1     2    1
    13     2     3    1
    14     3     4    1
    15     4     5    1
    16     5     7    1
    17     7     8   ar
    18     8     9   ar
    19     9    10   ar
    20    10    13    1
    21    13    14    1
    22    13    15    1
    23    13    16    1
    24    10    11   ar
    25    11    12   ar
    26    25    26   ar
    27    26    27   ar
    28    27    22   ar
    29     5     1    1
    30    12     7   ar
    31    19    20    1
    32     3     6    1
@<TRIPOS>MOLECULE
*****
 30 32 0 0 0
SMALL
GASTEIGER

@<TRIPOS>ATOM
      1 C           4.2495   -2.2518   19.7127 C.3     1  UNL1        0.0926
      2 C           5.2314   -2.9998   18.8605 C.3     1  UNL1        0.0887
      3 N           5.1358   -2.4629   17.4631 N.3     1  UNL1       -0.2958
      4 C           4.0946   -1.3830   17.4518 C.3     1  UNL1        0.0747
      5 C           3.5469   -1.2526   18.8421 C.3     1  UNL1        0.0573
      6 H           4.8666   -3.2099   16.8229 H       1  UNL1        0.1233
      7 C           2.4833   -0.2917   19.2842 C.ar    1  UNL1       -0.0195
      8 C           1.3414   -0.7736   20.1291 C.ar    1  UNL1       -0.0043
      9 C           0.2778    0.1873   20.5711 C.ar    1  UNL1        0.0006
     10 C           0.3561    1.6301   20.1684 C.ar    1  UNL1        0.0377
     11 C           1.4980    2.1120   19.3235 C.ar    1  UNL1        0.0006
     12 C           2.5616    1.1511   18.8815 C.ar    1  UNL1       -0.0043
     13 C          -0.7075    2.5911   20.6104 C.3     1  UNL1        0.2828
     14 C          -1.7710    3.5520   21.0524 C.3     1  UNL1        0.0771
     15 F          -0.8831    3.0488   19.1927 F       1  UNL1       -0.1996
     16 F          -0.5318    2.1334   22.0281 F       1  UNL1       -0.1996
     17 C           4.5584   -1.4890   22.1770 C.2     1  UNL1        0.2269
     18 O           5.3426   -0.2986   21.7102 O.2     1  UNL1       -0.2747
     19 N           4.0118   -2.4656   21.1783 N.am    1  UNL1       -0.3040
     20 H           3.4971   -3.2469   21.4847 H       1  UNL1        0.1494
     21 C           4.3207   -1.7028   23.6425 C.3     1  UNL1        0.1113
     22 C           1.6614    1.1193   25.9260 C.ar    1  UNL1        0.0479
     23 C           1.4690    0.9367   24.4497 C.ar    1  UNL1        0.0142
     24 C           2.3554   -0.0041   23.6885 C.ar    1  UNL1       -0.0025
     25 C           3.4342   -0.7621   24.4037 C.ar    1  UNL1       -0.0130
     26 C           3.6267   -0.5794   25.8800 C.ar    1  UNL1       -0.0025
     27 C           2.7403    0.3613   26.6412 C.ar    1  UNL1        0.0142
     28 C          -0.7156    1.9088   26.6161 C.3     1  UNL1        0.1122
     29 N           0.7750    2.0600   26.6872 N.pl3   1  UNL1       -0.3041
     30 C           1.3793    3.1519   27.5194 C.3     1  UNL1        0.1122
@<TRIPOS>BOND
     1    28    29    1
     2    29    30    1
     3    29    22    1
     4    22    23   ar
     5    23    24   ar
     6    24    25   ar
     7    25    21    1
     8    21    17    1
     9    17    18    2
    10    17    19   am
    11     1    19    1
    12     1     2    1
    13     2     3    1
    14     3     4    1
    15     4     5    1
    16     5     7    1
    17     7     8   ar
    18     8     9   ar
    19     9    10   ar
    20    10    13    1
    21    13    14    1
    22    13    15    1
    23    13    16    1
    24    10    11   ar
    25    11    12   ar
    26    25    26   ar
    27    26    27   ar
    28    27    22   ar
    29     5     1    1
    30    12     7   ar
    31    19    20    1
    32     3     6    1
@<TRIPOS>MOLECULE
*****
 30 32 0 0 0
SMALL
GASTEIGER

@<TRIPOS>ATOM
      1 C          -6.7278  -15.4935   26.8298 C.3     1  UNL1        0.0926
      2 C          -6.6182  -14.4948   27.9436 C.3     1  UNL1        0.0887
      3 N          -8.0055  -14.0686   28.3223 N.3     1  UNL1       -0.2958
      4 C          -8.9727  -14.8038   27.4425 C.3     1  UNL1        0.0747
      5 C          -8.1830  -15.6845   26.5201 C.3     1  UNL1        0.0573
      6 H          -8.1083  -13.0631   28.1852 H       1  UNL1        0.1233
      7 C          -8.7492  -16.5961   25.4720 C.ar    1  UNL1       -0.0195
      8 C          -8.7449  -16.1768   24.0317 C.ar    1  UNL1       -0.0043
      9 C          -9.3110  -17.0884   22.9837 C.ar    1  UNL1        0.0006
     10 C          -9.8815  -18.4192   23.3757 C.ar    1  UNL1        0.0377
     11 C          -9.8858  -18.8383   24.8160 C.ar    1  UNL1        0.0006
     12 C          -9.3197  -17.9267   25.8640 C.ar    1  UNL1       -0.0043
     13 C         -10.4477  -19.3307   22.3277 C.3     1  UNL1        0.2828
     14 C         -11.0140  -20.2422   21.2796 C.3     1  UNL1        0.0771
     15 F         -11.8334  -18.8805   22.6847 F       1  UNL1       -0.1996
     16 F          -9.0621  -19.7809   21.9707 F       1  UNL1       -0.1996
     17 C          -5.1242  -15.7107   24.7973 C.2     1  UNL1        0.2269
     18 O          -5.8097  -14.5538   24.1327 O.2     1  UNL1       -0.2747
     19 N          -5.5832  -16.1806   26.1457 N.am    1  UNL1       -0.3040
     20 H          -5.1333  -16.9400   26.5819 H       1  UNL1        0.1494
     21 C          -3.9796  -16.3978   24.1133 C.3     1  UNL1        0.1113
     22 C          -4.7746  -19.7332   21.1989 C.ar    1  UNL1        0.0479
     23 C          -5.9205  -18.9898   21.8187 C.ar    1  UNL1        0.0142
     24 C          -5.6555  -17.8780   22.7902 C.ar    1  UNL1       -0.0025
     25 C          -4.2446  -17.5096   23.1418 C.ar    1  UNL1       -0.0130
     26 C          -3.0987  -18.2531   22.5220 C.ar    1  UNL1       -0.0025
     27 C          -3.3637  -19.3648   21.5505 C.ar    1  UNL1        0.0142
     28 C          -6.4215  -21.4134   20.0970 C.3     1  UNL1        0.1122
     29 N          -5.0396  -20.8450   20.2275 N.pl3   1  UNL1       -0.3041
     30 C          -3.9226  -21.3883   19.3866 C.3     1  UNL1        0.1122
@<TRIPOS>BOND
     1    28    29    1
     2    29    30    1
     3    29    22    1
     4    22    23   ar
     5    23    24   ar
     6    24    25   ar
     7    25    21    1
     8    21    17    1
     9    17    18    2
    10    17    19   am
    11     1    19    1
    12     1     2    1
    13     2     3    1
    14     3     4    1
    15     4     5    1
    16     5     7    1
    17     7     8   ar
    18     8     9   ar
    19     9    10   ar
    20    10    13    1
    21    13    14    1
    22    13    15    1
    23    13    16    1
    24    10    11   ar
    25    11    12   ar
    26    25    26   ar
    27    26    27   ar
    28    27    22   ar
    29     5     1    1
    30    12     7   ar
    31    19    20    1
    32     3     6    1
