@<TRIPOS>MOLECULE
*****
 20 21 0 0 0
SMALL
GASTEIGER

@<TRIPOS>ATOM
      1 C          -8.5311  -18.5735   21.6291 C.ar    1  UNL1        0.0344
      2 C          -8.5726  -19.3205   20.3291 C.ar    1  UNL1        0.0028
      3 C          -7.3150  -19.9100   19.7624 C.ar    1  UNL1       -0.0002
      4 C          -6.0161  -19.7525   20.4958 C.ar    1  UNL1       -0.0039
      5 C          -5.9747  -19.0055   21.7958 C.ar    1  UNL1       -0.0161
      6 C          -7.2322  -18.4160   22.3625 C.ar    1  UNL1       -0.0010
      7 C          -9.7887  -17.9840   22.1958 C.2     1  UNL1        0.1730
      8 O          -9.8026  -16.5609   22.6697 O.2     1  UNL1       -0.2913
      9 C         -11.0322  -18.8176   22.2886 C.3     1  UNL1        0.0691
     10 C         -11.7078  -18.7619   24.2987 C.3     1  UNL1        0.0004
     11 C         -12.2464  -18.2783   22.9850 C.3     1  UNL1        0.0073
     12 C         -12.7851  -17.7947   21.6712 C.3     1  UNL1        0.0004
     13 C         -13.4606  -17.7390   23.6813 C.3     1  UNL1        0.0004
     14 C          -4.6757  -18.8479   22.5293 C.3     1  UNL1        0.0715
     15 C          -3.4058  -18.6179   21.7648 C.ar    1  UNL1        0.0586
     16 C          -2.4001  -19.6658   21.3902 C.ar    1  UNL1        0.1134
     17 N          -1.2914  -18.9952   20.6345 N.ar    1  UNL1       -0.2229
     18 C          -1.6120  -17.5327   20.5421 C.ar    1  UNL1        0.1748
     19 N          -2.9187  -17.2996   21.2406 N.ar    1  UNL1       -0.3379
     20 H          -3.3763  -16.4333   21.3380 H       1  UNL1        0.1672
@<TRIPOS>BOND
     1    10    11    1
     2    11    12    1
     3    11    13    1
     4    11     9    1
     5     9     7    1
     6     7     8    2
     7     7     1    1
     8     1     2   ar
     9     2     3   ar
    10     3     4   ar
    11     4     5   ar
    12     5    14    1
    13    14    15    1
    14    15    16   ar
    15    16    17   ar
    16    17    18   ar
    17    18    19   ar
    18     5     6   ar
    19     6     1   ar
    20    19    15   ar
    21    19    20    1
@<TRIPOS>MOLECULE
*****
 20 21 0 0 0
SMALL
GASTEIGER

@<TRIPOS>ATOM
      1 C          -6.9088  -17.7812   22.6887 C.ar    1  UNL1        0.0344
      2 C          -6.5924  -16.5831   23.5339 C.ar    1  UNL1        0.0028
      3 C          -5.1682  -16.2654   23.8814 C.ar    1  UNL1       -0.0002
      4 C          -4.0604  -17.1458   23.3837 C.ar    1  UNL1       -0.0039
      5 C          -4.3768  -18.3439   22.5386 C.ar    1  UNL1       -0.0161
      6 C          -5.8010  -18.6616   22.1911 C.ar    1  UNL1       -0.0010
      7 C          -8.3330  -18.0990   22.3412 C.2     1  UNL1        0.1730
      8 O          -9.0401  -17.3093   21.2800 O.2     1  UNL1       -0.2913
      9 C          -9.0500  -19.2064   23.0550 C.3     1  UNL1        0.0691
     10 C          -9.8441  -18.0883   24.6734 C.3     1  UNL1        0.0004
     11 C         -10.4237  -18.9745   23.6109 C.3     1  UNL1        0.0073
     12 C         -11.0033  -19.8607   22.5485 C.3     1  UNL1        0.0004
     13 C         -11.7974  -18.7426   24.1669 C.3     1  UNL1        0.0004
     14 C          -3.2690  -19.2244   22.0409 C.3     1  UNL1        0.0715
     15 C          -2.3478  -18.7341   20.9635 C.ar    1  UNL1        0.0586
     16 C          -2.5934  -18.8215   19.4863 C.ar    1  UNL1        0.1134
     17 N          -1.4167  -18.2117   18.7839 N.ar    1  UNL1       -0.2229
     18 C          -0.4438  -17.7474   19.8269 C.ar    1  UNL1        0.1748
     19 N          -1.0193  -18.0702   21.1740 N.ar    1  UNL1       -0.3379
     20 H          -0.5989  -17.8798   22.0436 H       1  UNL1        0.1672
@<TRIPOS>BOND
     1    10    11    1
     2    11    12    1
     3    11    13    1
     4    11     9    1
     5     9     7    1
     6     7     8    2
     7     7     1    1
     8     1     2   ar
     9     2     3   ar
    10     3     4   ar
    11     4     5   ar
    12     5    14    1
    13    14    15    1
    14    15    16   ar
    15    16    17   ar
    16    17    18   ar
    17    18    19   ar
    18     5     6   ar
    19     6     1   ar
    20    19    15   ar
    21    19    20    1
@<TRIPOS>MOLECULE
*****
 20 21 0 0 0
SMALL
GASTEIGER

@<TRIPOS>ATOM
      1 C          -9.0232  -18.8497   22.9784 C.ar    1  UNL1        0.0344
      2 C          -8.6537  -17.4551   23.3888 C.ar    1  UNL1        0.0028
      3 C          -7.2761  -16.9313   23.1099 C.ar    1  UNL1       -0.0002
      4 C          -6.2679  -17.8022   22.4206 C.ar    1  UNL1       -0.0039
      5 C          -6.6374  -19.1968   22.0102 C.ar    1  UNL1       -0.0161
      6 C          -8.0151  -19.7205   22.2891 C.ar    1  UNL1       -0.0010
      7 C         -10.4009  -19.3734   23.2573 C.2     1  UNL1        0.1730
      8 O         -10.7343  -19.9228   24.6126 O.2     1  UNL1       -0.2913
      9 C         -11.4451  -19.3479   22.1808 C.3     1  UNL1        0.0691
     10 C         -12.6129  -17.7247   22.8889 C.3     1  UNL1        0.0004
     11 C         -11.8993  -18.0383   21.6074 C.3     1  UNL1        0.0073
     12 C         -11.1857  -18.3519   20.3258 C.3     1  UNL1        0.0004
     13 C         -12.3535  -16.7287   21.0340 C.3     1  UNL1        0.0004
     14 C          -5.6293  -20.0677   21.3208 C.3     1  UNL1        0.0715
     15 C          -4.4142  -19.4542   20.6907 C.ar    1  UNL1        0.0586
     16 C          -2.9951  -19.6547   21.1334 C.ar    1  UNL1        0.1134
     17 N          -2.1086  -18.8569   20.2236 N.ar    1  UNL1       -0.2229
     18 C          -2.9799  -18.1633   19.2186 C.ar    1  UNL1        0.1748
     19 N          -4.4048  -18.5325   19.5073 N.ar    1  UNL1       -0.3379
     20 H          -5.1951  -18.2241   19.0078 H       1  UNL1        0.1672
@<TRIPOS>BOND
     1    10    11    1
     2    11    12    1
     3    11    13    1
     4    11     9    1
     5     9     7    1
     6     7     8    2
     7     7     1    1
     8     1     2   ar
     9     2     3   ar
    10     3     4   ar
    11     4     5   ar
    12     5    14    1
    13    14    15    1
    14    15    16   ar
    15    16    17   ar
    16    17    18   ar
    17    18    19   ar
    18     5     6   ar
    19     6     1   ar
    20    19    15   ar
    21    19    20    1
@<TRIPOS>MOLECULE
*****
 20 21 0 0 0
SMALL
GASTEIGER

@<TRIPOS>ATOM
      1 C          -7.3255  -19.0922   22.2156 C.ar    1  UNL1        0.0344
      2 C          -7.7976  -20.3316   22.9163 C.ar    1  UNL1        0.0028
      3 C          -9.1509  -20.3583   23.5627 C.ar    1  UNL1       -0.0002
      4 C         -10.0321  -19.1457   23.5085 C.ar    1  UNL1       -0.0039
      5 C          -9.5600  -17.9064   22.8078 C.ar    1  UNL1       -0.0161
      6 C          -8.2067  -17.8796   22.1613 C.ar    1  UNL1       -0.0010
      7 C          -5.9722  -19.0654   21.5692 C.2     1  UNL1        0.1730
      8 O          -5.8264  -18.5906   20.1538 O.2     1  UNL1       -0.2913
      9 C          -4.7648  -19.5135   22.3381 C.3     1  UNL1        0.0691
     10 C          -4.1509  -17.6522   23.1497 C.3     1  UNL1        0.0004
     11 C          -3.5043  -18.7016   22.2948 C.3     1  UNL1        0.0073
     12 C          -2.8577  -19.7509   21.4399 C.3     1  UNL1        0.0004
     13 C          -2.2438  -17.8896   22.2516 C.3     1  UNL1        0.0004
     14 C         -10.4413  -16.6936   22.7535 C.3     1  UNL1        0.0715
     15 C         -11.0783  -16.2869   21.4579 C.ar    1  UNL1        0.0586
     16 C         -12.5328  -16.4114   21.1132 C.ar    1  UNL1        0.1134
     17 N         -12.7262  -15.8856   19.7218 N.ar    1  UNL1       -0.2229
     18 C         -11.3911  -15.4361   19.2064 C.ar    1  UNL1        0.1748
     19 N         -10.3726  -15.6841   20.2794 N.ar    1  UNL1       -0.3379
     20 H          -9.4101  -15.4861   20.2205 H       1  UNL1        0.1672
@<TRIPOS>BOND
     1    10    11    1
     2    11    12    1
     3    11    13    1
     4    11     9    1
     5     9     7    1
     6     7     8    2
     7     7     1    1
     8     1     2   ar
     9     2     3   ar
    10     3     4   ar
    11     4     5   ar
    12     5    14    1
    13    14    15    1
    14    15    16   ar
    15    16    17   ar
    16    17    18   ar
    17    18    19   ar
    18     5     6   ar
    19     6     1   ar
    20    19    15   ar
    21    19    20    1
@<TRIPOS>MOLECULE
*****
 20 21 0 0 0
SMALL
GASTEIGER

@<TRIPOS>ATOM
      1 C          -8.8945  -19.5515   22.3577 C.ar    1  UNL1        0.0344
      2 C          -9.7846  -19.3147   21.1739 C.ar    1  UNL1        0.0028
      3 C          -9.2335  -19.4389   19.7843 C.ar    1  UNL1       -0.0002
      4 C          -7.7922  -19.8000   19.5787 C.ar    1  UNL1       -0.0039
      5 C          -6.9021  -20.0367   20.7625 C.ar    1  UNL1       -0.0161
      6 C          -7.4533  -19.9125   22.1521 C.ar    1  UNL1       -0.0010
      7 C          -9.4457  -19.4272   23.7472 C.2     1  UNL1        0.1730
      8 O          -9.4649  -20.6204   24.6560 O.2     1  UNL1       -0.2913
      9 C          -9.9777  -18.1098   24.2281 C.3     1  UNL1        0.0691
     10 C         -12.0345  -18.5775   24.0024 C.3     1  UNL1        0.0004
     11 C         -11.1404  -17.4701   23.5287 C.3     1  UNL1        0.0073
     12 C         -10.2463  -16.3628   23.0551 C.3     1  UNL1        0.0004
     13 C         -12.3030  -16.8305   22.8294 C.3     1  UNL1        0.0004
     14 C          -5.4607  -20.3978   20.5569 C.3     1  UNL1        0.0715
     15 C          -4.3975  -19.3490   20.6968 C.ar    1  UNL1        0.0586
     16 C          -3.7206  -18.6242   19.5715 C.ar    1  UNL1        0.1134
     17 N          -2.7293  -17.6681   20.1658 N.ar    1  UNL1       -0.2229
     18 C          -2.7935  -17.8020   21.6585 C.ar    1  UNL1        0.1748
     19 N          -3.8246  -18.8409   21.9866 N.ar    1  UNL1       -0.3379
     20 H          -4.0803  -19.1372   22.8900 H       1  UNL1        0.1672
@<TRIPOS>BOND
     1    10    11    1
     2    11    12    1
     3    11    13    1
     4    11     9    1
     5     9     7    1
     6     7     8    2
     7     7     1    1
     8     1     2   ar
     9     2     3   ar
    10     3     4   ar
    11     4     5   ar
    12     5    14    1
    13    14    15    1
    14    15    16   ar
    15    16    17   ar
    16    17    18   ar
    17    18    19   ar
    18     5     6   ar
    19     6     1   ar
    20    19    15   ar
    21    19    20    1
@<TRIPOS>MOLECULE
*****
 20 21 0 0 0
SMALL
GASTEIGER

@<TRIPOS>ATOM
      1 C          -8.6660  -18.3053   21.5397 C.ar    1  UNL1        0.0344
      2 C          -7.5957  -19.3452   21.3881 C.ar    1  UNL1        0.0028
      3 C          -6.2406  -19.1201   21.9905 C.ar    1  UNL1       -0.0002
      4 C          -5.9557  -17.8552   22.7446 C.ar    1  UNL1       -0.0039
      5 C          -7.0260  -16.8153   22.8962 C.ar    1  UNL1       -0.0161
      6 C          -8.3811  -17.0404   22.2938 C.ar    1  UNL1       -0.0010
      7 C         -10.0211  -18.5304   20.9372 C.2     1  UNL1        0.1730
      8 O         -10.3737  -17.8944   19.6253 O.2     1  UNL1       -0.2913
      9 C         -11.0237  -19.3914   21.6467 C.3     1  UNL1        0.0691
     10 C         -10.5849  -20.1412   23.5820 C.3     1  UNL1        0.0004
     11 C         -11.4557  -19.0461   23.0411 C.3     1  UNL1        0.0073
     12 C         -12.3264  -17.9510   22.5001 C.3     1  UNL1        0.0004
     13 C         -11.8876  -18.7008   24.4354 C.3     1  UNL1        0.0004
     14 C          -6.7412  -15.5502   23.6503 C.3     1  UNL1        0.0715
     15 C          -7.0465  -15.4662   25.1165 C.ar    1  UNL1        0.0586
     16 C          -6.0378  -15.3998   26.2247 C.ar    1  UNL1        0.1134
     17 N          -6.7819  -15.3264   27.5250 N.ar    1  UNL1       -0.2229
     18 C          -8.2506  -15.3473   27.2205 C.ar    1  UNL1        0.1748
     19 N          -8.4141  -15.4337   25.7319 N.ar    1  UNL1       -0.3379
     20 H          -9.2689  -15.4639   25.2444 H       1  UNL1        0.1672
@<TRIPOS>BOND
     1    10    11    1
     2    11    12    1
     3    11    13    1
     4    11     9    1
     5     9     7    1
     6     7     8    2
     7     7     1    1
     8     1     2   ar
     9     2     3   ar
    10     3     4   ar
    11     4     5   ar
    12     5    14    1
    13    14    15    1
    14    15    16   ar
    15    16    17   ar
    16    17    18   ar
    17    18    19   ar
    18     5     6   ar
    19     6     1   ar
    20    19    15   ar
    21    19    20    1
@<TRIPOS>MOLECULE
*****
 20 21 0 0 0
SMALL
GASTEIGER

@<TRIPOS>ATOM
      1 C          -7.8085  -19.5200   20.4247 C.ar    1  UNL1        0.0344
      2 C          -8.7796  -19.7754   19.3104 C.ar    1  UNL1        0.0028
      3 C         -10.1979  -19.3018   19.4283 C.ar    1  UNL1       -0.0002
      4 C         -10.6452  -18.5727   20.6605 C.ar    1  UNL1       -0.0039
      5 C          -9.6741  -18.3173   21.7748 C.ar    1  UNL1       -0.0161
      6 C          -8.2558  -18.7910   21.6569 C.ar    1  UNL1       -0.0010
      7 C          -6.3901  -19.9936   20.3068 C.2     1  UNL1        0.1730
      8 O          -6.0961  -21.4601   20.1924 O.2     1  UNL1       -0.2913
      9 C          -5.2657  -19.0009   20.3033 C.3     1  UNL1        0.0691
     10 C          -3.3435  -19.4441   19.5231 C.3     1  UNL1        0.0004
     11 C          -3.9386  -19.3686   20.8979 C.3     1  UNL1        0.0073
     12 C          -4.5338  -19.2931   22.2727 C.3     1  UNL1        0.0004
     13 C          -2.6115  -19.7363   21.4926 C.3     1  UNL1        0.0004
     14 C         -10.1214  -17.5882   23.0071 C.3     1  UNL1        0.0715
     15 C          -9.1784  -16.6595   23.7128 C.ar    1  UNL1        0.0586
     16 C          -8.8405  -16.6890   25.1740 C.ar    1  UNL1        0.1134
     17 N          -7.8610  -15.5859   25.4455 N.ar    1  UNL1       -0.2229
     18 C          -7.5935  -14.8747   24.1522 C.ar    1  UNL1        0.1748
     19 N          -8.4077  -15.5382   23.0814 N.ar    1  UNL1       -0.3379
     20 H          -8.4320  -15.2826   22.1309 H       1  UNL1        0.1672
@<TRIPOS>BOND
     1    10    11    1
     2    11    12    1
     3    11    13    1
     4    11     9    1
     5     9     7    1
     6     7     8    2
     7     7     1    1
     8     1     2   ar
     9     2     3   ar
    10     3     4   ar
    11     4     5   ar
    12     5    14    1
    13    14    15    1
    14    15    16   ar
    15    16    17   ar
    16    17    18   ar
    17    18    19   ar
    18     5     6   ar
    19     6     1   ar
    20    19    15   ar
    21    19    20    1
@<TRIPOS>MOLECULE
*****
 20 21 0 0 0
SMALL
GASTEIGER

@<TRIPOS>ATOM
      1 C          -8.6629  -16.4746   23.1393 C.ar    1  UNL1        0.0344
      2 C          -9.3740  -16.1530   24.4203 C.ar    1  UNL1        0.0028
      3 C          -8.6024  -15.6300   25.5955 C.ar    1  UNL1       -0.0002
      4 C          -7.1198  -15.4285   25.4897 C.ar    1  UNL1       -0.0039
      5 C          -6.4088  -15.7500   24.2087 C.ar    1  UNL1       -0.0161
      6 C          -7.1803  -16.2731   23.0335 C.ar    1  UNL1       -0.0010
      7 C          -9.4345  -16.9976   21.9641 C.2     1  UNL1        0.1730
      8 O         -10.0732  -16.0416   21.0007 O.2     1  UNL1       -0.2913
      9 C          -9.5673  -18.4766   21.7522 C.3     1  UNL1        0.0691
     10 C         -11.3895  -18.8271   22.7803 C.3     1  UNL1        0.0004
     11 C          -9.9920  -19.3616   22.8865 C.3     1  UNL1        0.0073
     12 C          -8.5945  -19.8960   22.9926 C.3     1  UNL1        0.0004
     13 C         -10.4166  -20.2465   24.0207 C.3     1  UNL1        0.0004
     14 C          -4.9261  -15.5486   24.1029 C.3     1  UNL1        0.0715
     15 C          -4.0930  -16.5118   23.3104 C.ar    1  UNL1        0.0586
     16 C          -4.1030  -18.0055   23.4466 C.ar    1  UNL1        0.1134
     17 N          -3.1198  -18.5673   22.4629 N.ar    1  UNL1       -0.2229
     18 C          -2.5021  -17.4207   21.7186 C.ar    1  UNL1        0.1748
     19 N          -3.1036  -16.1503   22.2424 N.ar    1  UNL1       -0.3379
     20 H          -2.8871  -15.2393   21.9386 H       1  UNL1        0.1672
@<TRIPOS>BOND
     1    10    11    1
     2    11    12    1
     3    11    13    1
     4    11     9    1
     5     9     7    1
     6     7     8    2
     7     7     1    1
     8     1     2   ar
     9     2     3   ar
    10     3     4   ar
    11     4     5   ar
    12     5    14    1
    13    14    15    1
    14    15    16   ar
    15    16    17   ar
    16    17    18   ar
    17    18    19   ar
    18     5     6   ar
    19     6     1   ar
    20    19    15   ar
    21    19    20    1
@<TRIPOS>MOLECULE
*****
 20 21 0 0 0
SMALL
GASTEIGER

@<TRIPOS>ATOM
      1 C          -6.2501  -17.0086   23.0950 C.ar    1  UNL1        0.0344
      2 C          -5.0727  -17.9097   22.8678 C.ar    1  UNL1        0.0028
      3 C          -5.2805  -19.2936   22.3278 C.ar    1  UNL1       -0.0002
      4 C          -6.6657  -19.7764   22.0150 C.ar    1  UNL1       -0.0039
      5 C          -7.8432  -18.8754   22.2423 C.ar    1  UNL1       -0.0161
      6 C          -7.6353  -17.4915   22.7822 C.ar    1  UNL1       -0.0010
      7 C          -6.0423  -15.6247   23.6350 C.2     1  UNL1        0.1730
      8 O          -4.8679  -14.8103   23.1793 O.2     1  UNL1       -0.2913
      9 C          -7.0088  -15.0551   24.6306 C.3     1  UNL1        0.0691
     10 C          -5.5497  -15.2495   26.1581 C.3     1  UNL1        0.0004
     11 C          -7.0132  -15.5578   26.0439 C.3     1  UNL1        0.0073
     12 C          -8.4767  -15.8661   25.9296 C.3     1  UNL1        0.0004
     13 C          -7.0176  -16.0605   27.4571 C.3     1  UNL1        0.0004
     14 C          -9.2285  -19.3582   21.9295 C.3     1  UNL1        0.0715
     15 C         -10.2517  -18.4032   21.3900 C.ar    1  UNL1        0.0586
     16 C         -11.4134  -17.8342   22.1493 C.ar    1  UNL1        0.1134
     17 N         -12.1725  -16.9289   21.2252 N.ar    1  UNL1       -0.2229
     18 C         -11.4799  -16.9383   19.8946 C.ar    1  UNL1        0.1748
     19 N         -10.2927  -17.8495   19.9966 N.ar    1  UNL1       -0.3379
     20 H          -9.6528  -18.0491   19.2755 H       1  UNL1        0.1672
@<TRIPOS>BOND
     1    10    11    1
     2    11    12    1
     3    11    13    1
     4    11     9    1
     5     9     7    1
     6     7     8    2
     7     7     1    1
     8     1     2   ar
     9     2     3   ar
    10     3     4   ar
    11     4     5   ar
    12     5    14    1
    13    14    15    1
    14    15    16   ar
    15    16    17   ar
    16    17    18   ar
    17    18    19   ar
    18     5     6   ar
    19     6     1   ar
    20    19    15   ar
    21    19    20    1
