@<TRIPOS>MOLECULE
*****
 17 19 0 0 0
SMALL
GASTEIGER

@<TRIPOS>ATOM
      1 C          -6.9904  -19.1746   20.8556 C.ar    1  UNL1        0.2034
      2 N          -7.6944  -19.1444   19.5314 N.ar    1  UNL1       -0.0560
      3 O          -9.1472  -18.8706   19.7850 O.2     1  UNL1       -0.3370
      4 C          -9.3412  -18.7316   21.2659 C.ar    1  UNL1        0.2361
      5 N          -8.0082  -18.9195   21.9275 N.ar    1  UNL1       -0.1908
      6 C          -3.2668  -20.4100   20.2567 C.ar    1  UNL1        0.0990
      7 C          -4.7314  -20.1673   20.0422 C.ar    1  UNL1        0.0238
      8 C          -5.5258  -19.4174   21.0701 C.ar    1  UNL1        0.0422
      9 C          -4.8556  -18.9103   22.3125 C.ar    1  UNL1        0.0238
     10 C          -3.3910  -19.1531   22.5271 C.ar    1  UNL1        0.0990
     11 N          -2.5966  -19.9029   21.4991 N.ar    1  UNL1       -0.2423
     12 C         -10.6400  -18.4535   21.9628 C.3     1  UNL1        0.0793
     13 C         -10.7819  -18.7424   23.4279 C.3     1  UNL1        0.0093
     14 C         -12.0807  -18.4644   24.1248 C.3     1  UNL1        0.0005
     15 C         -13.2377  -17.8974   23.3566 C.3     1  UNL1        0.0000
     16 C         -13.0958  -17.6086   21.8916 C.3     1  UNL1        0.0005
     17 C         -11.7970  -17.8866   21.1947 C.3     1  UNL1        0.0093
@<TRIPOS>BOND
     1     6     7   ar
     2     7     8   ar
     3     8     1    1
     4     1     2   ar
     5     2     3   ar
     6     3     4   ar
     7     4    12    1
     8    12    13    1
     9    13    14    1
    10    14    15    1
    11    15    16    1
    12    16    17    1
    13     4     5   ar
    14     8     9   ar
    15     9    10   ar
    16    10    11   ar
    17    11     6   ar
    18     5     1   ar
    19    17    12    1
@<TRIPOS>MOLECULE
*****
 17 19 0 0 0
SMALL
GASTEIGER

@<TRIPOS>ATOM
      1 C          -6.9999  -19.1755   20.8441 C.ar    1  UNL1        0.2034
      2 N          -7.7009  -19.1514   19.5182 N.ar    1  UNL1       -0.0560
      3 O          -9.1538  -18.8739   19.7670 O.2     1  UNL1       -0.3370
      4 C          -9.3509  -18.7265   21.2467 C.ar    1  UNL1        0.2361
      5 N          -8.0197  -18.9129   21.9124 N.ar    1  UNL1       -0.1908
      6 C          -3.4042  -19.1497   22.5235 C.ar    1  UNL1        0.0990
      7 C          -4.8679  -18.9059   22.3042 C.ar    1  UNL1        0.0238
      8 C          -5.5361  -19.4194   21.0634 C.ar    1  UNL1        0.0422
      9 C          -4.7407  -20.1768   20.0418 C.ar    1  UNL1        0.0238
     10 C          -3.2771  -20.4206   20.2611 C.ar    1  UNL1        0.0990
     11 N          -2.6088  -19.9071   21.5019 N.ar    1  UNL1       -0.2423
     12 C         -10.6508  -18.4425   21.9391 C.3     1  UNL1        0.0793
     13 C         -11.8036  -17.8735   21.1661 C.3     1  UNL1        0.0093
     14 C         -13.1035  -17.5895   21.8585 C.3     1  UNL1        0.0005
     15 C         -13.2508  -17.8745   23.3238 C.3     1  UNL1        0.0000
     16 C         -12.0980  -18.4435   24.0967 C.3     1  UNL1        0.0005
     17 C         -10.7981  -18.7275   23.4044 C.3     1  UNL1        0.0093
@<TRIPOS>BOND
     1     6     7   ar
     2     7     8   ar
     3     8     1    1
     4     1     2   ar
     5     2     3   ar
     6     3     4   ar
     7     4    12    1
     8    12    13    1
     9    13    14    1
    10    14    15    1
    11    15    16    1
    12    16    17    1
    13     4     5   ar
    14     8     9   ar
    15     9    10   ar
    16    10    11   ar
    17    11     6   ar
    18     5     1   ar
    19    17    12    1
@<TRIPOS>MOLECULE
*****
 17 19 0 0 0
SMALL
GASTEIGER

@<TRIPOS>ATOM
      1 C          -6.4602  -18.2320   22.3856 C.ar    1  UNL1        0.2034
      2 N          -6.4484  -16.8920   23.0596 N.ar    1  UNL1       -0.0560
      3 O          -7.8575  -16.5570   23.4497 O.2     1  UNL1       -0.3370
      4 C          -8.7402  -17.6899   23.0167 C.ar    1  UNL1        0.2361
      5 N          -7.8766  -18.7251   22.3591 N.ar    1  UNL1       -0.1908
      6 C          -2.7267  -19.4972   21.9268 C.ar    1  UNL1        0.0990
      7 C          -3.9215  -18.7768   22.4776 C.ar    1  UNL1        0.0238
      8 C          -5.2653  -18.9524   21.8347 C.ar    1  UNL1        0.0422
      9 C          -5.4143  -19.8484   20.6410 C.ar    1  UNL1        0.0238
     10 C          -4.2195  -20.5688   20.0902 C.ar    1  UNL1        0.0990
     11 N          -2.8757  -20.3931   20.7331 N.ar    1  UNL1       -0.2423
     12 C         -10.2256  -17.7730   23.2079 C.3     1  UNL1        0.0793
     13 C         -11.1426  -17.0087   22.2996 C.3     1  UNL1        0.0093
     14 C         -12.6280  -17.0918   22.4907 C.3     1  UNL1        0.0005
     15 C         -13.1965  -17.9392   23.5901 C.3     1  UNL1        0.0000
     16 C         -12.2796  -18.7035   24.4985 C.3     1  UNL1        0.0005
     17 C         -10.7941  -18.6204   24.3073 C.3     1  UNL1        0.0093
@<TRIPOS>BOND
     1     6     7   ar
     2     7     8   ar
     3     8     1    1
     4     1     2   ar
     5     2     3   ar
     6     3     4   ar
     7     4    12    1
     8    12    13    1
     9    13    14    1
    10    14    15    1
    11    15    16    1
    12    16    17    1
    13     4     5   ar
    14     8     9   ar
    15     9    10   ar
    16    10    11   ar
    17    11     6   ar
    18     5     1   ar
    19    17    12    1
@<TRIPOS>MOLECULE
*****
 17 19 0 0 0
SMALL
GASTEIGER

@<TRIPOS>ATOM
      1 C          -9.3442  -18.6842   21.2932 C.ar    1  UNL1        0.2034
      2 N          -9.1300  -18.8435   19.8172 N.ar    1  UNL1       -0.0560
      3 O          -7.6669  -19.0781   19.5838 O.2     1  UNL1       -0.3370
      4 C          -6.9769  -19.0637   20.9156 C.ar    1  UNL1        0.2361
      5 N          -8.0135  -18.8203   21.9721 N.ar    1  UNL1       -0.1908
      6 C         -13.1320  -17.6459   21.8629 C.ar    1  UNL1        0.0990
      7 C         -11.8179  -17.8972   21.1848 C.ar    1  UNL1        0.0238
      8 C         -10.6584  -18.4329   21.9714 C.ar    1  UNL1        0.0422
      9 C         -10.8130  -18.7173   23.4360 C.ar    1  UNL1        0.0238
     10 C         -12.1272  -18.4660   24.1141 C.ar    1  UNL1        0.0990
     11 N         -13.2867  -17.9303   23.3275 N.ar    1  UNL1       -0.2423
     12 C          -5.5082  -19.2585   21.1498 C.3     1  UNL1        0.0793
     13 C          -4.6925  -20.0552   20.1752 C.3     1  UNL1        0.0093
     14 C          -3.2238  -20.2500   20.4094 C.3     1  UNL1        0.0005
     15 C          -2.5708  -19.6482   21.6182 C.3     1  UNL1        0.0000
     16 C          -3.3864  -18.8515   22.5929 C.3     1  UNL1        0.0005
     17 C          -4.8551  -18.6567   22.3587 C.3     1  UNL1        0.0093
@<TRIPOS>BOND
     1     6     7   ar
     2     7     8   ar
     3     8     1    1
     4     1     2   ar
     5     2     3   ar
     6     3     4   ar
     7     4    12    1
     8    12    13    1
     9    13    14    1
    10    14    15    1
    11    15    16    1
    12    16    17    1
    13     4     5   ar
    14     8     9   ar
    15     9    10   ar
    16    10    11   ar
    17    11     6   ar
    18     5     1   ar
    19    17    12    1
@<TRIPOS>MOLECULE
*****
 17 19 0 0 0
SMALL
GASTEIGER

@<TRIPOS>ATOM
      1 C          -3.4366  -16.4671   22.4273 C.ar    1  UNL1        0.2034
      2 N          -3.4929  -14.9723   22.3168 N.ar    1  UNL1       -0.0560
      3 O          -4.5384  -14.4761   23.2711 O.2     1  UNL1       -0.3370
      4 C          -5.1282  -15.6643   23.9715 C.ar    1  UNL1        0.2361
      5 N          -4.4472  -16.8948   23.4499 N.ar    1  UNL1       -0.1908
      6 C          -0.4822  -17.7087   20.0863 C.ar    1  UNL1        0.0990
      7 C          -1.3898  -16.8009   20.8622 C.ar    1  UNL1        0.0238
      8 C          -2.5290  -17.3750   21.6513 C.ar    1  UNL1        0.0422
      9 C          -2.7605  -18.8569   21.6644 C.ar    1  UNL1        0.0238
     10 C          -1.8529  -19.7647   20.8885 C.ar    1  UNL1        0.0990
     11 N          -0.7137  -19.1906   20.0994 N.ar    1  UNL1       -0.2423
     12 C          -6.2091  -15.6282   25.0109 C.3     1  UNL1        0.0793
     13 C          -5.8488  -15.5839   26.4663 C.3     1  UNL1        0.0093
     14 C          -6.9297  -15.5479   27.5056 C.3     1  UNL1        0.0005
     15 C          -8.3709  -15.5561   27.0896 C.3     1  UNL1        0.0000
     16 C          -8.7311  -15.6004   25.6342 C.3     1  UNL1        0.0005
     17 C          -7.6502  -15.6364   24.5948 C.3     1  UNL1        0.0093
@<TRIPOS>BOND
     1     6     7   ar
     2     7     8   ar
     3     8     1    1
     4     1     2   ar
     5     2     3   ar
     6     3     4   ar
     7     4    12    1
     8    12    13    1
     9    13    14    1
    10    14    15    1
    11    15    16    1
    12    16    17    1
    13     4     5   ar
    14     8     9   ar
    15     9    10   ar
    16    10    11   ar
    17    11     6   ar
    18     5     1   ar
    19    17    12    1
@<TRIPOS>MOLECULE
*****
 17 19 0 0 0
SMALL
GASTEIGER

@<TRIPOS>ATOM
      1 C          -8.4969  -18.5029   21.7264 C.ar    1  UNL1        0.2034
      2 N          -8.2767  -19.7936   22.4582 N.ar    1  UNL1       -0.0560
      3 O          -6.8245  -20.1505   22.3418 O.2     1  UNL1       -0.3370
      4 C          -6.1471  -19.0803   21.5381 C.ar    1  UNL1        0.2361
      5 N          -7.1807  -18.0620   21.1578 N.ar    1  UNL1       -0.1908
      6 C         -11.6203  -16.2060   22.5742 C.ar    1  UNL1        0.0990
      7 C         -10.3134  -16.9290   22.7130 C.ar    1  UNL1        0.0238
      8 C          -9.8039  -17.7799   21.5876 C.ar    1  UNL1        0.0422
      9 C         -10.6012  -17.9078   20.3236 C.ar    1  UNL1        0.0238
     10 C         -11.9081  -17.1848   20.1849 C.ar    1  UNL1        0.0990
     11 N         -12.4176  -16.3339   21.3102 N.ar    1  UNL1       -0.2423
     12 C          -4.6916  -19.0361   21.1780 C.3     1  UNL1        0.0793
     13 C          -4.2767  -18.9823   19.7376 C.3     1  UNL1        0.0093
     14 C          -2.8213  -18.9382   19.3775 C.3     1  UNL1        0.0005
     15 C          -1.7807  -18.9478   20.4579 C.3     1  UNL1        0.0000
     16 C          -2.1956  -19.0017   21.8983 C.3     1  UNL1        0.0005
     17 C          -3.6510  -19.0458   22.2584 C.3     1  UNL1        0.0093
@<TRIPOS>BOND
     1     6     7   ar
     2     7     8   ar
     3     8     1    1
     4     1     2   ar
     5     2     3   ar
     6     3     4   ar
     7     4    12    1
     8    12    13    1
     9    13    14    1
    10    14    15    1
    11    15    16    1
    12    16    17    1
    13     4     5   ar
    14     8     9   ar
    15     9    10   ar
    16    10    11   ar
    17    11     6   ar
    18     5     1   ar
    19    17    12    1
@<TRIPOS>MOLECULE
*****
 17 19 0 0 0
SMALL
GASTEIGER

@<TRIPOS>ATOM
      1 C          -4.8435  -19.0862   21.1402 C.ar    1  UNL1        0.2034
      2 N          -5.2916  -20.4781   20.8061 N.ar    1  UNL1       -0.0560
      3 O          -6.6447  -20.6889   21.4182 O.2     1  UNL1       -0.3370
      4 C          -7.0329  -19.4272   22.1306 C.ar    1  UNL1        0.2361
      5 N          -5.9196  -18.4367   21.9587 N.ar    1  UNL1       -0.1908
      6 C          -1.4940  -16.9625   21.2843 C.ar    1  UNL1        0.0990
      7 C          -2.7906  -17.5941   21.6964 C.ar    1  UNL1        0.0238
      8 C          -3.5468  -18.4546   20.7280 C.ar    1  UNL1        0.0422
      9 C          -3.0064  -18.6834   19.3476 C.ar    1  UNL1        0.0238
     10 C          -1.7099  -18.0518   18.9355 C.ar    1  UNL1        0.0990
     11 N          -0.9536  -17.1913   19.9039 N.ar    1  UNL1       -0.2423
     12 C          -8.3100  -19.1966   22.8827 C.3     1  UNL1        0.0793
     13 C          -9.0523  -20.3581   23.4741 C.3     1  UNL1        0.0093
     14 C         -10.3294  -20.1275   24.2263 C.3     1  UNL1        0.0005
     15 C         -10.8642  -18.7353   24.3870 C.3     1  UNL1        0.0000
     16 C         -10.1219  -17.5737   23.7956 C.3     1  UNL1        0.0005
     17 C          -8.8448  -17.8044   23.0435 C.3     1  UNL1        0.0093
@<TRIPOS>BOND
     1     6     7   ar
     2     7     8   ar
     3     8     1    1
     4     1     2   ar
     5     2     3   ar
     6     3     4   ar
     7     4    12    1
     8    12    13    1
     9    13    14    1
    10    14    15    1
    11    15    16    1
    12    16    17    1
    13     4     5   ar
    14     8     9   ar
    15     9    10   ar
    16    10    11   ar
    17    11     6   ar
    18     5     1   ar
    19    17    12    1
@<TRIPOS>MOLECULE
*****
 17 19 0 0 0
SMALL
GASTEIGER

@<TRIPOS>ATOM
      1 C          -8.7286  -17.5183   22.9438 C.ar    1  UNL1        0.2034
      2 N          -7.8549  -16.4134   23.4593 N.ar    1  UNL1       -0.0560
      3 O          -6.4346  -16.7428   23.1070 O.2     1  UNL1       -0.3370
      4 C          -6.4304  -18.0514   22.3737 C.ar    1  UNL1        0.2361
      5 N          -7.8482  -18.5307   22.2729 N.ar    1  UNL1       -0.1908
      6 C         -12.3271  -18.5397   24.2695 C.ar    1  UNL1        0.0990
      7 C         -10.8350  -18.4609   24.1373 C.ar    1  UNL1        0.0238
      8 C         -10.2207  -17.5971   23.0760 C.ar    1  UNL1        0.0422
      9 C         -11.0984  -16.8122   22.1468 C.ar    1  UNL1        0.0238
     10 C         -12.5905  -16.8910   22.2790 C.ar    1  UNL1        0.0990
     11 N         -13.2048  -17.7548   23.3403 N.ar    1  UNL1       -0.2423
     12 C          -5.2209  -18.7568   21.8358 C.3     1  UNL1        0.0793
     13 C          -5.3471  -19.6598   20.6447 C.3     1  UNL1        0.0093
     14 C          -4.1376  -20.3652   20.1068 C.3     1  UNL1        0.0005
     15 C          -2.8018  -20.1676   20.7600 C.3     1  UNL1        0.0000
     16 C          -2.6755  -19.2647   21.9511 C.3     1  UNL1        0.0005
     17 C          -3.8851  -18.5593   22.4890 C.3     1  UNL1        0.0093
@<TRIPOS>BOND
     1     6     7   ar
     2     7     8   ar
     3     8     1    1
     4     1     2   ar
     5     2     3   ar
     6     3     4   ar
     7     4    12    1
     8    12    13    1
     9    13    14    1
    10    14    15    1
    11    15    16    1
    12    16    17    1
    13     4     5   ar
    14     8     9   ar
    15     9    10   ar
    16    10    11   ar
    17    11     6   ar
    18     5     1   ar
    19    17    12    1
@<TRIPOS>MOLECULE
*****
 17 19 0 0 0
SMALL
GASTEIGER

@<TRIPOS>ATOM
      1 C          -6.8688  -19.6694   20.5191 C.ar    1  UNL1        0.2034
      2 N          -6.1451  -20.9646   20.2984 N.ar    1  UNL1       -0.0560
      3 O          -4.6792  -20.6645   20.1943 O.2     1  UNL1       -0.3370
      4 C          -4.4968  -19.1839   20.3507 C.ar    1  UNL1        0.2361
      5 N          -5.8501  -18.5689   20.5514 N.ar    1  UNL1       -0.1908
      6 C         -10.4356  -19.2636   22.2113 C.ar    1  UNL1        0.0990
      7 C          -8.9535  -19.4293   22.0510 C.ar    1  UNL1        0.0238
      8 C          -8.3511  -19.5038   20.6793 C.ar    1  UNL1        0.0422
      9 C          -9.2308  -19.4126   19.4679 C.ar    1  UNL1        0.0238
     10 C         -10.7130  -19.2470   19.6281 C.ar    1  UNL1        0.0990
     11 N         -11.3154  -19.1725   20.9998 N.ar    1  UNL1       -0.2423
     12 C          -3.1905  -18.4476   20.3131 C.3     1  UNL1        0.0793
     13 C          -2.8049  -17.5458   21.4480 C.3     1  UNL1        0.0093
     14 C          -1.4986  -16.8095   21.4103 C.3     1  UNL1        0.0005
     15 C          -0.5779  -16.9749   20.2377 C.3     1  UNL1        0.0000
     16 C          -0.9635  -17.8767   19.1028 C.3     1  UNL1        0.0005
     17 C          -2.2698  -18.6130   19.1404 C.3     1  UNL1        0.0093
@<TRIPOS>BOND
     1     6     7   ar
     2     7     8   ar
     3     8     1    1
     4     1     2   ar
     5     2     3   ar
     6     3     4   ar
     7     4    12    1
     8    12    13    1
     9    13    14    1
    10    14    15    1
    11    15    16    1
    12    16    17    1
    13     4     5   ar
    14     8     9   ar
    15     9    10   ar
    16    10    11   ar
    17    11     6   ar
    18     5     1   ar
    19    17    12    1
