@<TRIPOS>MOLECULE
*****
 34 38 0 0 0
SMALL
GASTEIGER

@<TRIPOS>ATOM
      1 C           8.1666   -5.2454   24.1432 C.ar    1  UNL1        0.2037
      2 N           9.1014   -4.0724   24.1293 N.ar    1  UNL1       -0.0555
      3 O           8.6549   -3.1366   23.0455 O.2     1  UNL1       -0.3291
      4 C           7.4440   -3.7312   22.3895 C.ar    1  UNL1        0.2973
      5 N           7.1422   -5.0345   23.0679 N.ar    1  UNL1       -0.1843
      6 C           8.3950   -8.7770   26.9228 C.ar    1  UNL1       -0.0061
      7 C           7.2002   -7.8708   26.9581 C.ar    1  UNL1       -0.0028
      8 C           7.1241   -6.6936   26.0316 C.ar    1  UNL1        0.0029
      9 C           8.2427   -6.4227   25.0698 C.ar    1  UNL1        0.0391
     10 C           9.4375   -7.3288   25.0344 C.ar    1  UNL1        0.0029
     11 C           9.5136   -8.5060   25.9609 C.ar    1  UNL1       -0.0028
     12 C           8.4711   -9.9542   27.8493 C.3     1  UNL1        0.0992
     13 C           5.7669  -12.3608   27.9454 C.3     1  UNL1        0.0684
     14 C           7.2397  -12.4085   28.2258 C.3     1  UNL1        0.0793
     15 N           7.3510  -10.9510   27.8891 N.3     1  UNL1       -0.2682
     16 C           5.8782  -10.9033   27.6087 C.3     1  UNL1        0.0793
     17 O           4.4605  -14.3222   26.8516 O.co2   1  UNL1       -0.5491
     18 C           4.6467  -13.3576   27.9851 C.2     1  UNL1        0.0527
     19 O           3.7127  -13.3898   29.1584 O.co2   1  UNL1       -0.5491
     20 C           6.6707   -3.1283   21.2543 C.ar    1  UNL1        0.2363
     21 O           7.0471   -3.1837   19.8034 O.2     1  UNL1       -0.3486
     22 N           5.9943   -2.4538   19.0232 N.ar    1  UNL1       -0.0768
     23 C           4.9671   -1.9474   19.9919 C.ar    1  UNL1        0.1270
     24 C           5.3851   -2.3643   21.3708 C.ar    1  UNL1        0.1340
     25 C           3.7378   -1.1620   19.6429 C.ar    1  UNL1        0.0209
     26 C           2.4641   -1.3854   20.4033 C.ar    1  UNL1        0.0016
     27 C           1.2347   -0.6000   20.0543 C.ar    1  UNL1        0.0000
     28 C           1.2790    0.4087   18.9450 C.ar    1  UNL1        0.0000
     29 C           2.5525    0.6320   18.1847 C.ar    1  UNL1        0.0000
     30 C           3.7819   -0.1533   18.5336 C.ar    1  UNL1        0.0016
     31 C           4.6472   -2.0690   22.6429 C.3     1  UNL1        0.4232
     32 F           3.9092   -1.7737   23.9150 F       1  UNL1       -0.1657
     33 F           5.1820   -0.6675   22.6278 F       1  UNL1       -0.1657
     34 F           4.1124   -3.4703   22.6580 F       1  UNL1       -0.1657
@<TRIPOS>UNITY_ATOM_ATTR
17 1
charge -1
@<TRIPOS>BOND
     1    17    18   ar
     2    18    19   ar
     3    18    13    1
     4    13    14    1
     5    14    15    1
     6    15    12    1
     7    12     6    1
     8     6     7   ar
     9     7     8   ar
    10     8     9   ar
    11     9     1    1
    12     1     2   ar
    13     2     3   ar
    14     3     4   ar
    15     4    20    1
    16    20    21   ar
    17    21    22   ar
    18    22    23   ar
    19    23    25    1
    20    25    26   ar
    21    26    27   ar
    22    27    28   ar
    23    28    29   ar
    24    29    30   ar
    25    23    24   ar
    26    24    31    1
    27    31    32    1
    28    31    33    1
    29    31    34    1
    30     4     5   ar
    31     9    10   ar
    32    10    11   ar
    33    15    16    1
    34    16    13    1
    35    11     6   ar
    36     5     1   ar
    37    24    20   ar
    38    30    25   ar
@<TRIPOS>MOLECULE
*****
 34 38 0 0 0
SMALL
GASTEIGER

@<TRIPOS>ATOM
      1 C           6.9363   -4.4322   24.8625 C.ar    1  UNL1        0.2037
      2 N           7.7474   -5.1972   23.8591 N.ar    1  UNL1       -0.0555
      3 O           7.1247   -4.9962   22.5094 O.2     1  UNL1       -0.3291
      4 C           5.9286   -4.1069   22.6787 C.ar    1  UNL1        0.2973
      5 N           5.8122   -3.7584   24.1330 N.ar    1  UNL1       -0.1843
      6 C           7.7349   -4.1998   29.2850 C.ar    1  UNL1       -0.0061
      7 C           6.9345   -5.3387   28.7263 C.ar    1  UNL1       -0.0028
      8 C           6.6683   -5.4161   27.2522 C.ar    1  UNL1        0.0029
      9 C           7.2025   -4.3547   26.3367 C.ar    1  UNL1        0.0391
     10 C           8.0030   -3.2158   26.8954 C.ar    1  UNL1        0.0029
     11 C           8.2692   -3.1384   28.3696 C.ar    1  UNL1       -0.0028
     12 C           8.0012   -4.1223   30.7592 C.3     1  UNL1        0.0992
     13 C           5.8688   -2.1058   32.8807 C.3     1  UNL1        0.0684
     14 C           5.9507   -3.5640   32.5384 C.3     1  UNL1        0.0793
     15 N           7.1179   -3.2870   31.6379 N.3     1  UNL1       -0.2682
     16 C           7.0360   -1.8289   31.9802 C.3     1  UNL1        0.0793
     17 O           3.6084   -0.8951   33.2987 O.co2   1  UNL1       -0.5491
     18 C           4.9856   -1.2705   33.7595 C.2     1  UNL1        0.0527
     19 O           5.4796   -0.8106   35.0990 O.co2   1  UNL1       -0.5491
     20 C           5.0101   -3.6469   21.5855 C.ar    1  UNL1        0.2363
     21 O           4.5551   -4.4652   20.4136 O.2     1  UNL1       -0.3486
     22 N           3.6493   -3.6119   19.5762 N.ar    1  UNL1       -0.0768
     23 C           3.5445   -2.2662   20.2305 C.ar    1  UNL1        0.1270
     24 C           4.3855   -2.2879   21.4723 C.ar    1  UNL1        0.1340
     25 C           2.7399   -1.1032   19.7307 C.ar    1  UNL1        0.0209
     26 C           1.3827   -0.8272   20.3071 C.ar    1  UNL1        0.0016
     27 C           0.5780    0.3359   19.8073 C.ar    1  UNL1        0.0000
     28 C           1.1305    1.2229   18.7312 C.ar    1  UNL1        0.0000
     29 C           2.4875    0.9469   18.1548 C.ar    1  UNL1        0.0000
     30 C           3.2922   -0.2162   18.6546 C.ar    1  UNL1        0.0016
     31 C           4.5696   -1.1502   22.4324 C.3     1  UNL1        0.4232
     32 F           4.7538   -0.0125   23.3925 F       1  UNL1       -0.1657
     33 F           3.2684   -1.4972   23.0932 F       1  UNL1       -0.1657
     34 F           5.8708   -0.8032   21.7717 F       1  UNL1       -0.1657
@<TRIPOS>UNITY_ATOM_ATTR
17 1
charge -1
@<TRIPOS>BOND
     1    17    18   ar
     2    18    19   ar
     3    18    13    1
     4    13    14    1
     5    14    15    1
     6    15    12    1
     7    12     6    1
     8     6     7   ar
     9     7     8   ar
    10     8     9   ar
    11     9     1    1
    12     1     2   ar
    13     2     3   ar
    14     3     4   ar
    15     4    20    1
    16    20    21   ar
    17    21    22   ar
    18    22    23   ar
    19    23    25    1
    20    25    26   ar
    21    26    27   ar
    22    27    28   ar
    23    28    29   ar
    24    29    30   ar
    25    23    24   ar
    26    24    31    1
    27    31    32    1
    28    31    33    1
    29    31    34    1
    30     4     5   ar
    31     9    10   ar
    32    10    11   ar
    33    15    16    1
    34    16    13    1
    35    11     6   ar
    36     5     1   ar
    37    24    20   ar
    38    30    25   ar
@<TRIPOS>MOLECULE
*****
 34 38 0 0 0
SMALL
GASTEIGER

@<TRIPOS>ATOM
      1 C           7.9261   -4.3081   21.5516 C.ar    1  UNL1        0.2037
      2 N           9.0484   -3.9635   20.6179 N.ar    1  UNL1       -0.0555
      3 O           8.4986   -3.0782   19.5390 O.2     1  UNL1       -0.3291
      4 C           7.0365   -2.8757   19.8059 C.ar    1  UNL1        0.2973
      5 N           6.6827   -3.6357   21.0497 N.ar    1  UNL1       -0.1843
      6 C           8.2351   -6.9031   25.2149 C.ar    1  UNL1       -0.0061
      7 C           7.4720   -5.6131   25.2719 C.ar    1  UNL1       -0.0028
      8 C           7.3690   -4.7481   24.0508 C.ar    1  UNL1        0.0029
      9 C           8.0291   -5.1731   22.7727 C.ar    1  UNL1        0.0391
     10 C           8.7923   -6.4632   22.7157 C.ar    1  UNL1        0.0029
     11 C           8.8953   -7.3282   23.9368 C.ar    1  UNL1       -0.0028
     12 C           8.3382   -7.7682   26.4361 C.3     1  UNL1        0.0992
     13 C           7.9484   -6.3086   29.7272 C.3     1  UNL1        0.0684
     14 C           8.9083   -7.2781   29.1038 C.3     1  UNL1        0.0793
     15 N           8.1767   -7.1636   27.7993 N.3     1  UNL1       -0.2682
     16 C           7.2168   -6.1941   28.4227 C.3     1  UNL1        0.0793
     17 O           6.7941   -6.2824   32.0546 O.co2   1  UNL1       -0.5491
     18 C           7.7869   -5.7039   31.0905 C.2     1  UNL1        0.0527
     19 O           8.6182   -4.5209   31.4895 O.co2   1  UNL1       -0.5491
     20 C           6.0937   -2.0567   18.9749 C.ar    1  UNL1        0.2363
     21 O           5.8970   -2.1727   17.4924 O.2     1  UNL1       -0.3486
     22 N           4.8639   -1.1657   17.0817 N.ar    1  UNL1       -0.0768
     23 C           4.4221   -0.4274   18.3104 C.ar    1  UNL1        0.1270
     24 C           5.1822   -0.9781   19.4804 C.ar    1  UNL1        0.1340
     25 C           3.3997    0.6690   18.3603 C.ar    1  UNL1        0.0209
     26 C           1.9387    0.3309   18.3981 C.ar    1  UNL1        0.0016
     27 C           0.9163    1.4274   18.4480 C.ar    1  UNL1        0.0000
     28 C           1.3548    2.8617   18.4599 C.ar    1  UNL1        0.0000
     29 C           2.8157    3.1998   18.4221 C.ar    1  UNL1        0.0000
     30 C           3.8382    2.1034   18.3722 C.ar    1  UNL1        0.0016
     31 C           5.0533   -0.5291   20.9058 C.3     1  UNL1        0.4232
     32 F           4.9244   -0.0799   22.3312 F       1  UNL1       -0.1657
     33 F           4.0445   -1.6108   21.1554 F       1  UNL1       -0.1657
     34 F           6.0620    0.5526   20.6562 F       1  UNL1       -0.1657
@<TRIPOS>UNITY_ATOM_ATTR
17 1
charge -1
@<TRIPOS>BOND
     1    17    18   ar
     2    18    19   ar
     3    18    13    1
     4    13    14    1
     5    14    15    1
     6    15    12    1
     7    12     6    1
     8     6     7   ar
     9     7     8   ar
    10     8     9   ar
    11     9     1    1
    12     1     2   ar
    13     2     3   ar
    14     3     4   ar
    15     4    20    1
    16    20    21   ar
    17    21    22   ar
    18    22    23   ar
    19    23    25    1
    20    25    26   ar
    21    26    27   ar
    22    27    28   ar
    23    28    29   ar
    24    29    30   ar
    25    23    24   ar
    26    24    31    1
    27    31    32    1
    28    31    33    1
    29    31    34    1
    30     4     5   ar
    31     9    10   ar
    32    10    11   ar
    33    15    16    1
    34    16    13    1
    35    11     6   ar
    36     5     1   ar
    37    24    20   ar
    38    30    25   ar
@<TRIPOS>MOLECULE
*****
 34 38 0 0 0
SMALL
GASTEIGER

@<TRIPOS>ATOM
      1 C           4.1384   -0.0213   18.2744 C.ar    1  UNL1        0.2037
      2 N           4.5188   -0.8461   17.0807 N.ar    1  UNL1       -0.0555
      3 O           5.6012   -1.7963   17.4997 O.2     1  UNL1       -0.3291
      4 C           5.8897   -1.5587   18.9524 C.ar    1  UNL1        0.2973
      5 N           4.9857   -0.4617   19.4312 N.ar    1  UNL1       -0.1843
      6 C           1.0054    3.2075   18.3687 C.ar    1  UNL1       -0.0061
      7 C           0.5951    1.7652   18.3312 C.ar    1  UNL1       -0.0028
      8 C           1.6394    0.6890   18.2998 C.ar    1  UNL1        0.0029
      9 C           3.0940    1.0550   18.3059 C.ar    1  UNL1        0.0391
     10 C           3.5043    2.4973   18.3433 C.ar    1  UNL1        0.0029
     11 C           2.4600    3.5735   18.3748 C.ar    1  UNL1       -0.0028
     12 C          -0.0390    4.2838   18.4001 C.3     1  UNL1        0.0992
     13 C          -3.2588    3.6386   19.9267 C.3     1  UNL1        0.0684
     14 C          -2.7969    4.0621   18.5639 C.3     1  UNL1        0.0793
     15 N          -1.3726    4.0166   19.0324 N.3     1  UNL1       -0.2682
     16 C          -1.8346    3.5931   20.3953 C.3     1  UNL1        0.0793
     17 O          -5.8308    3.9997   19.9921 O.co2   1  UNL1       -0.5491
     18 C          -4.5925    3.3713   20.5591 C.2     1  UNL1        0.0527
     19 O          -4.6877    2.4757   21.7586 O.co2   1  UNL1       -0.5491
     20 C           6.9042   -2.2899   19.7809 C.ar    1  UNL1        0.2363
     21 O           8.3824   -2.0354   19.7917 O.2     1  UNL1       -0.3486
     22 N           9.0104   -2.9921   20.7614 N.ar    1  UNL1       -0.0768
     23 C           7.9202   -3.8378   21.3500 C.ar    1  UNL1        0.1270
     24 C           6.6186   -3.4038   20.7439 C.ar    1  UNL1        0.1340
     25 C           8.1003   -4.9263   22.3661 C.ar    1  UNL1        0.0209
     26 C           8.7946   -6.2004   21.9853 C.ar    1  UNL1        0.0016
     27 C           8.9746   -7.2890   23.0015 C.ar    1  UNL1        0.0000
     28 C           8.4604   -7.1036   24.3983 C.ar    1  UNL1        0.0000
     29 C           7.7661   -5.8296   24.7790 C.ar    1  UNL1        0.0000
     30 C           7.5860   -4.7410   23.7629 C.ar    1  UNL1        0.0016
     31 C           5.2684   -3.9822   21.0476 C.3     1  UNL1        0.4232
     32 F           3.9180   -4.5606   21.3514 F       1  UNL1       -0.1657
     33 F           5.3260   -4.7824   19.7801 F       1  UNL1       -0.1657
     34 F           5.2107   -3.1821   22.3151 F       1  UNL1       -0.1657
@<TRIPOS>UNITY_ATOM_ATTR
17 1
charge -1
@<TRIPOS>BOND
     1    17    18   ar
     2    18    19   ar
     3    18    13    1
     4    13    14    1
     5    14    15    1
     6    15    12    1
     7    12     6    1
     8     6     7   ar
     9     7     8   ar
    10     8     9   ar
    11     9     1    1
    12     1     2   ar
    13     2     3   ar
    14     3     4   ar
    15     4    20    1
    16    20    21   ar
    17    21    22   ar
    18    22    23   ar
    19    23    25    1
    20    25    26   ar
    21    26    27   ar
    22    27    28   ar
    23    28    29   ar
    24    29    30   ar
    25    23    24   ar
    26    24    31    1
    27    31    32    1
    28    31    33    1
    29    31    34    1
    30     4     5   ar
    31     9    10   ar
    32    10    11   ar
    33    15    16    1
    34    16    13    1
    35    11     6   ar
    36     5     1   ar
    37    24    20   ar
    38    30    25   ar
@<TRIPOS>MOLECULE
*****
 34 38 0 0 0
SMALL
GASTEIGER

@<TRIPOS>ATOM
      1 C           0.5370    1.7026   19.5870 C.ar    1  UNL1        0.2037
      2 N           0.4421    3.0534   18.9416 N.ar    1  UNL1       -0.0555
      3 O          -0.7458    3.7620   19.5221 O.2     1  UNL1       -0.3291
      4 C          -1.3850    2.8491   20.5262 C.ar    1  UNL1        0.2973
      5 N          -0.5922    1.5764   20.5662 N.ar    1  UNL1       -0.1843
      6 C           3.6609   -1.4222   18.7346 C.ar    1  UNL1       -0.0061
      7 C           3.6043   -0.1728   17.9064 C.ar    1  UNL1       -0.0028
      8 C           2.5630    0.8688   18.1906 C.ar    1  UNL1        0.0029
      9 C           1.5783    0.6610   19.3029 C.ar    1  UNL1        0.0391
     10 C           1.6349   -0.5884   20.1310 C.ar    1  UNL1        0.0029
     11 C           2.6762   -1.6299   19.8469 C.ar    1  UNL1       -0.0028
     12 C           4.7023   -2.4638   18.4505 C.3     1  UNL1        0.0992
     13 C           6.7771   -3.7294   21.1351 C.3     1  UNL1        0.0684
     14 C           7.0242   -2.9295   19.8905 C.3     1  UNL1        0.0793
     15 N           5.5617   -2.9880   19.5625 N.3     1  UNL1       -0.2682
     16 C           5.3145   -3.7879   20.8072 C.3     1  UNL1        0.0793
     17 O           7.9727   -3.3731   23.4141 O.co2   1  UNL1       -0.5491
     18 C           7.6365   -4.2536   22.2472 C.2     1  UNL1        0.0527
     19 O           8.1596   -5.6584   22.1924 O.co2   1  UNL1       -0.5491
     20 C          -2.6031    3.1553   21.3462 C.ar    1  UNL1        0.2363
     21 O          -4.0228    2.8658   20.9581 O.2     1  UNL1       -0.3486
     22 N          -4.9126    3.3363   22.0703 N.ar    1  UNL1       -0.0768
     23 C          -4.0427    3.9166   23.1458 C.ar    1  UNL1        0.1270
     24 C          -2.6155    3.8047   22.6982 C.ar    1  UNL1        0.1340
     25 C          -4.5170    4.5053   24.4412 C.ar    1  UNL1        0.0209
     26 C          -5.4170    5.7054   24.4347 C.ar    1  UNL1        0.0016
     27 C          -5.8913    6.2943   25.7303 C.ar    1  UNL1        0.0000
     28 C          -5.4656    5.6830   27.0322 C.ar    1  UNL1        0.0000
     29 C          -4.5657    4.4830   27.0388 C.ar    1  UNL1        0.0000
     30 C          -4.0914    3.8942   25.7433 C.ar    1  UNL1        0.0016
     31 C          -1.4118    4.2620   23.4676 C.3     1  UNL1        0.4232
     32 F          -0.2081    4.7194   24.2371 F       1  UNL1       -0.1657
     33 F          -1.5419    5.6273   22.8598 F       1  UNL1       -0.1657
     34 F          -1.2817    2.8969   24.0754 F       1  UNL1       -0.1657
@<TRIPOS>UNITY_ATOM_ATTR
17 1
charge -1
@<TRIPOS>BOND
     1    17    18   ar
     2    18    19   ar
     3    18    13    1
     4    13    14    1
     5    14    15    1
     6    15    12    1
     7    12     6    1
     8     6     7   ar
     9     7     8   ar
    10     8     9   ar
    11     9     1    1
    12     1     2   ar
    13     2     3   ar
    14     3     4   ar
    15     4    20    1
    16    20    21   ar
    17    21    22   ar
    18    22    23   ar
    19    23    25    1
    20    25    26   ar
    21    26    27   ar
    22    27    28   ar
    23    28    29   ar
    24    29    30   ar
    25    23    24   ar
    26    24    31    1
    27    31    32    1
    28    31    33    1
    29    31    34    1
    30     4     5   ar
    31     9    10   ar
    32    10    11   ar
    33    15    16    1
    34    16    13    1
    35    11     6   ar
    36     5     1   ar
    37    24    20   ar
    38    30    25   ar
@<TRIPOS>MOLECULE
*****
 34 38 0 0 0
SMALL
GASTEIGER

@<TRIPOS>ATOM
      1 C           0.2776    2.0551   25.3882 C.ar    1  UNL1        0.2037
      2 N          -0.3652    3.1132   24.5413 N.ar    1  UNL1       -0.0555
      3 O          -0.2017    2.7188   23.1033 O.2     1  UNL1       -0.3291
      4 C           0.5422    1.4168   23.0616 C.ar    1  UNL1        0.2973
      5 N           0.8384    1.0067   24.4737 N.ar    1  UNL1       -0.1843
      6 C           0.4867    2.0305   29.8833 C.ar    1  UNL1       -0.0061
      7 C           1.1679    3.1181   29.1067 C.ar    1  UNL1       -0.0028
      8 C           1.0982    3.1263   27.6084 C.ar    1  UNL1        0.0029
      9 C           0.3473    2.0469   26.8866 C.ar    1  UNL1        0.0391
     10 C          -0.3339    0.9593   27.6631 C.ar    1  UNL1        0.0029
     11 C          -0.2642    0.9511   29.1615 C.ar    1  UNL1       -0.0028
     12 C           0.5564    2.0223   31.3817 C.3     1  UNL1        0.0992
     13 C           3.4478    0.6211   33.0521 C.3     1  UNL1        0.0684
     14 C           2.7717    0.3941   31.7325 C.3     1  UNL1        0.0793
     15 N           1.7540    1.4419   32.0736 N.3     1  UNL1       -0.2682
     16 C           2.4301    1.6689   33.3932 C.3     1  UNL1        0.0793
     17 O           4.4944   -1.1711   34.6151 O.co2   1  UNL1       -0.5491
     18 C           4.6455    0.0408   33.7441 C.2     1  UNL1        0.0527
     19 O           5.9942    0.6723   33.5652 O.co2   1  UNL1       -0.5491
     20 C           0.9230    0.6583   21.8248 C.ar    1  UNL1        0.2363
     21 O           0.0471    0.4229   20.6301 O.2     1  UNL1       -0.3486
     22 N           0.8294   -0.3790   19.6326 N.ar    1  UNL1       -0.0768
     23 C           2.1888   -0.6391   20.2108 C.ar    1  UNL1        0.1270
     24 C           2.2466    0.0019   21.5656 C.ar    1  UNL1        0.1340
     25 C           3.2958   -1.4057   19.5501 C.ar    1  UNL1        0.0209
     26 C           4.3882   -0.6736   18.8284 C.ar    1  UNL1        0.0016
     27 C           5.4954   -1.4402   18.1676 C.ar    1  UNL1        0.0000
     28 C           5.5101   -2.9388   18.2285 C.ar    1  UNL1        0.0000
     29 C           4.4178   -3.6710   18.9501 C.ar    1  UNL1        0.0000
     30 C           3.3107   -2.9044   19.6109 C.ar    1  UNL1        0.0016
     31 C           3.4218   -0.0111   22.4977 C.3     1  UNL1        0.4232
     32 F           4.5971   -0.0242   23.4298 F       1  UNL1       -0.1657
     33 F           3.9362    1.2489   21.8668 F       1  UNL1       -0.1657
     34 F           2.9076   -1.2711   23.1285 F       1  UNL1       -0.1657
@<TRIPOS>UNITY_ATOM_ATTR
17 1
charge -1
@<TRIPOS>BOND
     1    17    18   ar
     2    18    19   ar
     3    18    13    1
     4    13    14    1
     5    14    15    1
     6    15    12    1
     7    12     6    1
     8     6     7   ar
     9     7     8   ar
    10     8     9   ar
    11     9     1    1
    12     1     2   ar
    13     2     3   ar
    14     3     4   ar
    15     4    20    1
    16    20    21   ar
    17    21    22   ar
    18    22    23   ar
    19    23    25    1
    20    25    26   ar
    21    26    27   ar
    22    27    28   ar
    23    28    29   ar
    24    29    30   ar
    25    23    24   ar
    26    24    31    1
    27    31    32    1
    28    31    33    1
    29    31    34    1
    30     4     5   ar
    31     9    10   ar
    32    10    11   ar
    33    15    16    1
    34    16    13    1
    35    11     6   ar
    36     5     1   ar
    37    24    20   ar
    38    30    25   ar
@<TRIPOS>MOLECULE
*****
 34 38 0 0 0
SMALL
GASTEIGER

@<TRIPOS>ATOM
      1 C           7.3010   -4.1308   25.0434 C.ar    1  UNL1        0.2037
      2 N           8.7328   -4.4459   25.3607 N.ar    1  UNL1       -0.0555
      3 O           8.8727   -4.5148   26.8525 O.2     1  UNL1       -0.3291
      4 C           7.5273   -4.2421   27.4573 C.ar    1  UNL1        0.2973
      5 N           6.5560   -4.0048   26.3392 N.ar    1  UNL1       -0.1843
      6 C           5.5485   -3.6480   20.9269 C.ar    1  UNL1       -0.0061
      7 C           6.9875   -4.0394   21.0882 C.ar    1  UNL1       -0.0028
      8 C           7.5716   -4.2003   22.4604 C.ar    1  UNL1        0.0029
      9 C           6.7168   -3.9698   23.6712 C.ar    1  UNL1        0.0391
     10 C           5.2778   -3.5784   23.5099 C.ar    1  UNL1        0.0029
     11 C           4.6936   -3.4175   22.1377 C.ar    1  UNL1       -0.0028
     12 C           4.9643   -3.4870   19.5547 C.3     1  UNL1        0.0992
     13 C           3.0907   -0.5017   18.7231 C.3     1  UNL1        0.0684
     14 C           4.3253   -1.1631   18.1861 C.3     1  UNL1        0.0793
     15 N           4.1882   -2.2505   19.2102 N.3     1  UNL1       -0.2682
     16 C           2.9537   -1.5891   19.7472 C.3     1  UNL1        0.0793
     17 O           0.8334    0.6531   18.1566 O.co2   1  UNL1       -0.5491
     18 C           2.3146    0.7348   18.3787 C.2     1  UNL1        0.0527
     19 O           3.0197    2.0531   18.2564 O.co2   1  UNL1       -0.5491
     20 C           7.2091   -4.2121   28.9229 C.ar    1  UNL1        0.2363
     21 O           7.2463   -5.3848   29.8574 O.2     1  UNL1       -0.3486
     22 N           6.8581   -4.9016   31.2233 N.ar    1  UNL1       -0.0768
     23 C           6.5811   -3.4301   31.1330 C.ar    1  UNL1        0.1270
     24 C           6.7980   -3.0041   29.7113 C.ar    1  UNL1        0.1340
     25 C           6.1609   -2.5410   32.2656 C.ar    1  UNL1        0.0209
     26 C           4.7698   -2.6377   32.8186 C.ar    1  UNL1        0.0016
     27 C           4.3495   -1.7485   33.9512 C.ar    1  UNL1        0.0000
     28 C           5.3203   -0.7629   34.5308 C.ar    1  UNL1        0.0000
     29 C           6.7113   -0.6662   33.9779 C.ar    1  UNL1        0.0000
     30 C           7.1316   -1.5553   32.8453 C.ar    1  UNL1        0.0016
     31 C           6.6329   -1.6140   29.1725 C.3     1  UNL1        0.4232
     32 F           6.4676   -0.2238   28.6337 F       1  UNL1       -0.1657
     33 F           8.0347   -1.2846   29.5925 F       1  UNL1       -0.1657
     34 F           5.2310   -1.9433   28.7525 F       1  UNL1       -0.1657
@<TRIPOS>UNITY_ATOM_ATTR
17 1
charge -1
@<TRIPOS>BOND
     1    17    18   ar
     2    18    19   ar
     3    18    13    1
     4    13    14    1
     5    14    15    1
     6    15    12    1
     7    12     6    1
     8     6     7   ar
     9     7     8   ar
    10     8     9   ar
    11     9     1    1
    12     1     2   ar
    13     2     3   ar
    14     3     4   ar
    15     4    20    1
    16    20    21   ar
    17    21    22   ar
    18    22    23   ar
    19    23    25    1
    20    25    26   ar
    21    26    27   ar
    22    27    28   ar
    23    28    29   ar
    24    29    30   ar
    25    23    24   ar
    26    24    31    1
    27    31    32    1
    28    31    33    1
    29    31    34    1
    30     4     5   ar
    31     9    10   ar
    32    10    11   ar
    33    15    16    1
    34    16    13    1
    35    11     6   ar
    36     5     1   ar
    37    24    20   ar
    38    30    25   ar
@<TRIPOS>MOLECULE
*****
 34 38 0 0 0
SMALL
GASTEIGER

@<TRIPOS>ATOM
      1 C           7.4853   -5.5101   25.6724 C.ar    1  UNL1        0.2037
      2 N           7.5829   -6.9504   26.0799 N.ar    1  UNL1       -0.0555
      3 O           7.4040   -7.0245   27.5673 O.2     1  UNL1       -0.3291
      4 C           7.1959   -5.6299   28.0791 C.ar    1  UNL1        0.2973
      5 N           7.2462   -4.6940   26.9080 N.ar    1  UNL1       -0.1843
      6 C           7.8466   -3.9173   21.4792 C.ar    1  UNL1       -0.0061
      7 C           6.8388   -3.3281   22.4211 C.ar    1  UNL1       -0.0028
      8 C           6.7184   -3.8590   23.8188 C.ar    1  UNL1        0.0029
      9 C           7.6058   -4.9792   24.2746 C.ar    1  UNL1        0.0391
     10 C           8.6135   -5.5684   23.3327 C.ar    1  UNL1        0.0029
     11 C           8.7339   -5.0375   21.9351 C.ar    1  UNL1       -0.0028
     12 C           7.9670   -3.3864   20.0815 C.3     1  UNL1        0.0992
     13 C           5.1251   -1.7966   18.4973 C.3     1  UNL1        0.0684
     14 C           5.5848   -3.2132   18.6755 C.3     1  UNL1        0.0793
     15 N           6.7899   -2.7279   19.4253 N.3     1  UNL1       -0.2682
     16 C           6.3303   -1.3112   19.2470 C.3     1  UNL1        0.0793
     17 O           3.8787   -1.0435   16.3457 O.co2   1  UNL1       -0.5491
     18 C           3.9479   -1.1380   17.8410 C.2     1  UNL1        0.0527
     19 O           2.8400   -0.5738   18.6803 O.co2   1  UNL1       -0.5491
     20 C           6.9761   -5.2397   29.5107 C.ar    1  UNL1        0.2363
     21 O           6.7943   -6.1821   30.6634 O.2     1  UNL1       -0.3486
     22 N           6.6054   -5.3635   31.9061 N.ar    1  UNL1       -0.0768
     23 C           6.6705   -3.9151   31.5213 C.ar    1  UNL1        0.1270
     24 C           6.8997   -3.8386   30.0410 C.ar    1  UNL1        0.1340
     25 C           6.5310   -2.7482   32.4534 C.ar    1  UNL1        0.0209
     26 C           7.7330   -1.9236   32.8079 C.ar    1  UNL1        0.0016
     27 C           7.5935   -0.7567   33.7400 C.ar    1  UNL1        0.0000
     28 C           6.2522   -0.4143   34.3176 C.ar    1  UNL1        0.0000
     29 C           5.0503   -1.2389   33.9631 C.ar    1  UNL1        0.0000
     30 C           5.1897   -2.4058   33.0310 C.ar    1  UNL1        0.0016
     31 C           7.0295   -2.5818   29.2327 C.3     1  UNL1        0.4232
     32 F           7.1595   -1.3248   28.4244 F       1  UNL1       -0.1657
     33 F           5.5379   -2.4230   29.2398 F       1  UNL1       -0.1657
     34 F           8.5211   -2.7405   29.2255 F       1  UNL1       -0.1657
@<TRIPOS>UNITY_ATOM_ATTR
17 1
charge -1
@<TRIPOS>BOND
     1    17    18   ar
     2    18    19   ar
     3    18    13    1
     4    13    14    1
     5    14    15    1
     6    15    12    1
     7    12     6    1
     8     6     7   ar
     9     7     8   ar
    10     8     9   ar
    11     9     1    1
    12     1     2   ar
    13     2     3   ar
    14     3     4   ar
    15     4    20    1
    16    20    21   ar
    17    21    22   ar
    18    22    23   ar
    19    23    25    1
    20    25    26   ar
    21    26    27   ar
    22    27    28   ar
    23    28    29   ar
    24    29    30   ar
    25    23    24   ar
    26    24    31    1
    27    31    32    1
    28    31    33    1
    29    31    34    1
    30     4     5   ar
    31     9    10   ar
    32    10    11   ar
    33    15    16    1
    34    16    13    1
    35    11     6   ar
    36     5     1   ar
    37    24    20   ar
    38    30    25   ar
@<TRIPOS>MOLECULE
*****
 34 38 0 0 0
SMALL
GASTEIGER

@<TRIPOS>ATOM
      1 C           7.3138   -4.1434   21.0818 C.ar    1  UNL1        0.2037
      2 N           8.7323   -4.5726   20.8498 N.ar    1  UNL1       -0.0555
      3 O           9.1736   -5.3759   22.0372 O.2     1  UNL1       -0.3291
      4 C           8.0279   -5.4431   23.0031 C.ar    1  UNL1        0.2973
      5 N           6.8785   -4.6814   22.4126 N.ar    1  UNL1       -0.1843
      6 C           4.8048   -1.6752   18.2777 C.ar    1  UNL1       -0.0061
      7 C           4.1463   -2.6188   19.2400 C.ar    1  UNL1       -0.0028
      8 C           4.9826   -3.4415   20.1747 C.ar    1  UNL1        0.0029
      9 C           6.4775   -3.3206   20.1470 C.ar    1  UNL1        0.0391
     10 C           7.1360   -2.3771   19.1848 C.ar    1  UNL1        0.0029
     11 C           6.2997   -1.5544   18.2501 C.ar    1  UNL1       -0.0028
     12 C           3.9685   -0.8525   17.3429 C.3     1  UNL1        0.0992
     13 C           1.7301    1.6707   18.6609 C.3     1  UNL1        0.0684
     14 C           1.6041    0.2160   18.3176 C.3     1  UNL1        0.0793
     15 N           3.0413    0.1927   17.8888 N.3     1  UNL1       -0.2682
     16 C           3.1673    1.6474   18.2321 C.3     1  UNL1        0.0793
     17 O          -0.3042    3.2569   18.3515 O.co2   1  UNL1       -0.5491
     18 C           0.8029    2.7159   19.2068 C.2     1  UNL1        0.0527
     19 O           0.9830    3.2201   20.6080 O.co2   1  UNL1       -0.5491
     20 C           8.0311   -6.1482   24.3270 C.ar    1  UNL1        0.2363
     21 O           8.0353   -7.6338   24.5347 O.2     1  UNL1       -0.3486
     22 N           8.0375   -7.8953   26.0118 N.ar    1  UNL1       -0.0768
     23 C           8.0346   -6.5713   26.7169 C.ar    1  UNL1        0.1270
     24 C           8.0307   -5.4917   25.6757 C.ar    1  UNL1        0.1340
     25 C           8.0355   -6.3637   28.2024 C.ar    1  UNL1        0.0209
     26 C           9.1647   -6.8969   29.0335 C.ar    1  UNL1        0.0016
     27 C           9.1657   -6.6892   30.5191 C.ar    1  UNL1        0.0000
     28 C           8.0374   -5.9485   31.1735 C.ar    1  UNL1        0.0000
     29 C           6.9083   -5.4153   30.3424 C.ar    1  UNL1        0.0000
     30 C           6.9073   -5.6229   28.8569 C.ar    1  UNL1        0.0016
     31 C           8.0270   -4.0147   25.9372 C.3     1  UNL1        0.4232
     32 F           8.0233   -2.5376   26.1987 F       1  UNL1       -0.1657
     33 F           6.5495   -3.9730   25.6810 F       1  UNL1       -0.1657
     34 F           9.5043   -4.0563   26.1933 F       1  UNL1       -0.1657
@<TRIPOS>UNITY_ATOM_ATTR
17 1
charge -1
@<TRIPOS>BOND
     1    17    18   ar
     2    18    19   ar
     3    18    13    1
     4    13    14    1
     5    14    15    1
     6    15    12    1
     7    12     6    1
     8     6     7   ar
     9     7     8   ar
    10     8     9   ar
    11     9     1    1
    12     1     2   ar
    13     2     3   ar
    14     3     4   ar
    15     4    20    1
    16    20    21   ar
    17    21    22   ar
    18    22    23   ar
    19    23    25    1
    20    25    26   ar
    21    26    27   ar
    22    27    28   ar
    23    28    29   ar
    24    29    30   ar
    25    23    24   ar
    26    24    31    1
    27    31    32    1
    28    31    33    1
    29    31    34    1
    30     4     5   ar
    31     9    10   ar
    32    10    11   ar
    33    15    16    1
    34    16    13    1
    35    11     6   ar
    36     5     1   ar
    37    24    20   ar
    38    30    25   ar
