@<TRIPOS>MOLECULE
*****
 31 35 0 0 0
SMALL
GASTEIGER

@<TRIPOS>ATOM
      1 C          -9.4239  -17.2008   22.6876 C.3     1  UNL1        0.1063
      2 C         -10.4636  -16.4879   21.8746 C.3     1  UNL1        0.0632
      3 C         -10.7604  -17.3242   20.6654 C.3     1  UNL1        0.1888
      4 O         -11.7412  -16.9895   19.5809 O.3     1  UNL1       -0.3757
      5 C          -9.9043  -18.5542   20.7309 C.2     1  UNL1        0.2530
      6 O          -9.8786  -19.6652   19.7236 O.2     1  UNL1       -0.2722
      7 N          -9.0783  -18.4779   21.9807 N.am    1  UNL1       -0.2711
      8 H         -11.7419  -17.6959   18.9162 H       1  UNL1        0.2110
      9 C          -9.3111  -17.2947   25.2815 C.ar    1  UNL1        0.1384
     10 C          -8.7208  -16.8149   26.5743 C.ar    1  UNL1        0.0368
     11 C          -7.6531  -15.7615   26.5659 C.ar    1  UNL1        0.0054
     12 C          -7.1755  -15.1879   25.2648 C.ar    1  UNL1        0.0296
     13 C          -7.7658  -15.6676   23.9720 C.ar    1  UNL1        0.1406
     14 F          -7.2883  -15.0940   22.6709 F       1  UNL1       -0.2043
     15 C          -8.8337  -16.7211   23.9803 C.ar    1  UNL1        0.0572
     16 C         -10.0034  -19.7974   25.1982 C.3     1  UNL1        0.2525
     17 O         -10.3789  -18.3481   25.2898 O.3     1  UNL1       -0.4716
     18 C          -8.0817  -19.4994   22.4425 C.3     1  UNL1        0.1204
     19 C          -6.8132  -19.7122   21.6705 C.ar    1  UNL1       -0.0021
     20 C          -6.6721  -20.9066   20.7743 C.ar    1  UNL1        0.0005
     21 C          -5.4037  -21.1194   20.0024 C.ar    1  UNL1        0.0372
     22 C          -4.2764  -20.1377   20.1267 C.ar    1  UNL1        0.1453
     23 O          -2.9173  -20.0845   19.4942 O.2     1  UNL1       -0.4535
     24 C          -2.2185  -18.8572   19.9996 C.ar    1  UNL1        0.1453
     25 C          -0.8577  -18.2909   19.7215 C.ar    1  UNL1        0.0375
     26 C          -0.4240  -17.0191   20.3882 C.ar    1  UNL1        0.0031
     27 C          -1.3512  -16.3137   21.3330 C.ar    1  UNL1        0.0002
     28 C          -2.7120  -16.8801   21.6112 C.ar    1  UNL1        0.0031
     29 C          -3.1456  -18.1518   20.9444 C.ar    1  UNL1        0.0375
     30 C          -4.4175  -18.9432   21.0230 C.ar    1  UNL1        0.0372
     31 C          -5.6859  -18.7304   21.7949 C.ar    1  UNL1        0.0005
@<TRIPOS>BOND
     1    16    17    1
     2    17     9    1
     3     9    10   ar
     4    10    11   ar
     5    11    12   ar
     6    12    13   ar
     7    13    14    1
     8    13    15   ar
     9     1    15    1
    10     1     2    1
    11     2     3    1
    12     3     4    1
    13     3     5    1
    14     5     6    2
    15     5     7   am
    16     7    18    1
    17    18    19    1
    18    19    20   ar
    19    20    21   ar
    20    21    22   ar
    21    22    23   ar
    22    23    24   ar
    23    24    25   ar
    24    25    26   ar
    25    26    27   ar
    26    27    28   ar
    27    28    29   ar
    28    29    30   ar
    29    30    31   ar
    30    15     9   ar
    31     7     1    1
    32    31    19   ar
    33    30    22   ar
    34    29    24   ar
    35     4     8    1
@<TRIPOS>MOLECULE
*****
 31 35 0 0 0
SMALL
GASTEIGER

@<TRIPOS>ATOM
      1 C          -9.5881  -17.3942   23.1248 C.3     1  UNL1        0.1063
      2 C         -10.6301  -16.6575   22.3364 C.3     1  UNL1        0.0632
      3 C         -10.7987  -17.3591   21.0214 C.3     1  UNL1        0.1888
      4 O         -11.7399  -16.9603   19.9236 O.3     1  UNL1       -0.3757
      5 C          -9.8609  -18.5295   20.9969 C.2     1  UNL1        0.2530
      6 O          -9.6996  -19.5066   19.8704 O.2     1  UNL1       -0.2722
      7 N          -9.1127  -18.5513   22.2968 N.am    1  UNL1       -0.2711
      8 H         -11.6529  -17.5798   19.1823 H       1  UNL1        0.2110
      9 C          -8.1463  -15.8991   24.6855 C.ar    1  UNL1        0.1384
     10 C          -7.6643  -15.5416   26.0602 C.ar    1  UNL1        0.0368
     11 C          -8.1421  -16.3219   27.2489 C.ar    1  UNL1        0.0054
     12 C          -9.1018  -17.4596   27.0629 C.ar    1  UNL1        0.0296
     13 C          -9.5838  -17.8170   25.6881 C.ar    1  UNL1        0.1406
     14 F         -10.5435  -18.9547   25.5021 F       1  UNL1       -0.2043
     15 C          -9.1061  -17.0368   24.4994 C.ar    1  UNL1        0.0572
     16 C          -6.2057  -15.0724   23.1689 C.3     1  UNL1        0.2525
     17 O          -7.6686  -15.1189   23.4968 O.3     1  UNL1       -0.4716
     18 C          -8.0719  -19.5539   22.6984 C.3     1  UNL1        0.1204
     19 C          -6.8430  -19.7370   21.8578 C.ar    1  UNL1       -0.0021
     20 C          -6.7472  -20.8974   20.9121 C.ar    1  UNL1        0.0005
     21 C          -5.5184  -21.0804   20.0716 C.ar    1  UNL1        0.0372
     22 C          -4.3854  -20.1030   20.1767 C.ar    1  UNL1        0.1453
     23 O          -3.0589  -20.0254   19.4807 O.2     1  UNL1       -0.4535
     24 C          -2.3349  -18.8170   19.9962 C.ar    1  UNL1        0.1453
     25 C          -0.9888  -18.2396   19.6728 C.ar    1  UNL1        0.0375
     26 C          -0.5218  -16.9930   20.3640 C.ar    1  UNL1        0.0031
     27 C          -1.4008  -16.3238   21.3787 C.ar    1  UNL1        0.0002
     28 C          -2.7469  -16.9012   21.7021 C.ar    1  UNL1        0.0031
     29 C          -3.2139  -18.1478   21.0109 C.ar    1  UNL1        0.0375
     30 C          -4.4812  -18.9426   21.1224 C.ar    1  UNL1        0.0372
     31 C          -5.7100  -18.7596   21.9629 C.ar    1  UNL1        0.0005
@<TRIPOS>BOND
     1    16    17    1
     2    17     9    1
     3     9    10   ar
     4    10    11   ar
     5    11    12   ar
     6    12    13   ar
     7    13    14    1
     8    13    15   ar
     9     1    15    1
    10     1     2    1
    11     2     3    1
    12     3     4    1
    13     3     5    1
    14     5     6    2
    15     5     7   am
    16     7    18    1
    17    18    19    1
    18    19    20   ar
    19    20    21   ar
    20    21    22   ar
    21    22    23   ar
    22    23    24   ar
    23    24    25   ar
    24    25    26   ar
    25    26    27   ar
    26    27    28   ar
    27    28    29   ar
    28    29    30   ar
    29    30    31   ar
    30    15     9   ar
    31     7     1    1
    32    31    19   ar
    33    30    22   ar
    34    29    24   ar
    35     4     8    1
@<TRIPOS>MOLECULE
*****
 31 35 0 0 0
SMALL
GASTEIGER

@<TRIPOS>ATOM
      1 C          -4.1570  -17.0035   23.1735 C.3     1  UNL1        0.1063
      2 C          -2.9491  -16.2618   22.6828 C.3     1  UNL1        0.0632
      3 C          -2.2908  -17.0963   21.6245 C.3     1  UNL1        0.1888
      4 O          -1.0494  -16.7365   20.8633 O.3     1  UNL1       -0.3757
      5 C          -3.0918  -18.3540   21.4611 C.2     1  UNL1        0.2530
      6 O          -2.7922  -19.4725   20.5078 O.2     1  UNL1       -0.2722
      7 N          -4.2452  -18.2966   22.4184 N.am    1  UNL1       -0.2711
      8 H          -0.8356  -17.4474   20.2389 H       1  UNL1        0.2110
      9 C          -6.3831  -15.8441   23.8445 C.ar    1  UNL1        0.1384
     10 C          -7.3356  -15.3751   24.9041 C.ar    1  UNL1        0.0368
     11 C          -7.0144  -15.5967   26.3525 C.ar    1  UNL1        0.0054
     12 C          -5.7408  -16.2872   26.7412 C.ar    1  UNL1        0.0296
     13 C          -4.7883  -16.7561   25.6815 C.ar    1  UNL1        0.1406
     14 F          -3.5146  -17.4466   26.0702 F       1  UNL1       -0.2043
     15 C          -5.1094  -16.5346   24.2331 C.ar    1  UNL1        0.0572
     16 C          -8.0940  -15.2337   21.9870 C.3     1  UNL1        0.2525
     17 O          -6.7043  -15.6226   22.3961 O.3     1  UNL1       -0.4716
     18 C          -5.3014  -19.3477   22.5904 C.3     1  UNL1        0.1204
     19 C          -6.6273  -19.1979   21.9051 C.ar    1  UNL1       -0.0021
     20 C          -6.7197  -19.3286   20.4136 C.ar    1  UNL1        0.0005
     21 C          -8.0456  -19.1788   19.7284 C.ar    1  UNL1        0.0372
     22 C          -9.2790  -18.8983   20.5346 C.ar    1  UNL1        0.1453
     23 O         -10.7129  -18.7025   20.1401 O.2     1  UNL1       -0.4535
     24 C         -11.5067  -18.4508   21.3877 C.ar    1  UNL1        0.1453
     25 C         -12.9666  -18.1901   21.6130 C.ar    1  UNL1        0.0375
     26 C         -13.4831  -17.9697   23.0039 C.ar    1  UNL1        0.0031
     27 C         -12.5398  -18.0101   24.1695 C.ar    1  UNL1        0.0002
     28 C         -11.0800  -18.2707   23.9442 C.ar    1  UNL1        0.0031
     29 C         -10.5634  -18.4911   22.5533 C.ar    1  UNL1        0.0375
     30 C          -9.1867  -18.7677   22.0260 C.ar    1  UNL1        0.0372
     31 C          -7.8608  -18.9175   22.7113 C.ar    1  UNL1        0.0005
@<TRIPOS>BOND
     1    16    17    1
     2    17     9    1
     3     9    10   ar
     4    10    11   ar
     5    11    12   ar
     6    12    13   ar
     7    13    14    1
     8    13    15   ar
     9     1    15    1
    10     1     2    1
    11     2     3    1
    12     3     4    1
    13     3     5    1
    14     5     6    2
    15     5     7   am
    16     7    18    1
    17    18    19    1
    18    19    20   ar
    19    20    21   ar
    20    21    22   ar
    21    22    23   ar
    22    23    24   ar
    23    24    25   ar
    24    25    26   ar
    25    26    27   ar
    26    27    28   ar
    27    28    29   ar
    28    29    30   ar
    29    30    31   ar
    30    15     9   ar
    31     7     1    1
    32    31    19   ar
    33    30    22   ar
    34    29    24   ar
    35     4     8    1
@<TRIPOS>MOLECULE
*****
 31 35 0 0 0
SMALL
GASTEIGER

@<TRIPOS>ATOM
      1 C         -11.3691   -4.1166   17.8266 C.3     1  UNL1        0.1063
      2 C         -10.9496   -3.1307   16.7768 C.3     1  UNL1        0.0632
      3 C         -11.6531   -1.8345   17.0505 C.3     1  UNL1        0.1888
      4 O         -11.5247   -0.5747   16.2465 O.3     1  UNL1       -0.3757
      5 C         -12.5075   -2.0193   18.2695 C.2     1  UNL1        0.2530
      6 O         -13.3836   -0.9768   18.8984 O.2     1  UNL1       -0.2722
      7 N         -12.3320   -3.4297   18.7491 N.am    1  UNL1       -0.2711
      8 H         -12.0841    0.1156   16.6357 H       1  UNL1        0.2110
      9 C         -11.5340   -6.5990   17.0778 C.ar    1  UNL1        0.1384
     10 C         -11.0719   -8.0219   17.1860 C.ar    1  UNL1        0.0368
     11 C          -9.9827   -8.3853   18.1512 C.ar    1  UNL1        0.0054
     12 C          -9.3557   -7.3259   19.0082 C.ar    1  UNL1        0.0296
     13 C          -9.8178   -5.9030   18.9000 C.ar    1  UNL1        0.1406
     14 F          -9.1908   -4.8435   19.7570 F       1  UNL1       -0.2043
     15 C         -10.9070   -5.5395   17.9348 C.ar    1  UNL1        0.0572
     16 C         -13.8337   -7.1117   15.9831 C.3     1  UNL1        0.2525
     17 O         -12.6231   -6.2355   16.1126 O.3     1  UNL1       -0.4716
     18 C         -13.0018   -4.0452   19.9418 C.3     1  UNL1        0.1204
     19 C         -14.3646   -4.6567   19.8042 C.ar    1  UNL1       -0.0021
     20 C         -15.5883   -3.8239   20.0467 C.ar    1  UNL1        0.0005
     21 C         -16.9511   -4.4354   19.9091 C.ar    1  UNL1        0.0372
     22 C         -17.0900   -5.8798   19.5290 C.ar    1  UNL1        0.1453
     23 O         -18.2928   -6.7514   19.3196 O.2     1  UNL1       -0.4535
     24 C         -17.8123   -8.1229   18.9478 C.ar    1  UNL1        0.1453
     25 C         -18.5467   -9.3904   18.6252 C.ar    1  UNL1        0.0375
     26 C         -17.7814  -10.6339   18.2821 C.ar    1  UNL1        0.0031
     27 C         -16.2817  -10.6100   18.2616 C.ar    1  UNL1        0.0002
     28 C         -15.5473   -9.3425   18.5842 C.ar    1  UNL1        0.0031
     29 C         -16.3127   -8.0989   18.9273 C.ar    1  UNL1        0.0375
     30 C         -15.8663   -6.7127   19.2865 C.ar    1  UNL1        0.0372
     31 C         -14.5036   -6.1011   19.4241 C.ar    1  UNL1        0.0005
@<TRIPOS>BOND
     1    16    17    1
     2    17     9    1
     3     9    10   ar
     4    10    11   ar
     5    11    12   ar
     6    12    13   ar
     7    13    14    1
     8    13    15   ar
     9     1    15    1
    10     1     2    1
    11     2     3    1
    12     3     4    1
    13     3     5    1
    14     5     6    2
    15     5     7   am
    16     7    18    1
    17    18    19    1
    18    19    20   ar
    19    20    21   ar
    20    21    22   ar
    21    22    23   ar
    22    23    24   ar
    23    24    25   ar
    24    25    26   ar
    25    26    27   ar
    26    27    28   ar
    27    28    29   ar
    28    29    30   ar
    29    30    31   ar
    30    15     9   ar
    31     7     1    1
    32    31    19   ar
    33    30    22   ar
    34    29    24   ar
    35     4     8    1
@<TRIPOS>MOLECULE
*****
 31 35 0 0 0
SMALL
GASTEIGER

@<TRIPOS>ATOM
      1 C          -9.0232  -16.5358   23.3654 C.3     1  UNL1        0.1063
      2 C          -8.6430  -15.2546   24.0466 C.3     1  UNL1        0.0632
      3 C          -7.1822  -15.3227   24.3803 C.3     1  UNL1        0.1888
      4 O          -6.3842  -14.2550   25.0682 O.3     1  UNL1       -0.3757
      5 C          -6.6595  -16.6460   23.9054 C.2     1  UNL1        0.2530
      6 O          -5.2471  -17.1340   24.0350 O.2     1  UNL1       -0.2722
      7 N          -7.7973  -17.3957   23.2782 N.am    1  UNL1       -0.2711
      8 H          -5.4648  -14.5492   25.1633 H       1  UNL1        0.2110
      9 C         -11.2347  -17.8762   23.6158 C.ar    1  UNL1        0.1384
     10 C         -12.6008  -18.2345   23.1106 C.ar    1  UNL1        0.0368
     11 C         -13.1216  -17.6107   21.8498 C.ar    1  UNL1        0.0054
     12 C         -12.2763  -16.6286   21.0942 C.ar    1  UNL1        0.0296
     13 C         -10.9101  -16.2703   21.5994 C.ar    1  UNL1        0.1406
     14 F         -10.0648  -15.2882   20.8438 F       1  UNL1       -0.2043
     15 C         -10.3893  -16.8941   22.8602 C.ar    1  UNL1        0.0572
     16 C         -10.2758  -19.9345   24.8782 C.3     1  UNL1        0.2525
     17 O         -10.7138  -18.4999   24.8766 O.3     1  UNL1       -0.4716
     18 C          -7.7223  -18.7650   22.6704 C.3     1  UNL1        0.1204
     19 C          -6.5410  -19.1487   21.8292 C.ar    1  UNL1       -0.0021
     20 C          -6.5898  -20.3907   20.9896 C.ar    1  UNL1        0.0005
     21 C          -5.4086  -20.7743   20.1485 C.ar    1  UNL1        0.0372
     22 C          -4.1785  -19.9158   20.1471 C.ar    1  UNL1        0.1453
     23 O          -2.8695  -20.0388   19.4250 O.2     1  UNL1       -0.4535
     24 C          -2.0117  -18.8729   19.8183 C.ar    1  UNL1        0.1453
     25 C          -0.6221  -18.4704   19.4223 C.ar    1  UNL1        0.0375
     26 C          -0.0113  -17.2243   19.9914 C.ar    1  UNL1        0.0031
     27 C          -0.7901  -16.3806   20.9567 C.ar    1  UNL1        0.0002
     28 C          -2.1797  -16.7831   21.3527 C.ar    1  UNL1        0.0031
     29 C          -2.7905  -18.0292   20.7835 C.ar    1  UNL1        0.0375
     30 C          -4.1297  -18.6738   20.9867 C.ar    1  UNL1        0.0372
     31 C          -5.3109  -18.2902   21.8278 C.ar    1  UNL1        0.0005
@<TRIPOS>BOND
     1    16    17    1
     2    17     9    1
     3     9    10   ar
     4    10    11   ar
     5    11    12   ar
     6    12    13   ar
     7    13    14    1
     8    13    15   ar
     9     1    15    1
    10     1     2    1
    11     2     3    1
    12     3     4    1
    13     3     5    1
    14     5     6    2
    15     5     7   am
    16     7    18    1
    17    18    19    1
    18    19    20   ar
    19    20    21   ar
    20    21    22   ar
    21    22    23   ar
    22    23    24   ar
    23    24    25   ar
    24    25    26   ar
    25    26    27   ar
    26    27    28   ar
    27    28    29   ar
    28    29    30   ar
    29    30    31   ar
    30    15     9   ar
    31     7     1    1
    32    31    19   ar
    33    30    22   ar
    34    29    24   ar
    35     4     8    1
@<TRIPOS>MOLECULE
*****
 31 35 0 0 0
SMALL
GASTEIGER

@<TRIPOS>ATOM
      1 C          -9.2152  -16.6519   23.3892 C.3     1  UNL1        0.1063
      2 C          -8.8737  -15.3221   23.9934 C.3     1  UNL1        0.0632
      3 C          -7.4022  -15.3089   24.2837 C.3     1  UNL1        0.1888
      4 O          -6.6336  -14.1734   24.8920 O.3     1  UNL1       -0.3757
      5 C          -6.8341  -16.6306   23.8589 C.2     1  UNL1        0.2530
      6 O          -5.3977  -17.0488   23.9678 O.2     1  UNL1       -0.2722
      7 N          -7.9545  -17.4606   23.3061 N.am    1  UNL1       -0.2711
      8 H          -5.6994  -14.4217   24.9724 H       1  UNL1        0.2110
      9 C         -11.1130  -16.6572   21.6148 C.ar    1  UNL1        0.1384
     10 C         -12.4757  -17.1004   21.1715 C.ar    1  UNL1        0.0368
     11 C         -13.3033  -17.9817   22.0594 C.ar    1  UNL1        0.0054
     12 C         -12.7683  -18.4197   23.3905 C.ar    1  UNL1        0.0296
     13 C         -11.4055  -17.9764   23.8338 C.ar    1  UNL1        0.1406
     14 F         -10.8705  -18.4144   25.1649 F       1  UNL1       -0.2043
     15 C         -10.5778  -17.0952   22.9460 C.ar    1  UNL1        0.0572
     16 C         -10.8414  -15.2938   19.4199 C.3     1  UNL1        0.2525
     17 O         -10.2853  -15.7759   20.7270 O.3     1  UNL1       -0.4716
     18 C          -7.8354  -18.8545   22.7651 C.3     1  UNL1        0.1204
     19 C          -6.6632  -19.2283   21.9069 C.ar    1  UNL1       -0.0021
     20 C          -6.7208  -20.4612   21.0544 C.ar    1  UNL1        0.0005
     21 C          -5.5487  -20.8350   20.1962 C.ar    1  UNL1        0.0372
     22 C          -4.3190  -19.9759   20.1906 C.ar    1  UNL1        0.1453
     23 O          -3.0180  -20.0904   19.4528 O.2     1  UNL1       -0.4535
     24 C          -2.1564  -18.9283   19.8493 C.ar    1  UNL1        0.1453
     25 C          -0.7714  -18.5208   19.4424 C.ar    1  UNL1        0.0375
     26 C          -0.1549  -17.2805   20.0184 C.ar    1  UNL1        0.0031
     27 C          -0.9235  -16.4478   21.0012 C.ar    1  UNL1        0.0002
     28 C          -2.3085  -16.8553   21.4081 C.ar    1  UNL1        0.0031
     29 C          -2.9250  -18.0955   20.8322 C.ar    1  UNL1        0.0375
     30 C          -4.2615  -18.7430   21.0430 C.ar    1  UNL1        0.0372
     31 C          -5.4336  -18.3693   21.9012 C.ar    1  UNL1        0.0005
@<TRIPOS>BOND
     1    16    17    1
     2    17     9    1
     3     9    10   ar
     4    10    11   ar
     5    11    12   ar
     6    12    13   ar
     7    13    14    1
     8    13    15   ar
     9     1    15    1
    10     1     2    1
    11     2     3    1
    12     3     4    1
    13     3     5    1
    14     5     6    2
    15     5     7   am
    16     7    18    1
    17    18    19    1
    18    19    20   ar
    19    20    21   ar
    20    21    22   ar
    21    22    23   ar
    22    23    24   ar
    23    24    25   ar
    24    25    26   ar
    25    26    27   ar
    26    27    28   ar
    27    28    29   ar
    28    29    30   ar
    29    30    31   ar
    30    15     9   ar
    31     7     1    1
    32    31    19   ar
    33    30    22   ar
    34    29    24   ar
    35     4     8    1
@<TRIPOS>MOLECULE
*****
 31 35 0 0 0
SMALL
GASTEIGER

@<TRIPOS>ATOM
      1 C          -9.5130  -17.4209   22.6070 C.3     1  UNL1        0.1063
      2 C         -10.6684  -16.8742   21.8220 C.3     1  UNL1        0.0632
      3 C         -10.7254  -17.6031   20.5123 C.3     1  UNL1        0.1888
      4 O         -11.7267  -17.3749   19.4190 O.3     1  UNL1       -0.3757
      5 C          -9.6052  -18.6004   20.4877 C.2     1  UNL1        0.2530
      6 O          -9.2896  -19.5445   19.3657 O.2     1  UNL1       -0.2722
      7 N          -8.8559  -18.4878   21.7823 N.am    1  UNL1       -0.2711
      8 H         -11.5419  -17.9762   18.6806 H       1  UNL1        0.2110
      9 C          -9.4675  -17.7925   25.1780 C.ar    1  UNL1        0.1384
     10 C          -9.0437  -17.3501   26.5471 C.ar    1  UNL1        0.0368
     11 C          -8.2416  -16.0937   26.7144 C.ar    1  UNL1        0.0054
     12 C          -7.8633  -15.2797   25.5127 C.ar    1  UNL1        0.0296
     13 C          -8.2872  -15.7221   24.1435 C.ar    1  UNL1        0.1406
     14 F          -7.9089  -14.9081   22.9417 F       1  UNL1       -0.2043
     15 C          -9.0892  -16.9785   23.9761 C.ar    1  UNL1        0.0572
     16 C         -11.7361  -18.9675   24.7062 C.3     1  UNL1        0.2525
     17 O         -10.2696  -19.0489   25.0106 O.3     1  UNL1       -0.4716
     18 C          -7.6596  -19.2995   22.1821 C.3     1  UNL1        0.1204
     19 C          -6.3180  -18.6420   22.3164 C.ar    1  UNL1       -0.0021
     20 C          -5.9712  -17.8944   23.5697 C.ar    1  UNL1        0.0005
     21 C          -4.6296  -17.2370   23.7039 C.ar    1  UNL1        0.0372
     22 C          -3.6349  -17.3272   22.5848 C.ar    1  UNL1        0.1453
     23 O          -2.2449  -16.7847   22.4313 O.2     1  UNL1       -0.4535
     24 C          -1.7326  -17.1971   21.0832 C.ar    1  UNL1        0.1453
     25 C          -0.4273  -16.9496   20.3867 C.ar    1  UNL1        0.0375
     26 C          -0.1956  -17.4994   19.0105 C.ar    1  UNL1        0.0031
     27 C          -1.2690  -18.2967   18.3308 C.ar    1  UNL1        0.0002
     28 C          -2.5742  -18.5442   19.0273 C.ar    1  UNL1        0.0031
     29 C          -2.8060  -17.9944   20.4034 C.ar    1  UNL1        0.0375
     30 C          -3.9816  -18.0748   21.3315 C.ar    1  UNL1        0.0372
     31 C          -5.3232  -18.7322   21.1973 C.ar    1  UNL1        0.0005
@<TRIPOS>BOND
     1    16    17    1
     2    17     9    1
     3     9    10   ar
     4    10    11   ar
     5    11    12   ar
     6    12    13   ar
     7    13    14    1
     8    13    15   ar
     9     1    15    1
    10     1     2    1
    11     2     3    1
    12     3     4    1
    13     3     5    1
    14     5     6    2
    15     5     7   am
    16     7    18    1
    17    18    19    1
    18    19    20   ar
    19    20    21   ar
    20    21    22   ar
    21    22    23   ar
    22    23    24   ar
    23    24    25   ar
    24    25    26   ar
    25    26    27   ar
    26    27    28   ar
    27    28    29   ar
    28    29    30   ar
    29    30    31   ar
    30    15     9   ar
    31     7     1    1
    32    31    19   ar
    33    30    22   ar
    34    29    24   ar
    35     4     8    1
@<TRIPOS>MOLECULE
*****
 31 35 0 0 0
SMALL
GASTEIGER

@<TRIPOS>ATOM
      1 C         -12.0848   -1.9496   17.6543 C.3     1  UNL1        0.1063
      2 C         -11.7154   -0.5580   18.0751 C.3     1  UNL1        0.0632
      3 C         -12.8227    0.3626   17.6555 C.3     1  UNL1        0.1888
      4 O         -12.8682    1.8454   17.8772 O.3     1  UNL1       -0.3757
      5 C         -13.8766   -0.4600   16.9753 C.2     1  UNL1        0.2530
      6 O         -15.1610    0.0558   16.3973 O.2     1  UNL1       -0.2722
      7 N         -13.4206   -1.8890   16.9746 N.am    1  UNL1       -0.2711
      8 H         -13.6925    2.2020   17.5105 H       1  UNL1        0.2110
      9 C         -11.6615   -4.1726   18.9308 C.ar    1  UNL1        0.1384
     10 C         -10.8395   -5.4079   19.1510 C.ar    1  UNL1        0.0368
     11 C          -9.6190   -5.6554   18.3151 C.ar    1  UNL1        0.0054
     12 C          -9.2203   -4.6677   17.2589 C.ar    1  UNL1        0.0296
     13 C         -10.0422   -3.4324   17.0386 C.ar    1  UNL1        0.1406
     14 F          -9.6436   -2.4447   15.9824 F       1  UNL1       -0.2043
     15 C         -11.2629   -3.1848   17.8746 C.ar    1  UNL1        0.0572
     16 C         -13.5624   -5.0692   20.4579 C.3     1  UNL1        0.2525
     17 O         -12.8821   -3.9250   19.7667 O.3     1  UNL1       -0.4716
     18 C         -14.1689   -3.0530   16.3957 C.3     1  UNL1        0.1204
     19 C         -15.1240   -3.8311   17.2516 C.ar    1  UNL1       -0.0021
     20 C         -16.1109   -3.1095   18.1208 C.ar    1  UNL1        0.0005
     21 C         -17.0659   -3.8876   18.9765 C.ar    1  UNL1        0.0372
     22 C         -17.0342   -5.3872   18.9631 C.ar    1  UNL1        0.1453
     23 O         -17.8462   -6.4149   19.6942 O.2     1  UNL1       -0.4535
     24 C         -17.3612   -7.7716   19.2769 C.ar    1  UNL1        0.1453
     25 C         -17.7882   -9.1548   19.6697 C.ar    1  UNL1        0.0375
     26 C         -17.1035  -10.3488   19.0734 C.ar    1  UNL1        0.0031
     27 C         -15.9918  -10.1596   18.0844 C.ar    1  UNL1        0.0002
     28 C         -15.5648   -8.7764   17.6915 C.ar    1  UNL1        0.0031
     29 C         -16.2495   -7.5824   18.2878 C.ar    1  UNL1        0.0375
     30 C         -16.0474   -6.1088   18.0939 C.ar    1  UNL1        0.0372
     31 C         -15.0923   -5.3307   17.2381 C.ar    1  UNL1        0.0005
@<TRIPOS>BOND
     1    16    17    1
     2    17     9    1
     3     9    10   ar
     4    10    11   ar
     5    11    12   ar
     6    12    13   ar
     7    13    14    1
     8    13    15   ar
     9     1    15    1
    10     1     2    1
    11     2     3    1
    12     3     4    1
    13     3     5    1
    14     5     6    2
    15     5     7   am
    16     7    18    1
    17    18    19    1
    18    19    20   ar
    19    20    21   ar
    20    21    22   ar
    21    22    23   ar
    22    23    24   ar
    23    24    25   ar
    24    25    26   ar
    25    26    27   ar
    26    27    28   ar
    27    28    29   ar
    28    29    30   ar
    29    30    31   ar
    30    15     9   ar
    31     7     1    1
    32    31    19   ar
    33    30    22   ar
    34    29    24   ar
    35     4     8    1
@<TRIPOS>MOLECULE
*****
 31 35 0 0 0
SMALL
GASTEIGER

@<TRIPOS>ATOM
      1 C           4.5321   -1.1125   20.2858 C.3     1  UNL1        0.1063
      2 C           3.6139   -1.1632   19.1008 C.3     1  UNL1        0.0632
      3 C           4.4312   -1.5246   17.8961 C.3     1  UNL1        0.1888
      4 O           3.9156   -1.6851   16.4966 O.3     1  UNL1       -0.3757
      5 C           5.8546   -1.6973   18.3365 C.2     1  UNL1        0.2530
      6 O           7.0124   -2.0608   17.4549 O.2     1  UNL1       -0.2722
      7 N           5.9170   -1.4426   19.8134 N.am    1  UNL1       -0.2711
      8 H           4.6489   -1.9209   15.9070 H       1  UNL1        0.2110
      9 C           3.9241    0.6385   22.1063 C.ar    1  UNL1        0.1384
     10 C           3.5272    0.9624   23.5161 C.ar    1  UNL1        0.0368
     11 C           3.3413   -0.1409   24.5152 C.ar    1  UNL1        0.0054
     12 C           3.5523   -1.5680   24.1045 C.ar    1  UNL1        0.0296
     13 C           3.9493   -1.8919   22.6947 C.ar    1  UNL1        0.1406
     14 F           4.1603   -3.3191   22.2840 F       1  UNL1       -0.2043
     15 C           4.1352   -0.7887   21.6956 C.ar    1  UNL1        0.0572
     16 C           2.9186    2.3389   20.4189 C.3     1  UNL1        0.2525
     17 O           4.1101    1.7418   21.1072 O.3     1  UNL1       -0.4716
     18 C           7.1481   -1.5067   20.6680 C.3     1  UNL1        0.1204
     19 C           7.6652   -2.8334   21.1400 C.ar    1  UNL1       -0.0021
     20 C           8.5643   -3.6456   20.2556 C.ar    1  UNL1        0.0005
     21 C           9.0813   -4.9722   20.7276 C.ar    1  UNL1        0.0372
     22 C           8.6994   -5.4865   22.0839 C.ar    1  UNL1        0.1453
     23 O           9.0514   -6.7484   22.8146 O.2     1  UNL1       -0.4535
     24 C           8.3699   -6.7160   24.1505 C.ar    1  UNL1        0.1453
     25 C           8.3536   -7.6881   25.2927 C.ar    1  UNL1        0.0375
     26 C           7.5640   -7.3784   26.5298 C.ar    1  UNL1        0.0031
     27 C           6.7908   -6.0966   26.6248 C.ar    1  UNL1        0.0002
     28 C           6.8072   -5.1244   25.4826 C.ar    1  UNL1        0.0031
     29 C           7.5967   -5.4342   24.2455 C.ar    1  UNL1        0.0375
     30 C           7.8004   -4.6743   22.9683 C.ar    1  UNL1        0.0372
     31 C           7.2833   -3.3477   22.4963 C.ar    1  UNL1        0.0005
@<TRIPOS>BOND
     1    16    17    1
     2    17     9    1
     3     9    10   ar
     4    10    11   ar
     5    11    12   ar
     6    12    13   ar
     7    13    14    1
     8    13    15   ar
     9     1    15    1
    10     1     2    1
    11     2     3    1
    12     3     4    1
    13     3     5    1
    14     5     6    2
    15     5     7   am
    16     7    18    1
    17    18    19    1
    18    19    20   ar
    19    20    21   ar
    20    21    22   ar
    21    22    23   ar
    22    23    24   ar
    23    24    25   ar
    24    25    26   ar
    25    26    27   ar
    26    27    28   ar
    27    28    29   ar
    28    29    30   ar
    29    30    31   ar
    30    15     9   ar
    31     7     1    1
    32    31    19   ar
    33    30    22   ar
    34    29    24   ar
    35     4     8    1
