@<TRIPOS>MOLECULE
*****
 29 32 0 0 0
SMALL
GASTEIGER

@<TRIPOS>ATOM
      1 C          -0.2785    2.3700   24.7584 C.ar    1  UNL1        0.1388
      2 C           0.6349    1.1820   24.8247 C.ar    1  UNL1        0.0384
      3 C           1.2612    0.6466   23.5712 C.ar    1  UNL1        0.0221
      4 C           0.9742    1.2993   22.2515 C.ar    1  UNL1        0.0825
      5 C           0.0608    2.4872   22.1853 C.ar    1  UNL1        0.0194
      6 C          -0.5655    3.0226   23.4387 C.ar    1  UNL1        0.0382
      7 C          -0.0352    2.9188   20.7518 C.ar    1  UNL1        0.0144
      8 C           0.8189    1.9975   19.9322 C.ar    1  UNL1        0.0970
      9 N           1.4427    0.9966   20.8591 N.ar    1  UNL1       -0.2080
     10 S           2.3719   -0.1123   20.4630 S.O2    1  UNL1        0.0864
     11 O           1.1946   -0.9768   20.1216 O.2     1  UNL1       -0.1476
     12 O           3.5492    0.7522   20.8045 O.2     1  UNL1       -0.1476
     13 C           3.3012   -1.2213   20.0670 C.ar    1  UNL1        0.1338
     14 C           3.7104   -2.2531   21.0757 C.ar    1  UNL1        0.0209
     15 C           4.6397   -3.3620   20.6797 C.ar    1  UNL1        0.0014
     16 C           5.1597   -3.4390   19.2748 C.ar    1  UNL1        0.0006
     17 C           4.7504   -2.4070   18.2660 C.ar    1  UNL1        0.0081
     18 C           3.8212   -1.2982   18.6621 C.ar    1  UNL1        0.0536
     19 BR          3.4119   -0.2663   17.6533 Br      1  UNL1       -0.0476
     20 C          -0.9608    2.0535   27.2452 C.3     1  UNL1        0.2525
     21 O          -0.9048    2.9053   26.0119 O.3     1  UNL1       -0.4714
     22 C          -0.8434    4.0696   20.2298 C.3     1  UNL1        0.1008
     23 N          -2.2869    3.8718   19.8735 N.3     1  UNL1       -0.2665
     24 C          -3.2645    3.4299   20.9219 C.3     1  UNL1        0.0899
     25 C          -4.7080    3.2320   20.5657 C.3     1  UNL1        0.0897
     26 N          -5.1741    3.4761   19.1610 N.3     1  UNL1       -0.2691
     27 C          -6.6177    3.2782   18.8047 C.3     1  UNL1        0.0897
     28 C          -4.1965    3.9180   18.1125 C.3     1  UNL1        0.0897
     29 C          -2.7530    4.1158   18.4688 C.3     1  UNL1        0.0899
@<TRIPOS>BOND
     1    20    21    1
     2    21     1    1
     3     1     2   ar
     4     2     3   ar
     5     3     4   ar
     6     4     5   ar
     7     5     6   ar
     8     5     7   ar
     9     7    22    1
    10    22    23    1
    11    23    24    1
    12    24    25    1
    13    25    26    1
    14    26    27    1
    15    26    28    1
    16    28    29    1
    17     7     8   ar
    18     8     9   ar
    19     9    10    1
    20    10    11    2
    21    10    12    2
    22    10    13    1
    23    13    14   ar
    24    14    15   ar
    25    15    16   ar
    26    16    17   ar
    27    17    18   ar
    28    18    19    1
    29     6     1   ar
    30    29    23    1
    31    18    13   ar
    32     9     4   ar
@<TRIPOS>MOLECULE
*****
 29 32 0 0 0
SMALL
GASTEIGER

@<TRIPOS>ATOM
      1 C          -0.5921    2.2520   25.5856 C.ar    1  UNL1        0.1388
      2 C           0.3694    1.1619   25.2152 C.ar    1  UNL1        0.0384
      3 C           0.8239    1.0138   23.7934 C.ar    1  UNL1        0.0221
      4 C           0.3169    1.9557   22.7420 C.ar    1  UNL1        0.0825
      5 C          -0.6446    3.0458   23.1123 C.ar    1  UNL1        0.0194
      6 C          -1.0991    3.1939   24.5341 C.ar    1  UNL1        0.0382
      7 C          -0.9706    3.8186   21.8687 C.ar    1  UNL1        0.0144
      8 C          -0.2106    3.2061   20.7298 C.ar    1  UNL1        0.0970
      9 N           0.5851    2.0548   21.2695 N.ar    1  UNL1       -0.2080
     10 S           1.4902    1.1597   20.4761 S.O2    1  UNL1        0.0864
     11 O           0.3520    0.2092   20.2500 O.2     1  UNL1       -0.1476
     12 O           2.6284    2.1101   20.7021 O.2     1  UNL1       -0.1476
     13 C           2.3954    0.2645   19.6826 C.ar    1  UNL1        0.1338
     14 C           2.5253    0.4530   18.2002 C.ar    1  UNL1        0.0209
     15 C           3.4304   -0.4421   17.4068 C.ar    1  UNL1        0.0014
     16 C           4.2057   -1.5257   18.0958 C.ar    1  UNL1        0.0006
     17 C           4.0757   -1.7142   19.5782 C.ar    1  UNL1        0.0081
     18 C           3.1706   -0.8190   20.3716 C.ar    1  UNL1        0.0536
     19 BR          3.0408   -1.0076   21.8541 Br      1  UNL1       -0.0476
     20 C          -0.9579    1.2354   27.9483 C.3     1  UNL1        0.2525
     21 O          -1.0465    2.4001   27.0074 O.3     1  UNL1       -0.4714
     22 C          -1.8945    4.9970   21.7797 C.3     1  UNL1        0.1008
     23 N          -3.3298    4.8575   22.1922 N.3     1  UNL1       -0.2665
     24 C          -4.1182    3.6535   21.7693 C.3     1  UNL1        0.0899
     25 C          -5.5536    3.5140   22.1819 C.3     1  UNL1        0.0897
     26 N          -6.2007    4.5786   23.0173 N.3     1  UNL1       -0.2691
     27 C          -7.6361    4.4391   23.4299 C.3     1  UNL1        0.0897
     28 C          -5.4123    5.7827   23.4402 C.3     1  UNL1        0.0897
     29 C          -3.9769    5.9222   23.0277 C.3     1  UNL1        0.0899
@<TRIPOS>BOND
     1    20    21    1
     2    21     1    1
     3     1     2   ar
     4     2     3   ar
     5     3     4   ar
     6     4     5   ar
     7     5     6   ar
     8     5     7   ar
     9     7    22    1
    10    22    23    1
    11    23    24    1
    12    24    25    1
    13    25    26    1
    14    26    27    1
    15    26    28    1
    16    28    29    1
    17     7     8   ar
    18     8     9   ar
    19     9    10    1
    20    10    11    2
    21    10    12    2
    22    10    13    1
    23    13    14   ar
    24    14    15   ar
    25    15    16   ar
    26    16    17   ar
    27    17    18   ar
    28    18    19    1
    29     6     1   ar
    30    29    23    1
    31    18    13   ar
    32     9     4   ar
@<TRIPOS>MOLECULE
*****
 29 32 0 0 0
SMALL
GASTEIGER

@<TRIPOS>ATOM
      1 C          -0.4854    2.0839   26.5973 C.ar    1  UNL1        0.1388
      2 C           0.4177    1.0103   26.0666 C.ar    1  UNL1        0.0384
      3 C           0.7374    0.9553   24.6021 C.ar    1  UNL1        0.0221
      4 C           0.1540    1.9739   23.6683 C.ar    1  UNL1        0.0825
      5 C          -0.7491    3.0475   24.1990 C.ar    1  UNL1        0.0194
      6 C          -1.0688    3.1026   25.6635 C.ar    1  UNL1        0.0382
      7 C          -1.1730    3.9085   23.0461 C.ar    1  UNL1        0.0144
      8 C          -0.5319    3.3669   21.8029 C.ar    1  UNL1        0.0970
      9 N           0.2883    2.1713   22.1874 N.ar    1  UNL1       -0.2080
     10 S           1.1001    1.3221   21.2548 S.O2    1  UNL1        0.0864
     11 O          -0.1524    0.6482   20.7781 O.2     1  UNL1       -0.1476
     12 O           2.3526    1.9959   21.7315 O.2     1  UNL1       -0.1476
     13 C           1.9120    0.4728   20.3222 C.ar    1  UNL1        0.1338
     14 C           2.3412   -0.9019   20.7413 C.ar    1  UNL1        0.0209
     15 C           3.1531   -1.7511   19.8086 C.ar    1  UNL1        0.0014
     16 C           3.5358   -1.2254   18.4570 C.ar    1  UNL1        0.0006
     17 C           3.1067    0.1494   18.0379 C.ar    1  UNL1        0.0081
     18 C           2.2948    0.9986   18.9705 C.ar    1  UNL1        0.0536
     19 BR          1.8657    2.3734   18.5513 Br      1  UNL1       -0.0476
     20 C          -0.8807    0.8719   28.8610 C.3     1  UNL1        0.2525
     21 O          -0.8051    2.1389   28.0618 O.3     1  UNL1       -0.4714
     22 C          -2.0789    5.1015   23.1229 C.3     1  UNL1        0.1008
     23 N          -3.5585    4.9109   23.2794 N.3     1  UNL1       -0.2665
     24 C          -4.3499    5.8542   24.1360 C.3     1  UNL1        0.0899
     25 C          -5.8295    5.6635   24.2924 C.3     1  UNL1        0.0897
     26 N          -6.5177    4.5295   23.5923 N.3     1  UNL1       -0.2691
     27 C          -7.9973    4.3388   23.7487 C.3     1  UNL1        0.0897
     28 C          -5.7263    3.5861   22.7356 C.3     1  UNL1        0.0897
     29 C          -4.2467    3.7768   22.5792 C.3     1  UNL1        0.0899
@<TRIPOS>BOND
     1    20    21    1
     2    21     1    1
     3     1     2   ar
     4     2     3   ar
     5     3     4   ar
     6     4     5   ar
     7     5     6   ar
     8     5     7   ar
     9     7    22    1
    10    22    23    1
    11    23    24    1
    12    24    25    1
    13    25    26    1
    14    26    27    1
    15    26    28    1
    16    28    29    1
    17     7     8   ar
    18     8     9   ar
    19     9    10    1
    20    10    11    2
    21    10    12    2
    22    10    13    1
    23    13    14   ar
    24    14    15   ar
    25    15    16   ar
    26    16    17   ar
    27    17    18   ar
    28    18    19    1
    29     6     1   ar
    30    29    23    1
    31    18    13   ar
    32     9     4   ar
@<TRIPOS>MOLECULE
*****
 29 32 0 0 0
SMALL
GASTEIGER

@<TRIPOS>ATOM
      1 C           0.9280    1.6156   25.9089 C.ar    1  UNL1        0.1388
      2 C           1.9541    0.6563   25.3829 C.ar    1  UNL1        0.0384
      3 C           2.1261    0.4787   23.9034 C.ar    1  UNL1        0.0221
      4 C           1.2721    1.2606   22.9499 C.ar    1  UNL1        0.0825
      5 C           0.2459    2.2199   23.4758 C.ar    1  UNL1        0.0194
      6 C           0.0739    2.3974   24.9553 C.ar    1  UNL1        0.0382
      7 C          -0.4457    2.8482   22.3024 C.ar    1  UNL1        0.0144
      8 C           0.1530    2.2771   21.0512 C.ar    1  UNL1        0.0970
      9 N           1.2146    1.2959   21.4514 N.ar    1  UNL1       -0.2080
     10 S           2.0689    0.4913   20.5172 S.O2    1  UNL1        0.0864
     11 O           0.9548   -0.4993   20.3517 O.2     1  UNL1       -0.1476
     12 O           3.1830    1.4820   20.6827 O.2     1  UNL1       -0.1476
     13 C           2.9232   -0.3133   19.5829 C.ar    1  UNL1        0.1338
     14 C           2.9330    0.0016   18.1164 C.ar    1  UNL1        0.0209
     15 C           3.7873   -0.8030   17.1821 C.ar    1  UNL1        0.0014
     16 C           4.6319   -1.9225   17.7145 C.ar    1  UNL1        0.0006
     17 C           4.6221   -2.2374   19.1810 C.ar    1  UNL1        0.0081
     18 C           3.7678   -1.4328   20.1152 C.ar    1  UNL1        0.0536
     19 BR          3.7581   -1.7478   21.5818 Br      1  UNL1       -0.0476
     20 C           1.3473    0.7936   28.3375 C.3     1  UNL1        0.2525
     21 O           0.7559    1.7932   27.3883 O.3     1  UNL1       -0.4714
     22 C          -1.5433    3.8684   22.3685 C.3     1  UNL1        0.1008
     23 N          -2.7469    3.7336   21.4836 N.3     1  UNL1       -0.2665
     24 C          -2.6234    3.9726   20.0079 C.3     1  UNL1        0.0899
     25 C          -3.8270    3.8377   19.1229 C.3     1  UNL1        0.0897
     26 N          -5.1542    3.4639   19.7136 N.3     1  UNL1       -0.2691
     27 C          -6.3578    3.3290   18.8287 C.3     1  UNL1        0.0897
     28 C          -5.2777    3.2249   21.1894 C.3     1  UNL1        0.0897
     29 C          -4.0741    3.3598   22.0744 C.3     1  UNL1        0.0899
@<TRIPOS>BOND
     1    20    21    1
     2    21     1    1
     3     1     2   ar
     4     2     3   ar
     5     3     4   ar
     6     4     5   ar
     7     5     6   ar
     8     5     7   ar
     9     7    22    1
    10    22    23    1
    11    23    24    1
    12    24    25    1
    13    25    26    1
    14    26    27    1
    15    26    28    1
    16    28    29    1
    17     7     8   ar
    18     8     9   ar
    19     9    10    1
    20    10    11    2
    21    10    12    2
    22    10    13    1
    23    13    14   ar
    24    14    15   ar
    25    15    16   ar
    26    16    17   ar
    27    17    18   ar
    28    18    19    1
    29     6     1   ar
    30    29    23    1
    31    18    13   ar
    32     9     4   ar
@<TRIPOS>MOLECULE
*****
 29 32 0 0 0
SMALL
GASTEIGER

@<TRIPOS>ATOM
      1 C          -7.9090  -15.9471   24.9597 C.ar    1  UNL1        0.1388
      2 C          -6.5258  -15.4073   24.7466 C.ar    1  UNL1        0.0384
      3 C          -5.5911  -16.0939   23.7954 C.ar    1  UNL1        0.0221
      4 C          -6.0394  -17.3203   23.0574 C.ar    1  UNL1        0.0825
      5 C          -7.4226  -17.8601   23.2705 C.ar    1  UNL1        0.0194
      6 C          -8.3574  -17.1735   24.2216 C.ar    1  UNL1        0.0382
      7 C          -7.5830  -19.0774   22.4087 C.ar    1  UNL1        0.0144
      8 C          -6.2990  -19.2899   21.6631 C.ar    1  UNL1        0.0970
      9 N          -5.3450  -18.2040   22.0639 N.ar    1  UNL1       -0.2080
     10 S          -3.9427  -18.0319   21.5599 S.O2    1  UNL1        0.0864
     11 O          -4.4463  -18.0657   20.1474 O.2     1  UNL1       -0.1476
     12 O          -3.4392  -17.9981   22.9724 O.2     1  UNL1       -0.1476
     13 C          -2.5404  -17.8598   21.0559 C.ar    1  UNL1        0.1338
     14 C          -1.8737  -16.5186   21.1367 C.ar    1  UNL1        0.0209
     15 C          -0.4713  -16.3465   20.6327 C.ar    1  UNL1        0.0014
     16 C           0.2641  -17.5157   20.0479 C.ar    1  UNL1        0.0006
     17 C          -0.4026  -18.8570   19.9671 C.ar    1  UNL1        0.0081
     18 C          -1.8049  -19.0290   20.4711 C.ar    1  UNL1        0.0536
     19 BR         -2.4716  -20.3703   20.3903 Br      1  UNL1       -0.0476
     20 C          -8.4731  -15.1216   27.3577 C.3     1  UNL1        0.2525
     21 O          -8.8438  -15.2604   25.9109 O.3     1  UNL1       -0.4714
     22 C          -8.8117  -19.9321   22.3100 C.3     1  UNL1        0.1008
     23 N         -10.1315  -19.4067   22.7919 N.3     1  UNL1       -0.2665
     24 C         -10.5870  -19.6936   24.1919 C.3     1  UNL1        0.0899
     25 C         -11.9068  -19.1682   24.6738 C.3     1  UNL1        0.0897
     26 N         -12.7710  -18.3558   23.7556 N.3     1  UNL1       -0.2691
     27 C         -14.0907  -17.8303   24.2375 C.3     1  UNL1        0.0897
     28 C         -12.3154  -18.0688   22.3555 C.3     1  UNL1        0.0897
     29 C         -10.9957  -18.5942   21.8736 C.3     1  UNL1        0.0899
@<TRIPOS>BOND
     1    20    21    1
     2    21     1    1
     3     1     2   ar
     4     2     3   ar
     5     3     4   ar
     6     4     5   ar
     7     5     6   ar
     8     5     7   ar
     9     7    22    1
    10    22    23    1
    11    23    24    1
    12    24    25    1
    13    25    26    1
    14    26    27    1
    15    26    28    1
    16    28    29    1
    17     7     8   ar
    18     8     9   ar
    19     9    10    1
    20    10    11    2
    21    10    12    2
    22    10    13    1
    23    13    14   ar
    24    14    15   ar
    25    15    16   ar
    26    16    17   ar
    27    17    18   ar
    28    18    19    1
    29     6     1   ar
    30    29    23    1
    31    18    13   ar
    32     9     4   ar
@<TRIPOS>MOLECULE
*****
 29 32 0 0 0
SMALL
GASTEIGER

@<TRIPOS>ATOM
      1 C          -2.8174    4.6108   21.9932 C.ar    1  UNL1        0.1388
      2 C          -2.2628    4.0830   20.7033 C.ar    1  UNL1        0.0384
      3 C          -1.1515    3.0757   20.7211 C.ar    1  UNL1        0.0221
      4 C          -0.5948    2.5962   22.0288 C.ar    1  UNL1        0.0825
      5 C          -1.1493    3.1239   23.3187 C.ar    1  UNL1        0.0194
      6 C          -2.2606    4.1313   23.3009 C.ar    1  UNL1        0.0382
      7 C          -0.4048    2.4706   24.4452 C.ar    1  UNL1        0.0144
      8 C           0.6099    1.5390   23.8514 C.ar    1  UNL1        0.0970
      9 N           0.4925    1.6167   22.3580 N.ar    1  UNL1       -0.2080
     10 S           1.3175    0.8495   21.3677 S.O2    1  UNL1        0.0864
     11 O           0.0898    0.1186   20.9111 O.2     1  UNL1       -0.1476
     12 O           2.5452    1.5803   21.8243 O.2     1  UNL1       -0.1476
     13 C           2.1426    0.0823   20.3773 C.ar    1  UNL1        0.1338
     14 C           2.7635   -1.2251   20.7713 C.ar    1  UNL1        0.0209
     15 C           3.5886   -1.9923   19.7810 C.ar    1  UNL1        0.0014
     16 C           3.7927   -1.4520   18.3966 C.ar    1  UNL1        0.0006
     17 C           3.1718   -0.1446   18.0027 C.ar    1  UNL1        0.0081
     18 C           2.3468    0.6225   18.9930 C.ar    1  UNL1        0.0536
     19 BR          1.7259    1.9299   18.5989 Br      1  UNL1       -0.0476
     20 C          -5.2663    5.2491   21.4060 C.3     1  UNL1        0.2525
     21 O          -3.9287    5.6181   21.9754 O.3     1  UNL1       -0.4714
     22 C          -0.6347    2.7073   25.9084 C.3     1  UNL1        0.1008
     23 N           0.1062    1.8909   26.9256 N.3     1  UNL1       -0.2665
     24 C           1.5582    2.1592   27.1894 C.3     1  UNL1        0.0899
     25 C           2.2990    1.3429   28.2066 C.3     1  UNL1        0.0897
     26 N           1.5879    0.2582   28.9601 N.3     1  UNL1       -0.2691
     27 C           2.3287   -0.5581   29.9774 C.3     1  UNL1        0.0897
     28 C           0.1358   -0.0100   28.6963 C.3     1  UNL1        0.0897
     29 C          -0.6051    0.8063   27.6791 C.3     1  UNL1        0.0899
@<TRIPOS>BOND
     1    20    21    1
     2    21     1    1
     3     1     2   ar
     4     2     3   ar
     5     3     4   ar
     6     4     5   ar
     7     5     6   ar
     8     5     7   ar
     9     7    22    1
    10    22    23    1
    11    23    24    1
    12    24    25    1
    13    25    26    1
    14    26    27    1
    15    26    28    1
    16    28    29    1
    17     7     8   ar
    18     8     9   ar
    19     9    10    1
    20    10    11    2
    21    10    12    2
    22    10    13    1
    23    13    14   ar
    24    14    15   ar
    25    15    16   ar
    26    16    17   ar
    27    17    18   ar
    28    18    19    1
    29     6     1   ar
    30    29    23    1
    31    18    13   ar
    32     9     4   ar
@<TRIPOS>MOLECULE
*****
 29 32 0 0 0
SMALL
GASTEIGER

@<TRIPOS>ATOM
      1 C           5.6289   -1.8316   32.6871 C.ar    1  UNL1        0.1388
      2 C           6.2136   -3.2118   32.6320 C.ar    1  UNL1        0.0384
      3 C           6.5773   -3.8201   31.3099 C.ar    1  UNL1        0.0221
      4 C           6.3562   -3.0481   30.0430 C.ar    1  UNL1        0.0825
      5 C           5.7715   -1.6679   30.0981 C.ar    1  UNL1        0.0194
      6 C           5.4078   -1.0596   31.4201 C.ar    1  UNL1        0.0382
      7 C           5.6691   -1.1514   28.6935 C.ar    1  UNL1        0.0144
      8 C           6.1906   -2.2125   27.7703 C.ar    1  UNL1        0.0970
      9 N           6.6152   -3.3847   28.6044 N.ar    1  UNL1       -0.2080
     10 S           7.1968   -4.6681   28.0901 S.O2    1  UNL1        0.0864
     11 O           5.8433   -5.3105   28.1626 O.2     1  UNL1       -0.1476
     12 O           8.5503   -4.0258   28.0176 O.2     1  UNL1       -0.1476
     13 C           7.7784   -5.9516   27.5758 C.ar    1  UNL1        0.1338
     14 C           8.2862   -6.9838   28.5384 C.ar    1  UNL1        0.0209
     15 C           8.8678   -8.2673   28.0241 C.ar    1  UNL1        0.0014
     16 C           8.9417   -8.5185   26.5471 C.ar    1  UNL1        0.0006
     17 C           8.4339   -7.4862   25.5845 C.ar    1  UNL1        0.0081
     18 C           7.8523   -6.2028   26.0989 C.ar    1  UNL1        0.0536
     19 BR          7.3445   -5.1706   25.1361 Br      1  UNL1       -0.0476
     20 C           5.2270    0.2682   34.1633 C.3     1  UNL1        0.2525
     21 O           5.2652   -1.2233   34.0091 O.3     1  UNL1       -0.4714
     22 C           5.1384    0.1905   28.2840 C.3     1  UNL1        0.1008
     23 N           3.6587    0.4336   28.2510 N.3     1  UNL1       -0.2665
     24 C           2.7143   -0.6196   28.7500 C.3     1  UNL1        0.0899
     25 C           1.2345   -0.3765   28.7170 C.3     1  UNL1        0.0897
     26 N           0.6990    0.9198   28.1850 N.3     1  UNL1       -0.2691
     27 C          -0.7808    1.1628   28.1520 C.3     1  UNL1        0.0897
     28 C           1.6435    1.9729   27.6860 C.3     1  UNL1        0.0897
     29 C           3.1233    1.7299   27.7190 C.3     1  UNL1        0.0899
@<TRIPOS>BOND
     1    20    21    1
     2    21     1    1
     3     1     2   ar
     4     2     3   ar
     5     3     4   ar
     6     4     5   ar
     7     5     6   ar
     8     5     7   ar
     9     7    22    1
    10    22    23    1
    11    23    24    1
    12    24    25    1
    13    25    26    1
    14    26    27    1
    15    26    28    1
    16    28    29    1
    17     7     8   ar
    18     8     9   ar
    19     9    10    1
    20    10    11    2
    21    10    12    2
    22    10    13    1
    23    13    14   ar
    24    14    15   ar
    25    15    16   ar
    26    16    17   ar
    27    17    18   ar
    28    18    19    1
    29     6     1   ar
    30    29    23    1
    31    18    13   ar
    32     9     4   ar
@<TRIPOS>MOLECULE
*****
 29 32 0 0 0
SMALL
GASTEIGER

@<TRIPOS>ATOM
      1 C           3.9913   -0.8613   27.9855 C.ar    1  UNL1        0.1388
      2 C           3.2410   -0.4838   26.7428 C.ar    1  UNL1        0.0384
      3 C           3.7017   -0.9865   25.4067 C.ar    1  UNL1        0.0221
      4 C           4.9128   -1.8665   25.3134 C.ar    1  UNL1        0.0825
      5 C           5.6631   -2.2440   26.5561 C.ar    1  UNL1        0.0194
      6 C           5.2024   -1.7413   27.8922 C.ar    1  UNL1        0.0382
      7 C           6.8131   -3.1199   26.1553 C.ar    1  UNL1        0.0144
      8 C           6.7734   -3.2837   24.6649 C.ar    1  UNL1        0.0970
      9 N           5.5989   -2.5091   24.1445 N.ar    1  UNL1       -0.2080
     10 S           5.1836   -2.3968   22.7076 S.O2    1  UNL1        0.0864
     11 O           5.9812   -1.1333   22.5757 O.2     1  UNL1       -0.1476
     12 O           4.3860   -3.6603   22.8394 O.2     1  UNL1       -0.1476
     13 C           4.7681   -2.2846   21.2705 C.ar    1  UNL1        0.1338
     14 C           3.4932   -1.5810   20.9112 C.ar    1  UNL1        0.0209
     15 C           3.0777   -1.4688   19.4742 C.ar    1  UNL1        0.0014
     16 C           3.9374   -2.0601   18.3966 C.ar    1  UNL1        0.0006
     17 C           5.2125   -2.7637   18.7560 C.ar    1  UNL1        0.0081
     18 C           5.6279   -2.8759   20.1930 C.ar    1  UNL1        0.0536
     19 BR          6.9030   -3.5796   20.5523 Br      1  UNL1       -0.0476
     20 C           2.0758   -0.4143   29.6829 C.3     1  UNL1        0.2525
     21 O           3.5306   -0.3586   29.3216 O.3     1  UNL1       -0.4714
     22 C           7.8249   -3.7255   27.0823 C.3     1  UNL1        0.1008
     23 N           7.9078   -5.2157   27.2318 N.3     1  UNL1       -0.2665
     24 C           7.1505   -6.1070   26.2926 C.3     1  UNL1        0.0899
     25 C           7.2333   -7.5972   26.4421 C.3     1  UNL1        0.0897
     26 N           8.0736   -8.1962   27.5308 N.3     1  UNL1       -0.2691
     27 C           8.1565   -9.6865   27.6802 C.3     1  UNL1        0.0897
     28 C           8.8310   -7.3049   28.4699 C.3     1  UNL1        0.0897
     29 C           8.7481   -5.8147   28.3205 C.3     1  UNL1        0.0899
@<TRIPOS>BOND
     1    20    21    1
     2    21     1    1
     3     1     2   ar
     4     2     3   ar
     5     3     4   ar
     6     4     5   ar
     7     5     6   ar
     8     5     7   ar
     9     7    22    1
    10    22    23    1
    11    23    24    1
    12    24    25    1
    13    25    26    1
    14    26    27    1
    15    26    28    1
    16    28    29    1
    17     7     8   ar
    18     8     9   ar
    19     9    10    1
    20    10    11    2
    21    10    12    2
    22    10    13    1
    23    13    14   ar
    24    14    15   ar
    25    15    16   ar
    26    16    17   ar
    27    17    18   ar
    28    18    19    1
    29     6     1   ar
    30    29    23    1
    31    18    13   ar
    32     9     4   ar
@<TRIPOS>MOLECULE
*****
 29 32 0 0 0
SMALL
GASTEIGER

@<TRIPOS>ATOM
      1 C           6.5395   -3.6511   26.0203 C.ar    1  UNL1        0.1388
      2 C           6.6349   -4.0385   24.5744 C.ar    1  UNL1        0.0384
      3 C           6.0142   -3.1681   23.5222 C.ar    1  UNL1        0.0221
      4 C           5.2982   -1.9102   23.9159 C.ar    1  UNL1        0.0825
      5 C           5.2028   -1.5229   25.3619 C.ar    1  UNL1        0.0194
      6 C           5.8235   -2.3933   26.4140 C.ar    1  UNL1        0.0382
      7 C           4.4393   -0.2344   25.4472 C.ar    1  UNL1        0.0144
      8 C           4.0629    0.1744   24.0540 C.ar    1  UNL1        0.0970
      9 N           4.5937   -0.8613   23.1076 N.ar    1  UNL1       -0.2080
     10 S           4.4459   -0.8500   21.6150 S.O2    1  UNL1        0.0864
     11 O           5.7554   -0.1290   21.4908 O.2     1  UNL1       -0.1476
     12 O           3.1365   -1.5711   21.7391 O.2     1  UNL1       -0.1476
     13 C           4.2981   -0.8388   20.1222 C.ar    1  UNL1        0.1338
     14 C           3.5623    0.2820   19.4498 C.ar    1  UNL1        0.0209
     15 C           3.4145    0.2932   17.9571 C.ar    1  UNL1        0.0014
     16 C           4.0026   -0.8165   17.1369 C.ar    1  UNL1        0.0006
     17 C           4.7385   -1.9373   17.8094 C.ar    1  UNL1        0.0081
     18 C           4.8862   -1.9485   19.3020 C.ar    1  UNL1        0.0536
     19 BR          5.6221   -3.0694   19.9744 Br      1  UNL1       -0.0476
     20 C           6.3767   -4.8932   28.2964 C.3     1  UNL1        0.2525
     21 O           7.1601   -4.5216   27.0725 O.3     1  UNL1       -0.4714
     22 C           4.1101    0.5137   26.7050 C.3     1  UNL1        0.1008
     23 N           2.7139    0.4830   27.2522 N.3     1  UNL1       -0.2665
     24 C           2.4067   -0.3231   28.4792 C.3     1  UNL1        0.0899
     25 C           1.0104   -0.3538   29.0264 C.3     1  UNL1        0.0897
     26 N          -0.0788    0.4218   28.3466 N.3     1  UNL1       -0.2691
     27 C          -1.4751    0.3911   28.8938 C.3     1  UNL1        0.0897
     28 C           0.2284    1.2280   27.1195 C.3     1  UNL1        0.0897
     29 C           1.6247    1.2586   26.5722 C.3     1  UNL1        0.0899
@<TRIPOS>BOND
     1    20    21    1
     2    21     1    1
     3     1     2   ar
     4     2     3   ar
     5     3     4   ar
     6     4     5   ar
     7     5     6   ar
     8     5     7   ar
     9     7    22    1
    10    22    23    1
    11    23    24    1
    12    24    25    1
    13    25    26    1
    14    26    27    1
    15    26    28    1
    16    28    29    1
    17     7     8   ar
    18     8     9   ar
    19     9    10    1
    20    10    11    2
    21    10    12    2
    22    10    13    1
    23    13    14   ar
    24    14    15   ar
    25    15    16   ar
    26    16    17   ar
    27    17    18   ar
    28    18    19    1
    29     6     1   ar
    30    29    23    1
    31    18    13   ar
    32     9     4   ar
