@<TRIPOS>MOLECULE
*****
 30 32 0 0 0
SMALL
GASTEIGER

@<TRIPOS>ATOM
      1 C         -10.7819  -18.8037   24.1707 C.2     1  UNL1        0.2261
      2 O          -9.8116  -17.7698   24.6600 O.2     1  UNL1       -0.2748
      3 N         -10.3804  -19.7527   23.0807 N.am    1  UNL1       -0.2839
      4 H         -11.0173  -20.4313   22.7595 H       1  UNL1        0.1549
      5 C          -9.0086  -19.6678   22.4800 C.ar    1  UNL1        0.0503
      6 C          -8.7369  -18.7029   21.3640 C.ar    1  UNL1        0.0148
      7 C          -7.3651  -18.6180   20.7633 C.ar    1  UNL1        0.0058
      8 C          -6.2650  -19.4980   21.2784 C.ar    1  UNL1        0.0538
      9 C          -6.5366  -20.4628   22.3943 C.ar    1  UNL1        0.0058
     10 C          -7.9085  -20.5478   22.9951 C.ar    1  UNL1        0.0148
     11 C          -4.8932  -19.4131   20.6777 C.2     1  UNL1        0.2509
     12 O          -4.4031  -20.5023   19.7702 O.2     1  UNL1       -0.2698
     13 N          -4.0114  -18.2390   20.9845 N.am    1  UNL1       -0.2606
     14 H          -4.3330  -17.5241   21.5801 H       1  UNL1        0.1571
     15 C          -2.6396  -18.1541   20.3837 C.ar    1  UNL1        0.1658
     16 N          -1.3510  -18.4809   21.0786 N.ar    1  UNL1       -0.2224
     17 C          -0.2305  -18.2563   20.1070 C.ar    1  UNL1        0.1079
     18 C          -0.8266  -17.7906   18.8116 C.ar    1  UNL1        0.0588
     19 S          -2.3155  -17.7275   18.9827 S.2     1  UNL1       -0.0508
     20 C         -12.1537  -18.8886   24.7714 C.3     1  UNL1        0.0854
     21 C         -14.7015  -18.4290   24.5537 C.3     1  UNL1        0.0005
     22 C         -13.2870  -18.1152   24.1654 C.3     1  UNL1        0.0105
     23 C         -13.0059  -17.0279   23.1709 C.3     1  UNL1        0.0178
     24 C         -12.6363  -17.3791   21.7602 C.3     1  UNL1        0.0723
     25 N         -11.7827  -16.4455   20.9539 N.3     1  UNL1       -0.2685
     26 C         -10.5196  -15.8886   21.5407 C.3     1  UNL1        0.1046
     27 C          -9.6661  -14.9551   20.7344 C.3     1  UNL1        0.1595
     28 O         -10.0758  -14.5785   19.3415 O.3     1  UNL1       -0.3508
     29 C         -11.3389  -15.1354   18.7547 C.3     1  UNL1        0.1595
     30 C         -12.1924  -16.0689   19.5610 C.3     1  UNL1        0.1046
@<TRIPOS>BOND
     1    21    22    1
     2    22    23    1
     3    23    24    1
     4    24    25    1
     5    25    26    1
     6    26    27    1
     7    27    28    1
     8    28    29    1
     9    29    30    1
    10    22    20    1
    11    20     1    1
    12     1     2    2
    13     1     3   am
    14     3     5    1
    15     5     6   ar
    16     6     7   ar
    17     7     8   ar
    18     8    11    1
    19    11    12    2
    20    11    13   am
    21    13    15    1
    22    15    16   ar
    23    16    17   ar
    24    17    18   ar
    25    18    19   ar
    26     8     9   ar
    27     9    10   ar
    28    30    25    1
    29    10     5   ar
    30    19    15   ar
    31     3     4    1
    32    13    14    1
@<TRIPOS>MOLECULE
*****
 30 32 0 0 0
SMALL
GASTEIGER

@<TRIPOS>ATOM
      1 C         -10.6437  -19.5455   23.6639 C.2     1  UNL1        0.2261
      2 O          -9.5300  -19.6716   24.6607 O.2     1  UNL1       -0.2748
      3 N         -10.3308  -19.4043   22.2037 N.am    1  UNL1       -0.2839
      4 H         -11.0618  -19.3215   21.5495 H       1  UNL1        0.1549
      5 C          -8.9043  -19.3892   21.7403 C.ar    1  UNL1        0.0503
      6 C          -7.7895  -19.4252   22.7433 C.ar    1  UNL1        0.0148
      7 C          -6.3630  -19.4101   22.2799 C.ar    1  UNL1        0.0058
      8 C          -6.0512  -19.3591   20.8136 C.ar    1  UNL1        0.0538
      9 C          -7.1660  -19.3231   19.8106 C.ar    1  UNL1        0.0058
     10 C          -8.5926  -19.3382   20.2740 C.ar    1  UNL1        0.0148
     11 C          -4.6247  -19.3440   20.3502 C.2     1  UNL1        0.2509
     12 O          -4.0418  -20.5514   19.6776 O.2     1  UNL1       -0.2698
     13 N          -3.7810  -18.1215   20.5594 N.am    1  UNL1       -0.2606
     14 H          -4.1636  -17.3290   21.0008 H       1  UNL1        0.1571
     15 C          -2.3545  -18.1064   20.0960 C.ar    1  UNL1        0.1658
     16 N          -1.1560  -18.4746   20.9195 N.ar    1  UNL1       -0.2224
     17 C           0.0632  -18.3162   20.0602 C.ar    1  UNL1        0.1079
     18 C          -0.3818  -17.8502   18.7056 C.ar    1  UNL1        0.0588
     19 S          -1.8760  -17.7205   18.7278 S.2     1  UNL1       -0.0508
     20 C         -12.0702  -19.5606   24.1273 C.3     1  UNL1        0.0854
     21 C         -14.1201  -18.0794   24.7223 C.3     1  UNL1        0.0005
     22 C         -12.9735  -18.4054   23.8118 C.3     1  UNL1        0.0105
     23 C         -12.7302  -17.5761   22.5858 C.3     1  UNL1        0.0178
     24 C         -12.0881  -16.2260   22.7088 C.3     1  UNL1        0.0723
     25 N         -10.5969  -16.1125   22.8252 N.3     1  UNL1       -0.2685
     26 C          -9.7659  -15.8632   21.6016 C.3     1  UNL1        0.1046
     27 C          -8.2748  -15.7497   21.7181 C.3     1  UNL1        0.1595
     28 O          -7.6147  -15.8853   23.0581 O.3     1  UNL1       -0.3508
     29 C          -8.4457  -16.1346   24.2818 C.3     1  UNL1        0.1595
     30 C          -9.9368  -16.2481   24.1653 C.3     1  UNL1        0.1046
@<TRIPOS>BOND
     1    21    22    1
     2    22    23    1
     3    23    24    1
     4    24    25    1
     5    25    26    1
     6    26    27    1
     7    27    28    1
     8    28    29    1
     9    29    30    1
    10    22    20    1
    11    20     1    1
    12     1     2    2
    13     1     3   am
    14     3     5    1
    15     5     6   ar
    16     6     7   ar
    17     7     8   ar
    18     8    11    1
    19    11    12    2
    20    11    13   am
    21    13    15    1
    22    15    16   ar
    23    16    17   ar
    24    17    18   ar
    25    18    19   ar
    26     8     9   ar
    27     9    10   ar
    28    30    25    1
    29    10     5   ar
    30    19    15   ar
    31     3     4    1
    32    13    14    1
@<TRIPOS>MOLECULE
*****
 30 32 0 0 0
SMALL
GASTEIGER

@<TRIPOS>ATOM
      1 C         -10.4882   -3.9091   18.3207 C.2     1  UNL1        0.2261
      2 O         -10.4045   -3.1867   17.0088 O.2     1  UNL1       -0.2748
      3 N         -11.4665   -3.4577   19.3644 N.am    1  UNL1       -0.2839
      4 H         -11.5214   -3.9319   20.2255 H       1  UNL1        0.1549
      5 C         -12.3610   -2.2840   19.0962 C.ar    1  UNL1        0.0503
      6 C         -13.8414   -2.4059   19.3057 C.ar    1  UNL1        0.0148
      7 C         -14.7359   -1.2321   19.0375 C.ar    1  UNL1        0.0058
      8 C         -14.1503    0.0636   18.5597 C.ar    1  UNL1        0.0538
      9 C         -12.6700    0.1855   18.3502 C.ar    1  UNL1        0.0058
     10 C         -11.7753   -0.9883   18.6184 C.ar    1  UNL1        0.0148
     11 C         -15.0448    1.2373   18.2915 C.2     1  UNL1        0.2509
     12 O         -15.7277    1.3717   16.9627 O.2     1  UNL1       -0.2698
     13 N         -15.2566    2.2767   19.3521 N.am    1  UNL1       -0.2606
     14 H         -14.8085    2.1885   20.2242 H       1  UNL1        0.1571
     15 C         -16.1512    3.4505   19.0839 C.ar    1  UNL1        0.1658
     16 N         -17.6491    3.4189   19.0107 N.ar    1  UNL1       -0.2224
     17 C         -18.1286    4.8108   18.7234 C.ar    1  UNL1        0.1079
     18 C         -16.9270    5.7027   18.6189 C.ar    1  UNL1        0.0588
     19 S         -15.7050    4.8619   18.8417 S.2     1  UNL1       -0.0508
     20 C          -9.5936   -5.0829   18.5889 C.3     1  UNL1        0.0854
     21 C          -9.4003   -7.6612   18.8433 C.3     1  UNL1        0.0005
     22 C         -10.0294   -6.4633   18.1959 C.3     1  UNL1        0.0105
     23 C         -11.0945   -6.6458   17.1554 C.3     1  UNL1        0.0178
     24 C         -12.0717   -7.7776   17.2730 C.3     1  UNL1        0.0723
     25 N         -13.3531   -7.5867   18.0291 N.3     1  UNL1       -0.2685
     26 C         -14.3307   -8.7183   18.1460 C.3     1  UNL1        0.1046
     27 C         -15.6120   -8.5274   18.9021 C.3     1  UNL1        0.1595
     28 O         -15.9157   -7.2048   19.5413 O.3     1  UNL1       -0.3508
     29 C         -14.9381   -6.0732   19.4245 C.3     1  UNL1        0.1595
     30 C         -13.6568   -6.2642   18.6684 C.3     1  UNL1        0.1046
@<TRIPOS>BOND
     1    21    22    1
     2    22    23    1
     3    23    24    1
     4    24    25    1
     5    25    26    1
     6    26    27    1
     7    27    28    1
     8    28    29    1
     9    29    30    1
    10    22    20    1
    11    20     1    1
    12     1     2    2
    13     1     3   am
    14     3     5    1
    15     5     6   ar
    16     6     7   ar
    17     7     8   ar
    18     8    11    1
    19    11    12    2
    20    11    13   am
    21    13    15    1
    22    15    16   ar
    23    16    17   ar
    24    17    18   ar
    25    18    19   ar
    26     8     9   ar
    27     9    10   ar
    28    30    25    1
    29    10     5   ar
    30    19    15   ar
    31     3     4    1
    32    13    14    1
@<TRIPOS>MOLECULE
*****
 30 32 0 0 0
SMALL
GASTEIGER

@<TRIPOS>ATOM
      1 C         -10.8313   -4.1620   18.1929 C.2     1  UNL1        0.2261
      2 O         -11.2798   -3.8540   16.7952 O.2     1  UNL1       -0.2748
      3 N         -11.3212   -3.3273   19.3389 N.am    1  UNL1       -0.2839
      4 H         -11.0267   -3.5295   20.2564 H       1  UNL1        0.1549
      5 C         -12.2597   -2.1846   19.0871 C.ar    1  UNL1        0.0503
      6 C         -11.7377   -0.8950   18.5263 C.ar    1  UNL1        0.0148
      7 C         -12.6762    0.2477   18.2745 C.ar    1  UNL1        0.0058
      8 C         -14.1367    0.1008   18.5835 C.ar    1  UNL1        0.0538
      9 C         -14.6587   -1.1888   19.1443 C.ar    1  UNL1        0.0058
     10 C         -13.7202   -2.3315   19.3961 C.ar    1  UNL1        0.0148
     11 C         -15.0752    1.2435   18.3317 C.2     1  UNL1        0.2509
     12 O         -14.7790    2.5976   18.9050 O.2     1  UNL1       -0.2698
     13 N         -16.3100    1.0321   17.5066 N.am    1  UNL1       -0.2606
     14 H         -16.5044    0.1433   17.1303 H       1  UNL1        0.1571
     15 C         -17.2485    2.1747   17.2548 C.ar    1  UNL1        0.1658
     16 N         -17.2057    3.1088   16.0818 N.ar    1  UNL1       -0.2224
     17 C         -18.3254    4.0953   16.2338 C.ar    1  UNL1        0.1079
     18 C         -19.0601    3.7710   17.5007 C.ar    1  UNL1        0.0588
     19 S         -18.3945    2.5840   18.1317 S.2     1  UNL1       -0.0508
     20 C          -9.8927   -5.3047   18.4447 C.3     1  UNL1        0.0854
     21 C          -9.5176   -7.8698   18.6161 C.3     1  UNL1        0.0005
     22 C         -10.4351   -6.6845   18.6723 C.3     1  UNL1        0.0105
     23 C         -11.8952   -6.8791   18.9561 C.3     1  UNL1        0.0178
     24 C         -12.7620   -7.6000   17.9666 C.3     1  UNL1        0.0723
     25 N         -14.1766   -7.9489   18.3231 N.3     1  UNL1       -0.2685
     26 C         -15.0142   -6.9799   19.1037 C.3     1  UNL1        0.1046
     27 C         -16.4288   -7.3289   19.4602 C.3     1  UNL1        0.1595
     28 O         -17.0058   -8.6470   19.0360 O.3     1  UNL1       -0.3508
     29 C         -16.1682   -9.6160   18.2554 C.3     1  UNL1        0.1595
     30 C         -14.7536   -9.2670   17.8989 C.3     1  UNL1        0.1046
@<TRIPOS>BOND
     1    21    22    1
     2    22    23    1
     3    23    24    1
     4    24    25    1
     5    25    26    1
     6    26    27    1
     7    27    28    1
     8    28    29    1
     9    29    30    1
    10    22    20    1
    11    20     1    1
    12     1     2    2
    13     1     3   am
    14     3     5    1
    15     5     6   ar
    16     6     7   ar
    17     7     8   ar
    18     8    11    1
    19    11    12    2
    20    11    13   am
    21    13    15    1
    22    15    16   ar
    23    16    17   ar
    24    17    18   ar
    25    18    19   ar
    26     8     9   ar
    27     9    10   ar
    28    30    25    1
    29    10     5   ar
    30    19    15   ar
    31     3     4    1
    32    13    14    1
@<TRIPOS>MOLECULE
*****
 30 32 0 0 0
SMALL
GASTEIGER

@<TRIPOS>ATOM
      1 C           4.5483   -0.0156   18.4444 C.2     1  UNL1        0.2261
      2 O           4.8718    0.8043   19.6580 O.2     1  UNL1       -0.2748
      3 N           3.1288   -0.1303   17.9733 N.am    1  UNL1       -0.2839
      4 H           2.9165   -0.6685   17.1767 H       1  UNL1        0.1549
      5 C           2.0328    0.5749   18.7158 C.ar    1  UNL1        0.0503
      6 C           1.2252   -0.1645   19.7411 C.ar    1  UNL1        0.0148
      7 C           0.1292    0.5407   20.4836 C.ar    1  UNL1        0.0058
      8 C          -0.1592    1.9854   20.2009 C.ar    1  UNL1        0.0538
      9 C           0.6484    2.7248   19.1758 C.ar    1  UNL1        0.0058
     10 C           1.7444    2.0195   18.4331 C.ar    1  UNL1        0.0148
     11 C          -1.2552    2.6906   20.9435 C.2     1  UNL1        0.2509
     12 O          -0.9506    3.4123   22.2227 O.2     1  UNL1       -0.2698
     13 N          -2.6559    2.6742   20.4068 N.am    1  UNL1       -0.2606
     14 H          -2.8558    2.2005   19.5672 H       1  UNL1        0.1571
     15 C          -3.7518    3.3794   21.1493 C.ar    1  UNL1        0.1658
     16 N          -4.7035    2.7503   22.1233 N.ar    1  UNL1       -0.2224
     17 C          -5.6285    3.8197   22.6242 C.ar    1  UNL1        0.1079
     18 C          -5.2484    5.1097   21.9598 C.ar    1  UNL1        0.0588
     19 S          -4.0886    4.8376   21.0483 S.2     1  UNL1       -0.0508
     20 C           5.6443   -0.7209   17.7018 C.3     1  UNL1        0.0854
     21 C           7.6361   -2.1625   18.5409 C.3     1  UNL1        0.0005
     22 C           6.1786   -2.0254   18.2144 C.3     1  UNL1        0.0105
     23 C           5.2552   -3.1929   18.4004 C.3     1  UNL1        0.0178
     24 C           5.3238   -4.0107   19.6559 C.3     1  UNL1        0.0723
     25 N           5.0090   -3.3801   20.9801 N.3     1  UNL1       -0.2685
     26 C           5.7553   -3.8054   22.2097 C.3     1  UNL1        0.1046
     27 C           5.4404   -3.1747   23.5338 C.3     1  UNL1        0.1595
     28 O           4.3792   -2.1187   23.6281 O.3     1  UNL1       -0.3508
     29 C           3.6330   -1.6934   22.3984 C.3     1  UNL1        0.1595
     30 C           3.9478   -2.3241   21.0744 C.3     1  UNL1        0.1046
@<TRIPOS>BOND
     1    21    22    1
     2    22    23    1
     3    23    24    1
     4    24    25    1
     5    25    26    1
     6    26    27    1
     7    27    28    1
     8    28    29    1
     9    29    30    1
    10    22    20    1
    11    20     1    1
    12     1     2    2
    13     1     3   am
    14     3     5    1
    15     5     6   ar
    16     6     7   ar
    17     7     8   ar
    18     8    11    1
    19    11    12    2
    20    11    13   am
    21    13    15    1
    22    15    16   ar
    23    16    17   ar
    24    17    18   ar
    25    18    19   ar
    26     8     9   ar
    27     9    10   ar
    28    30    25    1
    29    10     5   ar
    30    19    15   ar
    31     3     4    1
    32    13    14    1
@<TRIPOS>MOLECULE
*****
 30 32 0 0 0
SMALL
GASTEIGER

@<TRIPOS>ATOM
      1 C          -3.8460  -19.1483   19.5217 C.2     1  UNL1        0.2261
      2 O          -4.4570  -17.7786   19.4987 O.2     1  UNL1       -0.2748
      3 N          -4.6342  -20.3125   20.0444 N.am    1  UNL1       -0.2839
      4 H          -4.2331  -21.2115   20.0595 H       1  UNL1        0.1549
      5 C          -6.0335  -20.1071   20.5441 C.ar    1  UNL1        0.0503
      6 C          -7.1429  -19.8276   19.5739 C.ar    1  UNL1        0.0148
      7 C          -8.5422  -19.6222   20.0736 C.ar    1  UNL1        0.0058
      8 C          -8.8322  -19.6962   21.5435 C.ar    1  UNL1        0.0538
      9 C          -7.7228  -19.9756   22.5136 C.ar    1  UNL1        0.0058
     10 C          -6.3234  -20.1811   22.0140 C.ar    1  UNL1        0.0148
     11 C         -10.2314  -19.4907   22.0432 C.2     1  UNL1        0.2509
     12 O         -11.3845  -20.1312   21.3289 O.2     1  UNL1       -0.2698
     13 N         -10.4777  -18.6448   23.2572 N.am    1  UNL1       -0.2606
     14 H          -9.7209  -18.2244   23.7260 H       1  UNL1        0.1571
     15 C         -11.8770  -18.4393   23.7569 C.ar    1  UNL1        0.1658
     16 N         -12.4287  -18.9329   25.0615 N.ar    1  UNL1       -0.2224
     17 C         -13.8630  -18.5028   25.1507 C.ar    1  UNL1        0.1079
     18 C         -14.1977  -17.7435   23.9010 C.ar    1  UNL1        0.0588
     19 S         -12.9703  -17.7043   23.0397 S.2     1  UNL1       -0.0508
     20 C          -2.4467  -19.3537   19.0220 C.3     1  UNL1        0.0854
     21 C          -1.6808  -17.4202   17.4648 C.3     1  UNL1        0.0005
     22 C          -1.5632  -18.1706   18.7582 C.3     1  UNL1        0.0105
     23 C          -0.5620  -17.7378   19.7880 C.3     1  UNL1        0.0178
     24 C          -0.9306  -16.6941   20.8003 C.3     1  UNL1        0.0723
     25 N          -2.0407  -16.9537   21.7752 N.3     1  UNL1       -0.2685
     26 C          -2.9874  -15.8506   22.1449 C.3     1  UNL1        0.1046
     27 C          -4.0974  -16.1103   23.1198 C.3     1  UNL1        0.1595
     28 O          -4.2607  -17.4731   23.7249 O.3     1  UNL1       -0.3508
     29 C          -3.3139  -18.5762   23.3551 C.3     1  UNL1        0.1595
     30 C          -2.2039  -18.3165   22.3802 C.3     1  UNL1        0.1046
@<TRIPOS>BOND
     1    21    22    1
     2    22    23    1
     3    23    24    1
     4    24    25    1
     5    25    26    1
     6    26    27    1
     7    27    28    1
     8    28    29    1
     9    29    30    1
    10    22    20    1
    11    20     1    1
    12     1     2    2
    13     1     3   am
    14     3     5    1
    15     5     6   ar
    16     6     7   ar
    17     7     8   ar
    18     8    11    1
    19    11    12    2
    20    11    13   am
    21    13    15    1
    22    15    16   ar
    23    16    17   ar
    24    17    18   ar
    25    18    19   ar
    26     8     9   ar
    27     9    10   ar
    28    30    25    1
    29    10     5   ar
    30    19    15   ar
    31     3     4    1
    32    13    14    1
@<TRIPOS>MOLECULE
*****
 30 32 0 0 0
SMALL
GASTEIGER

@<TRIPOS>ATOM
      1 C           5.2581   -3.9972   20.2391 C.2     1  UNL1        0.2261
      2 O           4.2042   -4.6940   21.0476 O.2     1  UNL1       -0.2748
      3 N           6.5330   -3.5526   20.8925 N.am    1  UNL1       -0.2839
      4 H           7.2247   -3.0953   20.3618 H       1  UNL1        0.1549
      5 C           6.7540   -3.8048   22.3545 C.ar    1  UNL1        0.0503
      6 C           5.9466   -3.0583   23.3748 C.ar    1  UNL1        0.0148
      7 C           6.1676   -3.3105   24.8368 C.ar    1  UNL1        0.0058
      8 C           7.1960   -4.3091   25.2786 C.ar    1  UNL1        0.0538
      9 C           8.0034   -5.0555   24.2584 C.ar    1  UNL1        0.0058
     10 C           7.7824   -4.8033   22.7963 C.ar    1  UNL1        0.0148
     11 C           7.4171   -4.5613   26.7406 C.2     1  UNL1        0.2509
     12 O           8.6820   -5.2200   27.2052 O.2     1  UNL1       -0.2698
     13 N           6.3731   -4.1546   27.7381 N.am    1  UNL1       -0.2606
     14 H           5.5429   -3.7223   27.4332 H       1  UNL1        0.1571
     15 C           6.5941   -4.4068   29.2001 C.ar    1  UNL1        0.1658
     16 N           6.8350   -5.7430   29.8378 N.ar    1  UNL1       -0.2224
     17 C           7.0028   -5.5291   31.3129 C.ar    1  UNL1        0.1079
     18 C           6.8657   -4.0607   31.5869 C.ar    1  UNL1        0.0588
     19 S           6.6131   -3.3671   30.2811 S.2     1  UNL1       -0.0508
     20 C           5.0371   -3.7450   18.7771 C.3     1  UNL1        0.0854
     21 C           6.7883   -2.0035   17.9708 C.3     1  UNL1        0.0005
     22 C           5.3592   -2.4026   18.1904 C.3     1  UNL1        0.0105
     23 C           4.2521   -1.4593   17.8233 C.3     1  UNL1        0.0178
     24 C           4.0915   -0.1662   18.5662 C.3     1  UNL1        0.0723
     25 N           2.7321    0.2707   19.0262 N.3     1  UNL1       -0.2685
     26 C           1.9467   -0.5914   19.9695 C.3     1  UNL1        0.1046
     27 C           0.5875   -0.1545   20.4295 C.3     1  UNL1        0.1595
     28 O           0.0137    1.1444   19.9461 O.3     1  UNL1       -0.3508
     29 C           0.7992    2.0065   19.0028 C.3     1  UNL1        0.1595
     30 C           2.1584    1.5696   18.5429 C.3     1  UNL1        0.1046
@<TRIPOS>BOND
     1    21    22    1
     2    22    23    1
     3    23    24    1
     4    24    25    1
     5    25    26    1
     6    26    27    1
     7    27    28    1
     8    28    29    1
     9    29    30    1
    10    22    20    1
    11    20     1    1
    12     1     2    2
    13     1     3   am
    14     3     5    1
    15     5     6   ar
    16     6     7   ar
    17     7     8   ar
    18     8    11    1
    19    11    12    2
    20    11    13   am
    21    13    15    1
    22    15    16   ar
    23    16    17   ar
    24    17    18   ar
    25    18    19   ar
    26     8     9   ar
    27     9    10   ar
    28    30    25    1
    29    10     5   ar
    30    19    15   ar
    31     3     4    1
    32    13    14    1
@<TRIPOS>MOLECULE
*****
 30 32 0 0 0
SMALL
GASTEIGER

@<TRIPOS>ATOM
      1 C           2.4781    0.1446   19.2602 C.2     1  UNL1        0.2261
      2 O           3.8614    0.7007   19.4247 O.2     1  UNL1       -0.2748
      3 N           2.0935   -1.1273   19.9561 N.am    1  UNL1       -0.2839
      4 H           1.1855   -1.4924   19.8481 H       1  UNL1        0.1549
      5 C           3.0921   -1.8431   20.8165 C.ar    1  UNL1        0.0503
      6 C           3.2907   -1.4232   22.2429 C.ar    1  UNL1        0.0148
      7 C           4.2893   -2.1389   23.1033 C.ar    1  UNL1        0.0058
      8 C           5.0894   -3.2745   22.5375 C.ar    1  UNL1        0.0538
      9 C           4.8909   -3.6945   21.1113 C.ar    1  UNL1        0.0058
     10 C           3.8922   -2.9787   20.2507 C.ar    1  UNL1        0.0148
     11 C           6.0881   -3.9903   23.3979 C.2     1  UNL1        0.2509
     12 O           7.1201   -4.8785   22.7687 O.2     1  UNL1       -0.2698
     13 N           6.0547   -3.8177   24.8877 N.am    1  UNL1       -0.2606
     14 H           5.3774   -3.2347   25.3006 H       1  UNL1        0.1571
     15 C           7.0534   -4.5335   25.7481 C.ar    1  UNL1        0.1658
     16 N           8.5039   -4.1808   25.8950 N.ar    1  UNL1       -0.2224
     17 C           9.1239   -5.1569   26.8504 C.ar    1  UNL1        0.1079
     18 C           8.0564   -6.1129   27.2940 C.ar    1  UNL1        0.0588
     19 S           6.7768   -5.7276   26.6127 S.2     1  UNL1       -0.0508
     20 C           1.4795    0.8603   18.3998 C.3     1  UNL1        0.0854
     21 C           0.1522    1.8131   20.4198 C.3     1  UNL1        0.0005
     22 C           0.6032    1.9231   18.9934 C.3     1  UNL1        0.0105
     23 C           0.1778    3.0961   18.1607 C.3     1  UNL1        0.0178
     24 C          -0.7735    4.1100   18.7237 C.3     1  UNL1        0.0723
     25 N          -2.2507    3.9459   18.5214 N.3     1  UNL1       -0.2685
     26 C          -2.8269    3.9839   17.1370 C.3     1  UNL1        0.1046
     27 C          -4.3041    3.8199   16.9348 C.3     1  UNL1        0.1595
     28 O          -5.2051    3.6178   18.1169 O.3     1  UNL1       -0.3508
     29 C          -4.6289    3.5797   19.5012 C.3     1  UNL1        0.1595
     30 C          -3.1517    3.7438   19.7035 C.3     1  UNL1        0.1046
@<TRIPOS>BOND
     1    21    22    1
     2    22    23    1
     3    23    24    1
     4    24    25    1
     5    25    26    1
     6    26    27    1
     7    27    28    1
     8    28    29    1
     9    29    30    1
    10    22    20    1
    11    20     1    1
    12     1     2    2
    13     1     3   am
    14     3     5    1
    15     5     6   ar
    16     6     7   ar
    17     7     8   ar
    18     8    11    1
    19    11    12    2
    20    11    13   am
    21    13    15    1
    22    15    16   ar
    23    16    17   ar
    24    17    18   ar
    25    18    19   ar
    26     8     9   ar
    27     9    10   ar
    28    30    25    1
    29    10     5   ar
    30    19    15   ar
    31     3     4    1
    32    13    14    1
@<TRIPOS>MOLECULE
*****
 30 32 0 0 0
SMALL
GASTEIGER

@<TRIPOS>ATOM
      1 C           4.2127   -1.6827   18.0653 C.2     1  UNL1        0.2261
      2 O           3.8799   -0.8461   16.8656 O.2     1  UNL1       -0.2748
      3 N           3.5016   -1.4466   19.3648 N.am    1  UNL1       -0.2839
      4 H           3.7201   -1.9957   20.1523 H       1  UNL1        0.1549
      5 C           2.4578   -0.3741   19.4647 C.ar    1  UNL1        0.0503
      6 C           1.2171   -0.6080   20.2746 C.ar    1  UNL1        0.0148
      7 C           0.1733    0.4646   20.3744 C.ar    1  UNL1        0.0058
      8 C           0.3701    1.7711   19.6643 C.ar    1  UNL1        0.0538
      9 C           1.6108    2.0051   18.8544 C.ar    1  UNL1        0.0058
     10 C           2.6547    0.9325   18.7546 C.ar    1  UNL1        0.0148
     11 C          -0.6737    2.8437   19.7641 C.2     1  UNL1        0.2509
     12 O          -0.4926    4.1374   19.0269 O.2     1  UNL1       -0.2698
     13 N          -1.8986    2.6226   20.6012 N.am    1  UNL1       -0.2606
     14 H          -2.0175    1.7735   21.0851 H       1  UNL1        0.1571
     15 C          -2.9424    3.6951   20.7010 C.ar    1  UNL1        0.1658
     16 N          -3.9660    4.0293   19.6566 N.ar    1  UNL1       -0.2224
     17 C          -4.8021    5.1626   20.1729 C.ar    1  UNL1        0.1079
     18 C          -4.2953    5.5288   21.5364 C.ar    1  UNL1        0.0588
     19 S          -3.1460    4.6219   21.8628 S.2     1  UNL1       -0.0508
     20 C           5.2565   -2.7552   17.9655 C.3     1  UNL1        0.0854
     21 C           4.3356   -4.9970   18.9017 C.3     1  UNL1        0.0005
     22 C           5.3030   -3.8538   18.9858 C.3     1  UNL1        0.0105
     23 C           6.3170   -3.8090   20.0903 C.3     1  UNL1        0.0178
     24 C           6.7855   -2.4884   20.6253 C.3     1  UNL1        0.0723
     25 N           5.8496   -1.6263   21.4197 N.3     1  UNL1       -0.2685
     26 C           4.8742   -2.2556   22.3697 C.3     1  UNL1        0.1046
     27 C           3.9383   -1.3935   23.1640 C.3     1  UNL1        0.1595
     28 O           3.9779    0.0979   23.0083 O.3     1  UNL1       -0.3508
     29 C           4.9533    0.7272   22.0583 C.3     1  UNL1        0.1595
     30 C           5.8891   -0.1349   21.2640 C.3     1  UNL1        0.1046
@<TRIPOS>BOND
     1    21    22    1
     2    22    23    1
     3    23    24    1
     4    24    25    1
     5    25    26    1
     6    26    27    1
     7    27    28    1
     8    28    29    1
     9    29    30    1
    10    22    20    1
    11    20     1    1
    12     1     2    2
    13     1     3   am
    14     3     5    1
    15     5     6   ar
    16     6     7   ar
    17     7     8   ar
    18     8    11    1
    19    11    12    2
    20    11    13   am
    21    13    15    1
    22    15    16   ar
    23    16    17   ar
    24    17    18   ar
    25    18    19   ar
    26     8     9   ar
    27     9    10   ar
    28    30    25    1
    29    10     5   ar
    30    19    15   ar
    31     3     4    1
    32    13    14    1
