@<TRIPOS>MOLECULE
*****
 25 28 0 0 0
SMALL
GASTEIGER

@<TRIPOS>ATOM
      1 C         -10.9662  -17.3714   22.7009 C.3     1  UNL1        0.0750
      2 C         -11.8475  -18.5245   23.0801 C.3     1  UNL1        0.0260
      3 C         -13.2479  -18.0081   23.2289 C.3     1  UNL1        0.0691
      4 N         -13.2321  -16.5360   22.9417 N.3     1  UNL1       -0.2971
      5 C         -11.8219  -16.1424   22.6154 C.3     1  UNL1        0.0762
      6 H         -13.5548  -16.0201   23.7603 H       1  UNL1        0.1233
      7 O          -9.8067  -15.8506   20.9424 O.2     1  UNL1       -0.2916
      8 C          -9.8575  -16.4343   22.3231 C.2     1  UNL1        0.1703
      9 C          -8.7996  -16.0810   23.3263 C.2     1  UNL1        0.0192
     10 C          -7.4027  -15.7819   22.8693 C.2     1  UNL1        0.0301
     11 C          -6.3448  -15.4286   23.8724 C.2     1  UNL1        0.1571
     12 F          -4.9478  -15.1294   23.4153 F       1  UNL1       -0.2026
     13 C          -6.6841  -15.3744   25.3325 C.2     1  UNL1        0.1050
     14 N          -5.8578  -15.0583   26.5438 N.2     1  UNL1       -0.2419
     15 C          -6.7441  -15.1620   27.7494 C.2     1  UNL1        0.0986
     16 C          -8.1182  -15.5423   27.2833 C.2     1  UNL1        0.0183
     17 C          -8.0811  -15.6736   25.7895 C.2     1  UNL1        0.0037
     18 C          -9.1389  -16.0269   24.7864 C.3     1  UNL1        0.0572
     19 C          -9.8786  -18.4045   22.7075 C.3     1  UNL1        0.0350
     20 C          -9.3764  -18.9730   21.4135 C.ar    1  UNL1       -0.0217
     21 C         -10.3473  -19.3654   20.3396 C.ar    1  UNL1       -0.0043
     22 C          -9.8451  -19.9338   19.0455 C.ar    1  UNL1       -0.0003
     23 C          -8.3718  -20.1100   18.8253 C.ar    1  UNL1       -0.0000
     24 C          -7.4009  -19.7176   19.8992 C.ar    1  UNL1       -0.0003
     25 C          -7.9031  -19.1490   21.1933 C.ar    1  UNL1       -0.0043
@<TRIPOS>BOND
     1     7     8    2
     2     8     9    1
     3     9    10    2
     4    10    11    1
     5    11    12    1
     6    11    13    2
     7    13    14    1
     8    14    15    2
     9    15    16    1
    10    16    17    2
    11    17    18    1
    12     8     1    1
    13     1    19    1
    14    19    20    1
    15    20    21   ar
    16    21    22   ar
    17    22    23   ar
    18    23    24   ar
    19    24    25   ar
    20     1     2    1
    21     2     3    1
    22     3     4    1
    23     4     5    1
    24    18     9    1
    25     5     1    1
    26    17    13    1
    27    25    20   ar
    28     4     6    1
@<TRIPOS>MOLECULE
*****
 25 28 0 0 0
SMALL
GASTEIGER

@<TRIPOS>ATOM
      1 C          -9.2102  -18.1634   23.5188 C.3     1  UNL1        0.0750
      2 C          -9.8993  -18.2377   24.8491 C.3     1  UNL1        0.0260
      3 C         -10.2600  -19.6710   25.1048 C.3     1  UNL1        0.0691
      4 N          -9.7939  -20.4825   23.9326 N.3     1  UNL1       -0.2971
      5 C          -9.1451  -19.5508   22.9524 C.3     1  UNL1        0.0762
      6 H         -10.5896  -20.9465   23.4946 H       1  UNL1        0.1233
      7 O          -9.0483  -16.6807   21.3915 O.2     1  UNL1       -0.2916
      8 C          -8.5039  -17.7824   22.2515 C.2     1  UNL1        0.1703
      9 C          -7.2530  -18.5034   21.8443 C.2     1  UNL1        0.0192
     10 C          -7.3269  -19.6425   20.8714 C.2     1  UNL1        0.0301
     11 C          -6.0760  -20.3635   20.4642 C.2     1  UNL1        0.1571
     12 F          -6.1500  -21.5027   19.4912 F       1  UNL1       -0.2026
     13 C          -4.7513  -19.9451   21.0300 C.2     1  UNL1        0.1050
     14 N          -3.3600  -20.4632   20.8164 N.2     1  UNL1       -0.2419
     15 C          -2.4262  -19.6442   21.6574 C.2     1  UNL1        0.0986
     16 C          -3.2405  -18.6198   22.3907 C.2     1  UNL1        0.0183
     17 C          -4.6775  -18.8058   22.0029 C.2     1  UNL1        0.0037
     18 C          -5.9283  -18.0849   22.4101 C.3     1  UNL1        0.0572
     19 C          -9.1277  -16.6963   23.8203 C.3     1  UNL1        0.0350
     20 C          -8.1877  -16.1998   24.8785 C.ar    1  UNL1       -0.0217
     21 C          -6.8418  -15.6611   24.4934 C.ar    1  UNL1       -0.0043
     22 C          -5.9018  -15.1646   25.5517 C.ar    1  UNL1       -0.0003
     23 C          -6.3077  -15.2068   26.9951 C.ar    1  UNL1       -0.0000
     24 C          -7.6536  -15.7456   27.3802 C.ar    1  UNL1       -0.0003
     25 C          -8.5936  -16.2421   26.3219 C.ar    1  UNL1       -0.0043
@<TRIPOS>BOND
     1     7     8    2
     2     8     9    1
     3     9    10    2
     4    10    11    1
     5    11    12    1
     6    11    13    2
     7    13    14    1
     8    14    15    2
     9    15    16    1
    10    16    17    2
    11    17    18    1
    12     8     1    1
    13     1    19    1
    14    19    20    1
    15    20    21   ar
    16    21    22   ar
    17    22    23   ar
    18    23    24   ar
    19    24    25   ar
    20     1     2    1
    21     2     3    1
    22     3     4    1
    23     4     5    1
    24    18     9    1
    25     5     1    1
    26    17    13    1
    27    25    20   ar
    28     4     6    1
@<TRIPOS>MOLECULE
*****
 25 28 0 0 0
SMALL
GASTEIGER

@<TRIPOS>ATOM
      1 C          -8.5098  -16.6753   23.5455 C.3     1  UNL1        0.0750
      2 C          -8.8572  -16.4685   24.9901 C.3     1  UNL1        0.0260
      3 C          -8.2812  -15.1526   25.4216 C.3     1  UNL1        0.0691
      4 N          -7.5778  -14.5460   24.2439 N.3     1  UNL1       -0.2971
      5 C          -7.7190  -15.4870   23.0844 C.3     1  UNL1        0.0762
      6 H          -6.5905  -14.4113   24.4621 H       1  UNL1        0.1233
      7 O          -9.2839  -16.7326   21.0662 O.2     1  UNL1       -0.2916
      8 C          -8.3193  -17.1511   22.1359 C.2     1  UNL1        0.1703
      9 C          -7.1641  -18.0456   21.7959 C.2     1  UNL1        0.0192
     10 C          -7.3705  -19.2282   20.8967 C.2     1  UNL1        0.0301
     11 C          -6.2152  -20.1226   20.5567 C.2     1  UNL1        0.1571
     12 F          -6.4217  -21.3053   19.6575 F       1  UNL1       -0.2026
     13 C          -4.8536  -19.8343   21.1160 C.2     1  UNL1        0.1050
     14 N          -3.5354  -20.5325   20.9586 N.2     1  UNL1       -0.2419
     15 C          -2.5143  -19.7813   21.7606 C.2     1  UNL1        0.0986
     16 C          -3.2015  -18.6188   22.4136 C.2     1  UNL1        0.0183
     17 C          -4.6472  -18.6516   22.0153 C.2     1  UNL1        0.0037
     18 C          -5.8025  -17.7572   22.3552 C.3     1  UNL1        0.0572
     19 C          -9.2608  -17.9630   23.7120 C.3     1  UNL1        0.0350
     20 C         -10.7596  -17.9552   23.7691 C.ar    1  UNL1       -0.0217
     21 C         -11.4785  -18.8587   24.7267 C.ar    1  UNL1       -0.0043
     22 C         -12.9774  -18.8508   24.7838 C.ar    1  UNL1       -0.0003
     23 C         -13.7575  -17.9396   23.8833 C.ar    1  UNL1       -0.0000
     24 C         -13.0386  -17.0361   22.9256 C.ar    1  UNL1       -0.0003
     25 C         -11.5397  -17.0439   22.8685 C.ar    1  UNL1       -0.0043
@<TRIPOS>BOND
     1     7     8    2
     2     8     9    1
     3     9    10    2
     4    10    11    1
     5    11    12    1
     6    11    13    2
     7    13    14    1
     8    14    15    2
     9    15    16    1
    10    16    17    2
    11    17    18    1
    12     8     1    1
    13     1    19    1
    14    19    20    1
    15    20    21   ar
    16    21    22   ar
    17    22    23   ar
    18    23    24   ar
    19    24    25   ar
    20     1     2    1
    21     2     3    1
    22     3     4    1
    23     4     5    1
    24    18     9    1
    25     5     1    1
    26    17    13    1
    27    25    20   ar
    28     4     6    1
@<TRIPOS>MOLECULE
*****
 25 28 0 0 0
SMALL
GASTEIGER

@<TRIPOS>ATOM
      1 C          -8.5546  -16.7256   23.4612 C.3     1  UNL1        0.0750
      2 C          -9.1368  -16.4110   24.8074 C.3     1  UNL1        0.0260
      3 C          -8.6650  -15.0449   25.2086 C.3     1  UNL1        0.0691
      4 N          -7.7913  -14.5151   24.1105 N.3     1  UNL1       -0.2971
      5 C          -7.7230  -15.5538   23.0305 C.3     1  UNL1        0.0762
      6 H          -6.8557  -14.3293   24.4717 H       1  UNL1        0.1233
      7 O          -9.0503  -17.2553   20.9666 O.2     1  UNL1       -0.2916
      8 C          -8.1275  -17.3107   22.1477 C.2     1  UNL1        0.1703
      9 C          -6.7775  -17.9512   22.0155 C.2     1  UNL1        0.0192
     10 C          -5.6927  -17.6241   22.9983 C.2     1  UNL1        0.0301
     11 C          -4.3427  -18.2646   22.8661 C.2     1  UNL1        0.1571
     12 F          -3.2579  -17.9375   23.8490 F       1  UNL1       -0.2026
     13 C          -4.0777  -19.2322   21.7509 C.2     1  UNL1        0.1050
     14 N          -2.8557  -20.0141   21.3697 N.2     1  UNL1       -0.2419
     15 C          -3.1854  -20.8243   20.1512 C.2     1  UNL1        0.0986
     16 C          -4.6111  -20.5433   19.7794 C.2     1  UNL1        0.0183
     17 C          -5.1626  -19.5592   20.7680 C.2     1  UNL1        0.0037
     18 C          -6.5125  -18.9187   20.9003 C.3     1  UNL1        0.0572
     19 C          -9.2968  -18.0197   23.6173 C.3     1  UNL1        0.0350
     20 C         -10.7914  -18.0164   23.7448 C.ar    1  UNL1       -0.0217
     21 C         -11.6217  -17.1837   22.8137 C.ar    1  UNL1       -0.0043
     22 C         -13.1163  -17.1804   22.9411 C.ar    1  UNL1       -0.0003
     23 C         -13.7806  -18.0098   23.9998 C.ar    1  UNL1       -0.0000
     24 C         -12.9503  -18.8425   24.9310 C.ar    1  UNL1       -0.0003
     25 C         -11.4556  -18.8458   24.8035 C.ar    1  UNL1       -0.0043
@<TRIPOS>BOND
     1     7     8    2
     2     8     9    1
     3     9    10    2
     4    10    11    1
     5    11    12    1
     6    11    13    2
     7    13    14    1
     8    14    15    2
     9    15    16    1
    10    16    17    2
    11    17    18    1
    12     8     1    1
    13     1    19    1
    14    19    20    1
    15    20    21   ar
    16    21    22   ar
    17    22    23   ar
    18    23    24   ar
    19    24    25   ar
    20     1     2    1
    21     2     3    1
    22     3     4    1
    23     4     5    1
    24    18     9    1
    25     5     1    1
    26    17    13    1
    27    25    20   ar
    28     4     6    1
@<TRIPOS>MOLECULE
*****
 25 28 0 0 0
SMALL
GASTEIGER

@<TRIPOS>ATOM
      1 C          -6.4940  -17.4295   22.6470 C.3     1  UNL1        0.0750
      2 C          -5.1786  -17.1770   23.3225 C.3     1  UNL1        0.0260
      3 C          -5.1836  -15.7672   23.8345 C.3     1  UNL1        0.0691
      4 N          -6.5020  -15.1483   23.4754 N.3     1  UNL1       -0.2971
      5 C          -7.3118  -16.1757   22.7415 C.3     1  UNL1        0.0762
      6 H          -6.3514  -14.3351   22.8784 H       1  UNL1        0.1233
      7 O          -7.6137  -18.2389   20.4468 O.2     1  UNL1       -0.2916
      8 C          -7.6906  -17.9676   21.9200 C.2     1  UNL1        0.1703
      9 C          -8.9642  -18.2344   22.6663 C.2     1  UNL1        0.0192
     10 C          -8.9805  -19.2261   23.7915 C.2     1  UNL1        0.0301
     11 C         -10.2541  -19.4928   24.5378 C.2     1  UNL1        0.1571
     12 F         -10.2703  -20.4846   25.6630 F       1  UNL1       -0.2026
     13 C         -11.5113  -18.7677   24.1588 C.2     1  UNL1        0.1050
     14 N         -12.9060  -18.8225   24.7082 N.2     1  UNL1       -0.2419
     15 C         -13.7516  -17.8646   23.9226 C.2     1  UNL1        0.0986
     16 C         -12.8795  -17.2178   22.8876 C.2     1  UNL1        0.0183
     17 C         -11.4949  -17.7759   23.0336 C.2     1  UNL1        0.0037
     18 C         -10.2214  -17.5093   22.2873 C.3     1  UNL1        0.0572
     19 C          -5.9263  -18.7959   22.4005 C.3     1  UNL1        0.0350
     20 C          -4.6156  -18.9459   21.6866 C.ar    1  UNL1       -0.0217
     21 C          -3.3424  -19.0578   22.4717 C.ar    1  UNL1       -0.0043
     22 C          -2.0317  -19.2078   21.7579 C.ar    1  UNL1       -0.0003
     23 C          -1.9942  -19.2459   20.2589 C.ar    1  UNL1       -0.0000
     24 C          -3.2673  -19.1340   19.4737 C.ar    1  UNL1       -0.0003
     25 C          -4.5781  -18.9840   20.1875 C.ar    1  UNL1       -0.0043
@<TRIPOS>BOND
     1     7     8    2
     2     8     9    1
     3     9    10    2
     4    10    11    1
     5    11    12    1
     6    11    13    2
     7    13    14    1
     8    14    15    2
     9    15    16    1
    10    16    17    2
    11    17    18    1
    12     8     1    1
    13     1    19    1
    14    19    20    1
    15    20    21   ar
    16    21    22   ar
    17    22    23   ar
    18    23    24   ar
    19    24    25   ar
    20     1     2    1
    21     2     3    1
    22     3     4    1
    23     4     5    1
    24    18     9    1
    25     5     1    1
    26    17    13    1
    27    25    20   ar
    28     4     6    1
@<TRIPOS>MOLECULE
*****
 25 28 0 0 0
SMALL
GASTEIGER

@<TRIPOS>ATOM
      1 C          -6.5930  -18.1804   22.2288 C.3     1  UNL1        0.0750
      2 C          -5.3795  -17.6482   22.9318 C.3     1  UNL1        0.0260
      3 C          -4.3203  -18.7096   22.8961 C.3     1  UNL1        0.0691
      4 N          -4.8791  -19.8979   22.1711 N.3     1  UNL1       -0.2971
      5 C          -6.2837  -19.5709   21.7586 C.3     1  UNL1        0.0762
      6 H          -4.8797  -20.7106   22.7874 H       1  UNL1        0.1233
      7 O          -8.0473  -18.5273   20.1040 O.2     1  UNL1       -0.2916
      8 C          -7.9295  -18.4331   21.5964 C.2     1  UNL1        0.1703
      9 C          -9.1482  -18.5915   22.4565 C.2     1  UNL1        0.0192
     10 C          -9.1276  -19.5387   23.6192 C.2     1  UNL1        0.0301
     11 C         -10.3464  -19.6971   24.4793 C.2     1  UNL1        0.1571
     12 F         -10.3257  -20.6444   25.6422 F       1  UNL1       -0.2026
     13 C         -11.5857  -18.9082   24.1765 C.2     1  UNL1        0.1050
     14 N         -12.9290  -18.8547   24.8418 N.2     1  UNL1       -0.2419
     15 C         -13.7798  -17.8744   24.0901 C.2     1  UNL1        0.0986
     16 C         -12.9623  -17.3220   22.9602 C.2     1  UNL1        0.0183
     17 C         -11.6062  -17.9609   23.0136 C.2     1  UNL1        0.0037
     18 C         -10.3875  -17.8026   22.1536 C.3     1  UNL1        0.0572
     19 C          -7.1817  -16.8428   22.5667 C.3     1  UNL1        0.0350
     20 C          -7.0921  -16.3165   23.9685 C.ar    1  UNL1       -0.0217
     21 C          -5.8102  -15.7150   24.4633 C.ar    1  UNL1       -0.0043
     22 C          -5.7206  -15.1887   25.8651 C.ar    1  UNL1       -0.0003
     23 C          -6.9128  -15.2639   26.7721 C.ar    1  UNL1       -0.0000
     24 C          -8.1948  -15.8654   26.2773 C.ar    1  UNL1       -0.0003
     25 C          -8.2844  -16.3918   24.8755 C.ar    1  UNL1       -0.0043
@<TRIPOS>BOND
     1     7     8    2
     2     8     9    1
     3     9    10    2
     4    10    11    1
     5    11    12    1
     6    11    13    2
     7    13    14    1
     8    14    15    2
     9    15    16    1
    10    16    17    2
    11    17    18    1
    12     8     1    1
    13     1    19    1
    14    19    20    1
    15    20    21   ar
    16    21    22   ar
    17    22    23   ar
    18    23    24   ar
    19    24    25   ar
    20     1     2    1
    21     2     3    1
    22     3     4    1
    23     4     5    1
    24    18     9    1
    25     5     1    1
    26    17    13    1
    27    25    20   ar
    28     4     6    1
@<TRIPOS>MOLECULE
*****
 25 28 0 0 0
SMALL
GASTEIGER

@<TRIPOS>ATOM
      1 C         -11.8200   -7.0440   18.2381 C.3     1  UNL1        0.0750
      2 C         -10.6527   -7.0411   19.1803 C.3     1  UNL1        0.0260
      3 C          -9.5715   -7.8908   18.5813 C.3     1  UNL1        0.0691
      4 N         -10.0704   -8.4187   17.2689 N.3     1  UNL1       -0.2971
      5 C         -11.4600   -7.8954   17.0568 C.3     1  UNL1        0.0762
      6 H         -10.0838   -9.4384   17.2886 H       1  UNL1        0.1233
      7 O         -13.1826   -5.9799   16.2989 O.2     1  UNL1       -0.2916
      8 C         -13.1192   -6.8609   17.5112 C.2     1  UNL1        0.1703
      9 C         -14.3550   -7.5589   17.9966 C.2     1  UNL1        0.0192
     10 C         -14.5006   -9.0405   17.8133 C.2     1  UNL1        0.0301
     11 C         -15.7364   -9.7385   18.2987 C.2     1  UNL1        0.1571
     12 F         -15.8819  -11.2202   18.1153 F       1  UNL1       -0.2026
     13 C         -16.8267   -8.9549   18.9674 C.2     1  UNL1        0.1050
     14 N         -18.1488   -9.3657   19.5444 N.2     1  UNL1       -0.2419
     15 C         -18.8205   -8.1379   20.0843 C.2     1  UNL1        0.0986
     16 C         -17.9134   -6.9683   19.8410 C.2     1  UNL1        0.0183
     17 C         -16.6811   -7.4732   19.1507 C.2     1  UNL1        0.0037
     18 C         -15.4453   -6.7753   18.6653 C.3     1  UNL1        0.0572
     19 C         -12.4515   -6.1543   19.2675 C.3     1  UNL1        0.0350
     20 C         -12.3027   -4.6653   19.1648 C.ar    1  UNL1       -0.0217
     21 C         -13.3888   -3.7659   19.6761 C.ar    1  UNL1       -0.0043
     22 C         -13.2399   -2.2768   19.5734 C.ar    1  UNL1       -0.0003
     23 C         -12.0049   -1.6871   18.9594 C.ar    1  UNL1       -0.0000
     24 C         -10.9188   -2.5865   18.4480 C.ar    1  UNL1       -0.0003
     25 C         -11.0676   -4.0756   18.5507 C.ar    1  UNL1       -0.0043
@<TRIPOS>BOND
     1     7     8    2
     2     8     9    1
     3     9    10    2
     4    10    11    1
     5    11    12    1
     6    11    13    2
     7    13    14    1
     8    14    15    2
     9    15    16    1
    10    16    17    2
    11    17    18    1
    12     8     1    1
    13     1    19    1
    14    19    20    1
    15    20    21   ar
    16    21    22   ar
    17    22    23   ar
    18    23    24   ar
    19    24    25   ar
    20     1     2    1
    21     2     3    1
    22     3     4    1
    23     4     5    1
    24    18     9    1
    25     5     1    1
    26    17    13    1
    27    25    20   ar
    28     4     6    1
@<TRIPOS>MOLECULE
*****
 25 28 0 0 0
SMALL
GASTEIGER

@<TRIPOS>ATOM
      1 C          -8.4091  -17.9345   22.2180 C.3     1  UNL1        0.0750
      2 C          -9.4156  -16.8620   21.9234 C.3     1  UNL1        0.0260
      3 C          -8.7429  -15.5333   22.1021 C.3     1  UNL1        0.0691
      4 N          -7.3207  -15.7846   22.5072 N.3     1  UNL1       -0.2971
      5 C          -7.1143  -17.2685   22.5788 C.3     1  UNL1        0.0762
      6 H          -7.1416  -15.3657   23.4198 H       1  UNL1        0.1233
      7 O          -8.2888  -20.3566   23.1500 O.2     1  UNL1       -0.2916
      8 C          -7.6396  -19.2015   22.4472 C.2     1  UNL1        0.1703
      9 C          -6.2207  -19.3133   21.9735 C.2     1  UNL1        0.0192
     10 C          -5.8919  -20.1667   20.7847 C.2     1  UNL1        0.0301
     11 C          -4.4730  -20.2785   20.3109 C.2     1  UNL1        0.1571
     12 F          -4.1443  -21.1321   19.1220 F       1  UNL1       -0.2026
     13 C          -3.3830  -19.5368   21.0262 C.2     1  UNL1        0.1050
     14 N          -1.9037  -19.4546   20.7914 N.2     1  UNL1       -0.2419
     15 C          -1.3183  -18.5503   21.8352 C.2     1  UNL1        0.0986
     16 C          -2.4357  -18.0736   22.7151 C.2     1  UNL1        0.0183
     17 C          -3.7118  -18.6833   22.2151 C.2     1  UNL1        0.0037
     18 C          -5.1306  -18.5715   22.6887 C.3     1  UNL1        0.0572
     19 C          -9.5430  -18.8653   21.9051 C.3     1  UNL1        0.0350
     20 C         -10.9101  -18.5949   22.4598 C.ar    1  UNL1       -0.0217
     21 C         -12.0107  -18.1341   21.5507 C.ar    1  UNL1       -0.0043
     22 C         -13.3779  -17.8637   22.1054 C.ar    1  UNL1       -0.0003
     23 C         -13.6446  -18.0541   23.5691 C.ar    1  UNL1       -0.0000
     24 C         -12.5440  -18.5150   24.4782 C.ar    1  UNL1       -0.0003
     25 C         -11.1768  -18.7854   23.9235 C.ar    1  UNL1       -0.0043
@<TRIPOS>BOND
     1     7     8    2
     2     8     9    1
     3     9    10    2
     4    10    11    1
     5    11    12    1
     6    11    13    2
     7    13    14    1
     8    14    15    2
     9    15    16    1
    10    16    17    2
    11    17    18    1
    12     8     1    1
    13     1    19    1
    14    19    20    1
    15    20    21   ar
    16    21    22   ar
    17    22    23   ar
    18    23    24   ar
    19    24    25   ar
    20     1     2    1
    21     2     3    1
    22     3     4    1
    23     4     5    1
    24    18     9    1
    25     5     1    1
    26    17    13    1
    27    25    20   ar
    28     4     6    1
@<TRIPOS>MOLECULE
*****
 25 28 0 0 0
SMALL
GASTEIGER

@<TRIPOS>ATOM
      1 C         -14.3232   -4.2256   18.9349 C.3     1  UNL1        0.0750
      2 C         -13.9531   -3.3474   20.0934 C.3     1  UNL1        0.0260
      3 C         -14.6039   -2.0116   19.8889 C.3     1  UNL1        0.0691
      4 N         -15.3762   -2.0641   18.6041 N.3     1  UNL1       -0.2971
      5 C         -15.2028   -3.4324   18.0145 C.3     1  UNL1        0.0762
      6 H         -15.0199   -1.3607   17.9571 H       1  UNL1        0.1233
      7 O         -13.8876   -5.2050   16.5684 O.2     1  UNL1       -0.2916
      8 C         -14.5180   -5.3172   17.9248 C.2     1  UNL1        0.1703
      9 C         -15.3433   -6.5210   18.2711 C.2     1  UNL1        0.0192
     10 C         -14.8672   -7.8915   17.8907 C.2     1  UNL1        0.0301
     11 C         -15.6925   -9.0953   18.2370 C.2     1  UNL1        0.1571
     12 F         -15.2162  -10.4659   17.8566 F       1  UNL1       -0.2026
     13 C         -16.9940   -8.9284   18.9639 C.2     1  UNL1        0.1050
     14 N         -18.0146   -9.9212   19.4355 N.2     1  UNL1       -0.2419
     15 C         -19.1216   -9.1642   20.1075 C.2     1  UNL1        0.0986
     16 C         -18.7851   -7.7035   20.0511 C.2     1  UNL1        0.0183
     17 C         -17.4701   -7.5578   19.3443 C.2     1  UNL1        0.0037
     18 C         -16.6448   -6.3541   18.9979 C.3     1  UNL1        0.0572
     19 C         -13.4844   -5.2470   19.6442 C.3     1  UNL1        0.0350
     20 C         -12.0681   -5.4856   19.2117 C.ar    1  UNL1       -0.0217
     21 C         -11.5716   -6.8865   19.0093 C.ar    1  UNL1       -0.0043
     22 C         -10.1552   -7.1251   18.5768 C.ar    1  UNL1       -0.0003
     23 C          -9.2354   -5.9629   18.3466 C.ar    1  UNL1       -0.0000
     24 C          -9.7319   -4.5620   18.5489 C.ar    1  UNL1       -0.0003
     25 C         -11.1483   -4.3233   18.9815 C.ar    1  UNL1       -0.0043
@<TRIPOS>BOND
     1     7     8    2
     2     8     9    1
     3     9    10    2
     4    10    11    1
     5    11    12    1
     6    11    13    2
     7    13    14    1
     8    14    15    2
     9    15    16    1
    10    16    17    2
    11    17    18    1
    12     8     1    1
    13     1    19    1
    14    19    20    1
    15    20    21   ar
    16    21    22   ar
    17    22    23   ar
    18    23    24   ar
    19    24    25   ar
    20     1     2    1
    21     2     3    1
    22     3     4    1
    23     4     5    1
    24    18     9    1
    25     5     1    1
    26    17    13    1
    27    25    20   ar
    28     4     6    1
