@<TRIPOS>MOLECULE
*****
 35 38 0 0 0
SMALL
GASTEIGER

@<TRIPOS>ATOM
      1 C         -12.1577   -3.6169   18.1585 C.3     1  UNL1        0.1066
      2 C         -11.8676   -2.4256   17.2944 C.3     1  UNL1        0.0470
      3 C         -12.8173   -1.3306   17.6804 C.ar    1  UNL1       -0.0106
      4 C         -12.9968    0.0685   17.1703 C.ar    1  UNL1        0.0544
      5 CL        -12.1197    0.5830   16.0675 Cl      1  UNL1       -0.0826
      6 C         -14.0532    0.9531   17.7629 C.ar    1  UNL1        0.0224
      7 C         -14.9303    0.4386   18.8657 C.ar    1  UNL1        0.0583
      8 CL        -15.9868    1.3233   19.4583 Cl      1  UNL1       -0.0822
      9 C         -14.7508   -0.9605   19.3758 C.ar    1  UNL1        0.0104
     10 C         -13.6943   -1.8451   18.7832 C.ar    1  UNL1        0.0163
     11 C         -13.2867   -3.2581   19.0787 C.3     1  UNL1        0.2027
     12 N         -11.4690   -8.2849   15.9825 N.3     1  UNL1       -0.3211
     13 C         -11.0997   -7.2694   17.0229 C.3     1  UNL1        0.0670
     14 C         -10.0169   -7.5725   18.0157 C.3     1  UNL1        0.0183
     15 C          -9.6477   -6.5570   19.0561 C.3     1  UNL1        0.0187
     16 C         -10.3613   -5.2385   19.1037 C.3     1  UNL1        0.0723
     17 N         -11.4441   -4.9354   18.1109 N.3     1  UNL1       -0.2692
     18 C         -11.8133   -5.9509   17.0705 C.3     1  UNL1        0.0878
     19 H         -10.8878   -9.1153   16.0965 H       1  UNL1        0.1189
     20 H         -11.3195   -7.8901   15.0539 H       1  UNL1        0.1189
     21 O         -13.9003   -4.1548   20.1128 O.3     1  UNL1       -0.4725
     22 C         -14.7782   -5.2954   19.6907 C.ar    1  UNL1        0.1503
     23 C         -14.1659   -6.6055   19.2922 C.ar    1  UNL1        0.0392
     24 C         -15.0438   -7.7462   18.8701 C.ar    1  UNL1        0.0239
     25 C         -16.5340   -7.5768   18.8466 C.ar    1  UNL1        0.1332
     26 C         -17.1463   -6.2667   19.2451 C.ar    1  UNL1        0.0897
     27 CL        -18.6365   -6.0974   19.2216 Cl      1  UNL1       -0.0799
     28 C         -16.2684   -5.1260   19.6672 C.ar    1  UNL1        0.1033
     29 CL        -16.8807   -3.8160   20.0657 Cl      1  UNL1       -0.0782
     30 S         -17.4119   -8.7175   18.4245 S.O2    1  UNL1        0.0580
     31 N         -18.2898   -9.8581   18.0025 N.3     1  UNL1       -0.2034
     32 O         -17.2993   -8.2754   16.9955 O.2     1  UNL1       -0.1532
     33 O         -17.5245   -9.1595   19.8535 O.2     1  UNL1       -0.1532
     34 H         -18.4166   -9.8333   16.9907 H       1  UNL1        0.1442
     35 H         -19.1973   -9.7765   18.4609 H       1  UNL1        0.1442
@<TRIPOS>BOND
     1    13    12    1
     2    13    14    1
     3    14    15    1
     4    15    16    1
     5    16    17    1
     6     1    17    1
     7     1     2    1
     8     2     3    1
     9     3     4   ar
    10     4     5    1
    11     4     6   ar
    12     6     7   ar
    13     7     8    1
    14     7     9   ar
    15     9    10   ar
    16    10    11    1
    17    11    21    1
    18    21    22    1
    19    22    23   ar
    20    23    24   ar
    21    24    25   ar
    22    25    30    1
    23    30    31    1
    24    30    32    2
    25    30    33    2
    26    25    26   ar
    27    26    27    1
    28    26    28   ar
    29    28    29    1
    30    17    18    1
    31    18    13    1
    32    11     1    1
    33    28    22   ar
    34    10     3   ar
    35    12    19    1
    36    12    20    1
    37    31    34    1
    38    31    35    1
@<TRIPOS>MOLECULE
*****
 35 38 0 0 0
SMALL
GASTEIGER

@<TRIPOS>ATOM
      1 C         -14.1050   -6.7616   18.6190 C.3     1  UNL1        0.1066
      2 C         -12.7293   -7.2639   18.9434 C.3     1  UNL1        0.0470
      3 C         -11.7356   -6.3070   18.3544 C.ar    1  UNL1       -0.0106
      4 C         -10.2357   -6.2903   18.3560 C.ar    1  UNL1        0.0544
      5 CL         -9.4742   -7.3840   19.0445 Cl      1  UNL1       -0.0826
      6 C          -9.4973   -5.1799   17.6692 C.ar    1  UNL1        0.0224
      7 C         -10.2588   -4.0862   16.9807 C.ar    1  UNL1        0.0583
      8 CL         -9.5204   -2.9758   16.2939 Cl      1  UNL1       -0.0822
      9 C         -11.7587   -4.1030   16.9791 C.ar    1  UNL1        0.0104
     10 C         -12.4971   -5.2134   17.6659 C.ar    1  UNL1        0.0163
     11 C         -13.9614   -5.4943   17.8295 C.3     1  UNL1        0.2027
     12 N         -16.9439  -11.0518   19.3504 N.3     1  UNL1       -0.3211
     13 C         -16.8168   -9.5574   19.3803 C.3     1  UNL1        0.0670
     14 C         -17.9818   -8.7139   19.8058 C.3     1  UNL1        0.0183
     15 C         -17.8546   -7.2196   19.8357 C.3     1  UNL1        0.0187
     16 C         -16.5623   -6.5689   19.4401 C.3     1  UNL1        0.0723
     17 N         -15.3973   -7.4124   19.0146 N.3     1  UNL1       -0.2692
     18 C         -15.5245   -8.9066   18.9847 C.3     1  UNL1        0.0878
     19 H         -17.8824  -11.3191   19.6476 H       1  UNL1        0.1189
     20 H         -16.2570  -11.4642   19.9817 H       1  UNL1        0.1189
     21 O         -15.0850   -4.6553   17.2969 O.3     1  UNL1       -0.4725
     22 C         -15.4616   -3.3792   17.9894 C.ar    1  UNL1        0.1503
     23 C         -14.8779   -3.0542   19.3325 C.ar    1  UNL1        0.0392
     24 C         -15.2545   -1.7780   20.0251 C.ar    1  UNL1        0.0239
     25 C         -16.2148   -0.8268   19.3746 C.ar    1  UNL1        0.1332
     26 C         -16.7984   -1.1518   18.0316 C.ar    1  UNL1        0.0897
     27 CL        -17.7587   -0.2006   17.3812 Cl      1  UNL1       -0.0799
     28 C         -16.4219   -2.4279   17.3390 C.ar    1  UNL1        0.1033
     29 CL        -17.0056   -2.7528   15.9960 Cl      1  UNL1       -0.0782
     30 S         -16.5913    0.4493   20.0672 S.O2    1  UNL1        0.0580
     31 N         -16.9679    1.7254   20.7598 N.3     1  UNL1       -0.2034
     32 O         -17.7477   -0.2470   20.7215 O.2     1  UNL1       -0.1532
     33 O         -15.4350    1.1456   19.4129 O.2     1  UNL1       -0.1532
     34 H         -17.7946    1.5683   21.3362 H       1  UNL1        0.1442
     35 H         -17.1701    2.4431   20.0638 H       1  UNL1        0.1442
@<TRIPOS>BOND
     1    13    12    1
     2    13    14    1
     3    14    15    1
     4    15    16    1
     5    16    17    1
     6     1    17    1
     7     1     2    1
     8     2     3    1
     9     3     4   ar
    10     4     5    1
    11     4     6   ar
    12     6     7   ar
    13     7     8    1
    14     7     9   ar
    15     9    10   ar
    16    10    11    1
    17    11    21    1
    18    21    22    1
    19    22    23   ar
    20    23    24   ar
    21    24    25   ar
    22    25    30    1
    23    30    31    1
    24    30    32    2
    25    30    33    2
    26    25    26   ar
    27    26    27    1
    28    26    28   ar
    29    28    29    1
    30    17    18    1
    31    18    13    1
    32    11     1    1
    33    28    22   ar
    34    10     3   ar
    35    12    19    1
    36    12    20    1
    37    31    34    1
    38    31    35    1
@<TRIPOS>MOLECULE
*****
 35 38 0 0 0
SMALL
GASTEIGER

@<TRIPOS>ATOM
      1 C         -12.6800   -2.3450   18.3110 C.3     1  UNL1        0.1066
      2 C         -12.9011   -0.9957   17.6942 C.3     1  UNL1        0.0470
      3 C         -14.0969   -0.3750   18.3534 C.ar    1  UNL1       -0.0106
      4 C         -14.7811    0.9448   18.1534 C.ar    1  UNL1        0.0544
      5 CL        -14.2630    1.9106   17.1293 Cl      1  UNL1       -0.0826
      6 C         -15.9833    1.2989   18.9776 C.ar    1  UNL1        0.0224
      7 C         -16.5013    0.3332   20.0018 C.ar    1  UNL1        0.0583
      8 CL        -17.7036    0.6873   20.8260 Cl      1  UNL1       -0.0822
      9 C         -15.8172   -0.9866   20.2018 C.ar    1  UNL1        0.0104
     10 C         -14.6150   -1.3407   19.3776 C.ar    1  UNL1        0.0163
     11 C         -13.7393   -2.5583   19.3514 C.3     1  UNL1        0.2027
     12 N          -8.9885   -5.7064   19.7511 N.3     1  UNL1       -0.3211
     13 C          -9.7451   -4.9922   18.6706 C.3     1  UNL1        0.0670
     14 C          -9.4127   -5.2443   17.2298 C.3     1  UNL1        0.0183
     15 C         -10.1693   -4.5301   16.1495 C.3     1  UNL1        0.0187
     16 C         -11.2584   -3.5636   16.5098 C.3     1  UNL1        0.0723
     17 N         -11.5909   -3.3115   17.9506 N.3     1  UNL1       -0.2692
     18 C         -10.8342   -4.0257   19.0310 C.3     1  UNL1        0.0878
     19 H          -8.2908   -6.3194   19.3293 H       1  UNL1        0.1189
     20 H          -9.6364   -6.2623   20.3094 H       1  UNL1        0.1189
     21 O         -13.8955   -3.7754   20.2141 O.3     1  UNL1       -0.4725
     22 C         -14.9014   -4.8274   19.8519 C.ar    1  UNL1        0.1503
     23 C         -16.3676   -4.5170   19.9164 C.ar    1  UNL1        0.0392
     24 C         -17.3736   -5.5690   19.5542 C.ar    1  UNL1        0.0239
     25 C         -16.9135   -6.9315   19.1275 C.ar    1  UNL1        0.1332
     26 C         -15.4474   -7.2418   19.0629 C.ar    1  UNL1        0.0897
     27 CL        -14.9873   -8.6042   18.6362 Cl      1  UNL1       -0.0799
     28 C         -14.4414   -6.1898   19.4251 C.ar    1  UNL1        0.1033
     29 CL        -12.9753   -6.5002   19.3605 Cl      1  UNL1       -0.0782
     30 S         -17.9195   -7.9835   18.7653 S.O2    1  UNL1        0.0580
     31 N         -18.9255   -9.0355   18.4031 N.3     1  UNL1       -0.2034
     32 O         -17.9675   -8.4303   20.1964 O.2     1  UNL1       -0.1532
     33 O         -17.8715   -7.5367   17.3342 O.2     1  UNL1       -0.1532
     34 H         -19.1843   -9.5604   19.2385 H       1  UNL1        0.1442
     35 H         -18.5210   -9.6700   17.7146 H       1  UNL1        0.1442
@<TRIPOS>BOND
     1    13    12    1
     2    13    14    1
     3    14    15    1
     4    15    16    1
     5    16    17    1
     6     1    17    1
     7     1     2    1
     8     2     3    1
     9     3     4   ar
    10     4     5    1
    11     4     6   ar
    12     6     7   ar
    13     7     8    1
    14     7     9   ar
    15     9    10   ar
    16    10    11    1
    17    11    21    1
    18    21    22    1
    19    22    23   ar
    20    23    24   ar
    21    24    25   ar
    22    25    30    1
    23    30    31    1
    24    30    32    2
    25    30    33    2
    26    25    26   ar
    27    26    27    1
    28    26    28   ar
    29    28    29    1
    30    17    18    1
    31    18    13    1
    32    11     1    1
    33    28    22   ar
    34    10     3   ar
    35    12    19    1
    36    12    20    1
    37    31    34    1
    38    31    35    1
@<TRIPOS>MOLECULE
*****
 35 38 0 0 0
SMALL
GASTEIGER

@<TRIPOS>ATOM
      1 C           7.1067   -3.2192   21.6076 C.3     1  UNL1        0.1066
      2 C           7.7785   -4.5519   21.7581 C.3     1  UNL1        0.0470
      3 C           7.6285   -4.9880   23.1855 C.ar    1  UNL1       -0.0106
      4 C           8.0893   -6.2158   23.9135 C.ar    1  UNL1        0.0544
      5 CL          8.8538   -7.2790   23.1819 Cl      1  UNL1       -0.0826
      6 C           7.7856   -6.3805   25.3731 C.ar    1  UNL1        0.0224
      7 C           7.0211   -5.3174   26.1048 C.ar    1  UNL1        0.0583
      8 CL          6.7174   -5.4821   27.5645 Cl      1  UNL1       -0.0822
      9 C           6.5603   -4.0895   25.3767 C.ar    1  UNL1        0.0104
     10 C           6.8640   -3.9249   23.9171 C.ar    1  UNL1        0.0163
     11 C           6.5415   -2.8317   22.9419 C.3     1  UNL1        0.2027
     12 N           4.6505   -2.0599   17.1778 N.3     1  UNL1       -0.3211
     13 C           5.7879   -1.8355   18.1296 C.3     1  UNL1        0.0670
     14 C           6.8346   -0.8072   17.8183 C.3     1  UNL1        0.0183
     15 C           7.9720   -0.5829   18.7701 C.3     1  UNL1        0.0187
     16 C           8.0627   -1.3869   20.0332 C.3     1  UNL1        0.0723
     17 N           7.0160   -2.4152   20.3445 N.3     1  UNL1       -0.2692
     18 C           5.8786   -2.6395   19.3927 C.3     1  UNL1        0.0878
     19 H           4.7465   -1.4325   16.3793 H       1  UNL1        0.1189
     20 H           3.7675   -1.8727   17.6530 H       1  UNL1        0.1189
     21 O           5.7864   -1.5721   23.2474 O.3     1  UNL1       -0.4725
     22 C           4.7961   -1.0327   22.2584 C.ar    1  UNL1        0.1503
     23 C           3.5465   -1.8037   21.9516 C.ar    1  UNL1        0.0392
     24 C           2.5561   -1.2643   20.9626 C.ar    1  UNL1        0.0239
     25 C           2.8154    0.0462   20.2803 C.ar    1  UNL1        0.1332
     26 C           4.0649    0.8171   20.5871 C.ar    1  UNL1        0.0897
     27 CL          4.3241    2.1276   19.9047 Cl      1  UNL1       -0.0799
     28 C           5.0553    0.2777   21.5761 C.ar    1  UNL1        0.1033
     29 CL          6.3049    1.0488   21.8828 Cl      1  UNL1       -0.0782
     30 S           1.8250    0.5856   19.2913 S.O2    1  UNL1        0.0580
     31 N           0.8346    1.1250   18.3023 N.3     1  UNL1       -0.2034
     32 O           1.0703    1.2458   20.4070 O.2     1  UNL1       -0.1532
     33 O           2.5796   -0.0746   18.1756 O.2     1  UNL1       -0.1532
     34 H           0.1264    1.6705   18.7934 H       1  UNL1        0.1442
     35 H           0.3876    0.3504   17.8118 H       1  UNL1        0.1442
@<TRIPOS>BOND
     1    13    12    1
     2    13    14    1
     3    14    15    1
     4    15    16    1
     5    16    17    1
     6     1    17    1
     7     1     2    1
     8     2     3    1
     9     3     4   ar
    10     4     5    1
    11     4     6   ar
    12     6     7   ar
    13     7     8    1
    14     7     9   ar
    15     9    10   ar
    16    10    11    1
    17    11    21    1
    18    21    22    1
    19    22    23   ar
    20    23    24   ar
    21    24    25   ar
    22    25    30    1
    23    30    31    1
    24    30    32    2
    25    30    33    2
    26    25    26   ar
    27    26    27    1
    28    26    28   ar
    29    28    29    1
    30    17    18    1
    31    18    13    1
    32    11     1    1
    33    28    22   ar
    34    10     3   ar
    35    12    19    1
    36    12    20    1
    37    31    34    1
    38    31    35    1
@<TRIPOS>MOLECULE
*****
 35 38 0 0 0
SMALL
GASTEIGER

@<TRIPOS>ATOM
      1 C           1.5658    1.1956   23.0847 C.3     1  UNL1        0.1066
      2 C           0.4905    1.4592   24.0967 C.3     1  UNL1        0.0470
      3 C           1.0705    1.2274   25.4605 C.ar    1  UNL1       -0.0106
      4 C           0.4783    1.3342   26.8345 C.ar    1  UNL1        0.0544
      5 CL         -0.9556    1.7411   27.0036 Cl      1  UNL1       -0.0826
      6 C           1.3199    1.0342   28.0393 C.ar    1  UNL1        0.0224
      7 C           2.7537    0.6274   27.8701 C.ar    1  UNL1        0.0583
      8 CL          3.5954    0.3274   29.0750 Cl      1  UNL1       -0.0822
      9 C           3.3459    0.5206   26.4961 C.ar    1  UNL1        0.0104
     10 C           2.5043    0.8206   25.2913 C.ar    1  UNL1        0.0163
     11 C           2.8104    0.8009   23.8230 C.3     1  UNL1        0.2027
     12 N           1.7232    4.0571   18.7503 N.3     1  UNL1       -0.3211
     13 C           1.5005    2.7378   19.4286 C.3     1  UNL1        0.0670
     14 C           1.1337    1.5302   18.6180 C.3     1  UNL1        0.0183
     15 C           0.9110    0.2110   19.2963 C.3     1  UNL1        0.0187
     16 C           1.0550    0.0995   20.7852 C.3     1  UNL1        0.0723
     17 N           1.4218    1.3071   21.5958 N.3     1  UNL1       -0.2692
     18 C           1.6445    2.6263   20.9175 C.3     1  UNL1        0.0878
     19 H           1.5847    3.9504   17.7454 H       1  UNL1        0.1189
     20 H           2.6754    4.3754   18.9303 H       1  UNL1        0.1189
     21 O           4.1296    0.4484   23.2021 O.3     1  UNL1       -0.4725
     22 C           4.2489   -0.7699   22.3354 C.ar    1  UNL1        0.1503
     23 C           4.1212   -2.1364   22.9407 C.ar    1  UNL1        0.0392
     24 C           4.2406   -3.3549   22.0740 C.ar    1  UNL1        0.0239
     25 C           4.4876   -3.2067   20.6018 C.ar    1  UNL1        0.1332
     26 C           4.6153   -1.8403   19.9965 C.ar    1  UNL1        0.0897
     27 CL          4.8624   -1.6923   18.5244 Cl      1  UNL1       -0.0799
     28 C           4.4960   -0.6219   20.8633 C.ar    1  UNL1        0.1033
     29 CL          4.6237    0.7446   20.2579 Cl      1  UNL1       -0.0782
     30 S           4.6070   -4.4252   19.7351 S.O2    1  UNL1        0.0580
     31 N           4.7263   -5.6436   18.8684 N.3     1  UNL1       -0.2034
     32 O           6.0530   -4.5527   20.1134 O.2     1  UNL1       -0.1532
     33 O           3.1611   -4.2977   19.3569 O.2     1  UNL1       -0.1532
     34 H           5.6804   -6.0015   18.9145 H       1  UNL1        0.1442
     35 H           4.5013   -5.3983   17.9043 H       1  UNL1        0.1442
@<TRIPOS>BOND
     1    13    12    1
     2    13    14    1
     3    14    15    1
     4    15    16    1
     5    16    17    1
     6     1    17    1
     7     1     2    1
     8     2     3    1
     9     3     4   ar
    10     4     5    1
    11     4     6   ar
    12     6     7   ar
    13     7     8    1
    14     7     9   ar
    15     9    10   ar
    16    10    11    1
    17    11    21    1
    18    21    22    1
    19    22    23   ar
    20    23    24   ar
    21    24    25   ar
    22    25    30    1
    23    30    31    1
    24    30    32    2
    25    30    33    2
    26    25    26   ar
    27    26    27    1
    28    26    28   ar
    29    28    29    1
    30    17    18    1
    31    18    13    1
    32    11     1    1
    33    28    22   ar
    34    10     3   ar
    35    12    19    1
    36    12    20    1
    37    31    34    1
    38    31    35    1
@<TRIPOS>MOLECULE
*****
 35 38 0 0 0
SMALL
GASTEIGER

@<TRIPOS>ATOM
      1 C         -13.8901   -6.7774   18.5431 C.3     1  UNL1        0.1066
      2 C         -12.4520   -6.9466   18.9347 C.3     1  UNL1        0.0470
      3 C         -11.7261   -5.6794   18.5922 C.ar    1  UNL1       -0.0106
      4 C         -10.2920   -5.2698   18.7518 C.ar    1  UNL1        0.0544
      5 CL         -9.3026   -6.2221   19.3551 Cl      1  UNL1       -0.0826
      6 C          -9.8474   -3.9077   18.3080 C.ar    1  UNL1        0.0224
      7 C         -10.8368   -2.9553   17.7047 C.ar    1  UNL1        0.0583
      8 CL        -10.3920   -1.5932   17.2609 Cl      1  UNL1       -0.0822
      9 C         -12.2709   -3.3650   17.5451 C.ar    1  UNL1        0.0104
     10 C         -12.7155   -4.7271   17.9889 C.ar    1  UNL1        0.0163
     11 C         -14.0529   -5.4057   17.9585 C.3     1  UNL1        0.2027
     12 N         -18.5059   -8.1707   20.4804 N.3     1  UNL1       -0.3211
     13 C         -17.2827   -8.4970   19.6758 C.3     1  UNL1        0.0670
     14 C         -17.1442   -9.8463   19.0353 C.3     1  UNL1        0.0183
     15 C         -15.9211  -10.1726   18.2308 C.3     1  UNL1        0.0187
     16 C         -14.8364   -9.1497   18.0667 C.3     1  UNL1        0.0723
     17 N         -14.9748   -7.8004   18.7071 N.3     1  UNL1       -0.2692
     18 C         -16.1980   -7.4741   19.5117 C.3     1  UNL1        0.0878
     19 H         -19.1334   -8.9748   20.4864 H       1  UNL1        0.1189
     20 H         -18.9827   -7.3704   20.0648 H       1  UNL1        0.1189
     21 O         -15.3291   -4.8160   17.4354 O.3     1  UNL1       -0.4725
     22 C         -15.5618   -3.3367   17.5201 C.ar    1  UNL1        0.1503
     23 C         -15.5882   -2.5087   16.2695 C.ar    1  UNL1        0.0392
     24 C         -15.8209   -1.0293   16.3541 C.ar    1  UNL1        0.0239
     25 C         -16.0274   -0.3778   17.6894 C.ar    1  UNL1        0.1332
     26 C         -16.0011   -1.2057   18.9399 C.ar    1  UNL1        0.0897
     27 CL        -16.2075   -0.5541   20.2752 Cl      1  UNL1       -0.0799
     28 C         -15.7683   -2.6851   18.8553 C.ar    1  UNL1        0.1033
     29 CL        -15.7420   -3.5129   20.1059 Cl      1  UNL1       -0.0782
     30 S         -16.2601    1.1016   17.7740 S.O2    1  UNL1        0.0580
     31 N         -16.4929    2.5810   17.8587 N.3     1  UNL1       -0.2034
     32 O         -14.7825    1.3269   17.9005 O.2     1  UNL1       -0.1532
     33 O         -17.7377    0.8764   17.6476 O.2     1  UNL1       -0.1532
     34 H         -15.5983    3.0608   17.9589 H       1  UNL1        0.1442
     35 H         -17.0815    2.7870   18.6658 H       1  UNL1        0.1442
@<TRIPOS>BOND
     1    13    12    1
     2    13    14    1
     3    14    15    1
     4    15    16    1
     5    16    17    1
     6     1    17    1
     7     1     2    1
     8     2     3    1
     9     3     4   ar
    10     4     5    1
    11     4     6   ar
    12     6     7   ar
    13     7     8    1
    14     7     9   ar
    15     9    10   ar
    16    10    11    1
    17    11    21    1
    18    21    22    1
    19    22    23   ar
    20    23    24   ar
    21    24    25   ar
    22    25    30    1
    23    30    31    1
    24    30    32    2
    25    30    33    2
    26    25    26   ar
    27    26    27    1
    28    26    28   ar
    29    28    29    1
    30    17    18    1
    31    18    13    1
    32    11     1    1
    33    28    22   ar
    34    10     3   ar
    35    12    19    1
    36    12    20    1
    37    31    34    1
    38    31    35    1
@<TRIPOS>MOLECULE
*****
 35 38 0 0 0
SMALL
GASTEIGER

@<TRIPOS>ATOM
      1 C          -0.5342    3.3143   21.1660 C.3     1  UNL1        0.1066
      2 C          -1.9982    3.2787   21.4907 C.3     1  UNL1        0.0470
      3 C          -2.7598    3.5605   20.2294 C.ar    1  UNL1       -0.0106
      4 C          -4.2294    3.6532   19.9438 C.ar    1  UNL1        0.0544
      5 CL         -5.2227    3.4434   21.0480 Cl      1  UNL1       -0.0826
      6 C          -4.7056    3.9556   18.5540 C.ar    1  UNL1        0.0224
      7 C          -3.7122    4.1655   17.4498 C.ar    1  UNL1        0.0583
      8 CL         -4.1886    4.4680   16.0599 Cl      1  UNL1       -0.0822
      9 C          -2.2426    4.0728   17.7354 C.ar    1  UNL1        0.0104
     10 C          -1.7664    3.7703   19.1253 C.ar    1  UNL1        0.0163
     11 C          -0.3910    3.6182   19.7041 C.3     1  UNL1        0.2027
     12 N           1.7871    0.3527   24.7494 N.3     1  UNL1       -0.3211
     13 C           1.7499    1.6054   23.9250 C.3     1  UNL1        0.0670
     14 C           2.8362    2.6299   24.0681 C.3     1  UNL1        0.0183
     15 C           2.7989    3.8825   23.2437 C.3     1  UNL1        0.0187
     16 C           1.6755    4.1106   22.2764 C.3     1  UNL1        0.0723
     17 N           0.5892    3.0862   22.1333 N.3     1  UNL1       -0.2692
     18 C           0.6265    1.8336   22.9577 C.3     1  UNL1        0.0878
     19 H           2.6134    0.3635   25.3472 H       1  UNL1        0.1189
     20 H           1.8241   -0.4590   24.1328 H       1  UNL1        0.1189
     21 O           0.9009    3.7472   18.9529 O.3     1  UNL1       -0.4725
     22 C           1.7184    2.5263   18.6513 C.ar    1  UNL1        0.1503
     23 C           1.0593    1.1806   18.5823 C.ar    1  UNL1        0.0392
     24 C           1.8768   -0.0404   18.2807 C.ar    1  UNL1        0.0239
     25 C           3.3534    0.0843   18.0483 C.ar    1  UNL1        0.1332
     26 C           4.0125    1.4299   18.1174 C.ar    1  UNL1        0.0897
     27 CL          5.4891    1.5546   17.8849 Cl      1  UNL1       -0.0799
     28 C           3.1950    2.6509   18.4189 C.ar    1  UNL1        0.1033
     29 CL          3.8542    3.9965   18.4879 Cl      1  UNL1       -0.0782
     30 S           4.1709   -1.1367   17.7468 S.O2    1  UNL1        0.0580
     31 N           4.9883   -2.3577   17.4452 N.3     1  UNL1       -0.2034
     32 O           4.4470   -1.3134   19.2106 O.2     1  UNL1       -0.1532
     33 O           3.8948   -0.9600   16.2830 O.2     1  UNL1       -0.1532
     34 H           5.3506   -2.7477   18.3153 H       1  UNL1        0.1442
     35 H           5.7664   -2.1041   16.8364 H       1  UNL1        0.1442
@<TRIPOS>BOND
     1    13    12    1
     2    13    14    1
     3    14    15    1
     4    15    16    1
     5    16    17    1
     6     1    17    1
     7     1     2    1
     8     2     3    1
     9     3     4   ar
    10     4     5    1
    11     4     6   ar
    12     6     7   ar
    13     7     8    1
    14     7     9   ar
    15     9    10   ar
    16    10    11    1
    17    11    21    1
    18    21    22    1
    19    22    23   ar
    20    23    24   ar
    21    24    25   ar
    22    25    30    1
    23    30    31    1
    24    30    32    2
    25    30    33    2
    26    25    26   ar
    27    26    27    1
    28    26    28   ar
    29    28    29    1
    30    17    18    1
    31    18    13    1
    32    11     1    1
    33    28    22   ar
    34    10     3   ar
    35    12    19    1
    36    12    20    1
    37    31    34    1
    38    31    35    1
@<TRIPOS>MOLECULE
*****
 35 38 0 0 0
SMALL
GASTEIGER

@<TRIPOS>ATOM
      1 C           4.4223   -2.0181   22.5326 C.3     1  UNL1        0.1066
      2 C           3.3197   -1.1692   23.0927 C.3     1  UNL1        0.0470
      3 C           3.7739   -0.6349   24.4187 C.ar    1  UNL1       -0.0106
      4 C           3.1066    0.2568   25.4234 C.ar    1  UNL1        0.0544
      5 CL          1.7233    0.7755   25.1639 Cl      1  UNL1       -0.0826
      6 C           3.8227    0.6299   26.6875 C.ar    1  UNL1        0.0224
      7 C           5.2060    0.1113   26.9469 C.ar    1  UNL1        0.0583
      8 CL          5.9221    0.4844   28.2111 Cl      1  UNL1       -0.0822
      9 C           5.8733   -0.7805   25.9422 C.ar    1  UNL1        0.0104
     10 C           5.1573   -1.1536   24.6781 C.ar    1  UNL1        0.0163
     11 C           5.5580   -2.0084   23.5125 C.3     1  UNL1        0.2027
     12 N           4.5728   -1.9511   17.3391 N.3     1  UNL1       -0.3211
     13 C           4.4694   -2.7149   18.6260 C.3     1  UNL1        0.0670
     14 C           4.3378   -4.2089   18.6029 C.3     1  UNL1        0.0183
     15 C           4.2344   -4.9726   19.8897 C.3     1  UNL1        0.0187
     16 C           4.2626   -4.2424   21.1996 C.3     1  UNL1        0.0723
     17 N           4.3941   -2.7484   21.2227 N.3     1  UNL1       -0.2692
     18 C           4.4976   -1.9846   19.9359 C.3     1  UNL1        0.0878
     19 H           4.5371   -2.6013   16.5540 H       1  UNL1        0.1189
     20 H           5.4551   -1.4397   17.3172 H       1  UNL1        0.1189
     21 O           6.8649   -2.7274   23.3545 O.3     1  UNL1       -0.4725
     22 C           7.1239   -3.9901   24.1214 C.ar    1  UNL1        0.1503
     23 C           6.6680   -4.1095   25.5455 C.ar    1  UNL1        0.0392
     24 C           6.9270   -5.3723   26.3126 C.ar    1  UNL1        0.0239
     25 C           7.6417   -6.5157   25.6555 C.ar    1  UNL1        0.1332
     26 C           8.0975   -6.3963   24.2314 C.ar    1  UNL1        0.0897
     27 CL          8.8123   -7.5398   23.5744 Cl      1  UNL1       -0.0799
     28 C           7.8386   -5.1336   23.4644 C.ar    1  UNL1        0.1033
     29 CL          8.2944   -5.0143   22.0403 Cl      1  UNL1       -0.0782
     30 S           7.9006   -7.7785   26.4225 S.O2    1  UNL1        0.0580
     31 N           8.1595   -9.0413   27.1896 N.3     1  UNL1       -0.2034
     32 O           9.2323   -7.2417   26.8568 O.2     1  UNL1       -0.1532
     33 O           6.5690   -8.3153   25.9883 O.2     1  UNL1       -0.1532
     34 H           9.0720   -8.9833   27.6418 H       1  UNL1        0.1442
     35 H           8.1467   -9.8360   26.5504 H       1  UNL1        0.1442
@<TRIPOS>BOND
     1    13    12    1
     2    13    14    1
     3    14    15    1
     4    15    16    1
     5    16    17    1
     6     1    17    1
     7     1     2    1
     8     2     3    1
     9     3     4   ar
    10     4     5    1
    11     4     6   ar
    12     6     7   ar
    13     7     8    1
    14     7     9   ar
    15     9    10   ar
    16    10    11    1
    17    11    21    1
    18    21    22    1
    19    22    23   ar
    20    23    24   ar
    21    24    25   ar
    22    25    30    1
    23    30    31    1
    24    30    32    2
    25    30    33    2
    26    25    26   ar
    27    26    27    1
    28    26    28   ar
    29    28    29    1
    30    17    18    1
    31    18    13    1
    32    11     1    1
    33    28    22   ar
    34    10     3   ar
    35    12    19    1
    36    12    20    1
    37    31    34    1
    38    31    35    1
@<TRIPOS>MOLECULE
*****
 35 38 0 0 0
SMALL
GASTEIGER

@<TRIPOS>ATOM
      1 C           2.1688    0.1672   20.9382 C.3     1  UNL1        0.1066
      2 C           2.5109   -1.1794   20.3729 C.3     1  UNL1        0.0470
      3 C           3.4214   -1.8719   21.3433 C.ar    1  UNL1       -0.0106
      4 C           4.0780   -3.2202   21.3165 C.ar    1  UNL1        0.0544
      5 CL          3.8574   -4.1389   20.1514 Cl      1  UNL1       -0.0826
      6 C           4.9552   -3.6499   22.4548 C.ar    1  UNL1        0.0224
      7 C           5.1758   -2.7312   23.6199 C.ar    1  UNL1        0.0583
      8 CL          6.0531   -3.1610   24.7583 Cl      1  UNL1       -0.0822
      9 C           4.5192   -1.3829   23.6467 C.ar    1  UNL1        0.0104
     10 C           3.6419   -0.9532   22.5084 C.ar    1  UNL1        0.0163
     11 C           2.8678    0.3070   22.2580 C.3     1  UNL1        0.2027
     12 N          -2.2495    2.9015   20.8912 N.3     1  UNL1       -0.3211
     13 C          -0.9259    2.5609   20.2729 C.3     1  UNL1        0.0670
     14 C          -0.4880    3.2469   19.0129 C.3     1  UNL1        0.0183
     15 C           0.8355    2.9062   18.3947 C.3     1  UNL1        0.0187
     16 C           1.7211    1.8797   19.0364 C.3     1  UNL1        0.0723
     17 N           1.2832    1.1937   20.2964 N.3     1  UNL1       -0.2692
     18 C          -0.0403    1.5344   20.9147 C.3     1  UNL1        0.0878
     19 H          -2.7152    3.6126   20.3274 H       1  UNL1        0.1189
     20 H          -2.1019    3.2589   21.8351 H       1  UNL1        0.1189
     21 O           2.8039    1.4979   23.1678 O.3     1  UNL1       -0.4725
     22 C           2.1557    1.3786   24.5151 C.ar    1  UNL1        0.1503
     23 C           0.6680    1.2170   24.6200 C.ar    1  UNL1        0.0392
     24 C           0.0197    1.0977   25.9674 C.ar    1  UNL1        0.0239
     25 C           0.8590    1.1399   27.2099 C.ar    1  UNL1        0.1332
     26 C           2.3465    1.3015   27.1050 C.ar    1  UNL1        0.0897
     27 CL          3.1858    1.3438   28.3476 Cl      1  UNL1       -0.0799
     28 C           2.9949    1.4208   25.7576 C.ar    1  UNL1        0.1033
     29 CL          4.4825    1.5824   25.6528 Cl      1  UNL1       -0.0782
     30 S           0.2106    1.0206   28.5572 S.O2    1  UNL1        0.0580
     31 N          -0.4377    0.9013   29.9046 N.3     1  UNL1       -0.2034
     32 O           0.4325   -0.4627   28.5327 O.2     1  UNL1       -0.1532
     33 O          -0.0112    2.5039   28.5818 O.2     1  UNL1       -0.1532
     34 H          -0.4424   -0.0767   30.1942 H       1  UNL1        0.1442
     35 H          -1.3966    1.2450   29.8521 H       1  UNL1        0.1442
@<TRIPOS>BOND
     1    13    12    1
     2    13    14    1
     3    14    15    1
     4    15    16    1
     5    16    17    1
     6     1    17    1
     7     1     2    1
     8     2     3    1
     9     3     4   ar
    10     4     5    1
    11     4     6   ar
    12     6     7   ar
    13     7     8    1
    14     7     9   ar
    15     9    10   ar
    16    10    11    1
    17    11    21    1
    18    21    22    1
    19    22    23   ar
    20    23    24   ar
    21    24    25   ar
    22    25    30    1
    23    30    31    1
    24    30    32    2
    25    30    33    2
    26    25    26   ar
    27    26    27    1
    28    26    28   ar
    29    28    29    1
    30    17    18    1
    31    18    13    1
    32    11     1    1
    33    28    22   ar
    34    10     3   ar
    35    12    19    1
    36    12    20    1
    37    31    34    1
    38    31    35    1
