@<TRIPOS>MOLECULE
*****
 31 33 0 0 0
SMALL
GASTEIGER

@<TRIPOS>ATOM
      1 C           8.1495   -9.0046   27.4660 C.2     1  UNL1        0.2534
      2 O           9.4384   -9.5561   27.9994 O.2     1  UNL1       -0.2695
      3 N           6.9096   -9.8485   27.4805 N.am    1  UNL1       -0.2965
      4 H           6.0636   -9.4865   27.1305 H       1  UNL1        0.1501
      5 C           7.4532   -1.3261   25.9896 C.3     1  UNL1        0.0537
      6 C           7.7181   -2.7896   25.7949 C.ar    1  UNL1        0.0771
      7 N           8.1632   -3.2997   24.4564 N.ar    1  UNL1       -0.1522
      8 N           8.4281   -4.7632   24.2616 N.ar    1  UNL1       -0.1416
      9 C           8.2479   -5.7167   25.4054 C.ar    1  UNL1        0.1333
     10 S           8.4320   -7.2014   25.5130 S.2     1  UNL1       -0.0604
     11 C           8.1006   -7.6091   26.9180 C.ar    1  UNL1        0.0971
     12 C           7.7118   -6.3762   27.6788 C.ar    1  UNL1        0.0538
     13 N           7.3036   -6.3223   29.1212 N.pl3   1  UNL1       -0.3564
     14 C           7.8028   -5.2066   26.7440 C.ar    1  UNL1        0.0363
     15 C           7.5379   -3.7431   26.9387 C.ar    1  UNL1       -0.0033
     16 C           7.0928   -3.2331   28.2773 C.3     1  UNL1        0.0324
     17 H           7.2742   -7.1486   29.6557 H       1  UNL1        0.1424
     18 H           7.0650   -5.4607   29.5334 H       1  UNL1        0.1424
     19 C           6.9585  -11.2439   28.0285 C.3     1  UNL1        0.1166
     20 C           5.7084  -12.0710   28.0871 C.ar    1  UNL1       -0.0025
     21 C           4.6667  -11.7830   29.1271 C.ar    1  UNL1       -0.0013
     22 C           3.4167  -12.6100   29.1857 C.ar    1  UNL1        0.0183
     23 C           3.2085  -13.7251   28.2042 C.ar    1  UNL1        0.1117
     24 C           4.2502  -14.0131   27.1642 C.ar    1  UNL1        0.0183
     25 C           5.5002  -13.1861   27.1056 C.ar    1  UNL1       -0.0013
     26 S           1.9584  -14.5521   28.2628 S.O2    1  UNL1        0.0699
     27 O           1.1605  -13.3812   27.7706 O.2     1  UNL1       -0.1634
     28 O           2.7562  -15.7232   28.7551 O.2     1  UNL1       -0.1634
     29 C           0.7084  -15.3792   28.3214 C.3     1  UNL1        0.4496
     30 F           0.7976  -16.8573   28.5604 F       1  UNL1       -0.1722
     31 F          -0.6309  -14.7281   28.1411 F       1  UNL1       -0.1722
@<TRIPOS>BOND
     1     5     6    1
     2     6     7   ar
     3     7     8   ar
     4     8     9   ar
     5     9    10   ar
     6    10    11   ar
     7    11     1    1
     8     1     2    2
     9     1     3   am
    10     3    19    1
    11    19    20    1
    12    20    21   ar
    13    21    22   ar
    14    22    23   ar
    15    23    26    1
    16    26    27    2
    17    26    28    2
    18    26    29    1
    19    29    30    1
    20    29    31    1
    21    23    24   ar
    22    24    25   ar
    23    11    12   ar
    24    12    13    1
    25    12    14   ar
    26    14    15   ar
    27    15    16    1
    28    15     6   ar
    29    14     9   ar
    30    25    20   ar
    31     3     4    1
    32    13    17    1
    33    13    18    1
@<TRIPOS>MOLECULE
*****
 31 33 0 0 0
SMALL
GASTEIGER

@<TRIPOS>ATOM
      1 C          -7.6617  -19.7529   20.3775 C.2     1  UNL1        0.2534
      2 O          -7.8030  -19.2697   18.9645 O.2     1  UNL1       -0.2695
      3 N          -6.4325  -20.5050   20.7936 N.am    1  UNL1       -0.2965
      4 H          -6.3398  -20.8222   21.7210 H       1  UNL1        0.1501
      5 C         -14.0951  -17.7691   24.4148 C.3     1  UNL1        0.0537
      6 C         -12.7307  -18.3029   24.0934 C.ar    1  UNL1        0.0771
      7 N         -11.8863  -18.9046   25.1773 N.ar    1  UNL1       -0.1522
      8 N         -10.5218  -19.4385   24.8559 N.ar    1  UNL1       -0.1416
      9 C         -10.0018  -19.3707   23.4506 C.ar    1  UNL1        0.1333
     10 S          -8.7062  -19.8124   22.8374 S.2     1  UNL1       -0.0604
     11 C          -8.7498  -19.4838   21.3744 C.ar    1  UNL1        0.0971
     12 C         -10.0724  -18.8389   21.0835 C.ar    1  UNL1        0.0538
     13 N         -10.5393  -18.3497   19.7446 N.pl3   1  UNL1       -0.3564
     14 C         -10.8462  -18.7690   22.3667 C.ar    1  UNL1        0.0363
     15 C         -12.2107  -18.2351   22.6881 C.ar    1  UNL1       -0.0033
     16 C         -13.0551  -17.6334   21.6041 C.3     1  UNL1        0.0324
     17 H          -9.9561  -18.4403   18.9566 H       1  UNL1        0.1424
     18 H         -11.4290  -17.9381   19.6538 H       1  UNL1        0.1424
     19 C          -5.3446  -20.7741   19.7966 C.3     1  UNL1        0.1166
     20 C          -4.0470  -20.0262   19.8823 C.ar    1  UNL1       -0.0025
     21 C          -3.7746  -18.8872   18.9451 C.ar    1  UNL1       -0.0013
     22 C          -2.4772  -18.1394   19.0309 C.ar    1  UNL1        0.0183
     23 C          -1.4522  -18.5306   20.0537 C.ar    1  UNL1        0.1117
     24 C          -1.7246  -19.6697   20.9909 C.ar    1  UNL1        0.0183
     25 C          -3.0220  -20.4174   20.9052 C.ar    1  UNL1       -0.0013
     26 S          -0.1547  -17.7827   20.1394 S.O2    1  UNL1        0.0699
     27 O           0.5804  -19.0045   19.6736 O.2     1  UNL1       -0.1634
     28 O          -0.8897  -16.5609   20.6052 O.2     1  UNL1       -0.1634
     29 C           1.1427  -17.0349   20.2251 C.3     1  UNL1        0.4496
     30 F           2.2268  -17.5165   21.1432 F       1  UNL1       -0.1722
     31 F           1.3561  -15.8054   19.3927 F       1  UNL1       -0.1722
@<TRIPOS>BOND
     1     5     6    1
     2     6     7   ar
     3     7     8   ar
     4     8     9   ar
     5     9    10   ar
     6    10    11   ar
     7    11     1    1
     8     1     2    2
     9     1     3   am
    10     3    19    1
    11    19    20    1
    12    20    21   ar
    13    21    22   ar
    14    22    23   ar
    15    23    26    1
    16    26    27    2
    17    26    28    2
    18    26    29    1
    19    29    30    1
    20    29    31    1
    21    23    24   ar
    22    24    25   ar
    23    11    12   ar
    24    12    13    1
    25    12    14   ar
    26    14    15   ar
    27    15    16    1
    28    15     6   ar
    29    14     9   ar
    30    25    20   ar
    31     3     4    1
    32    13    17    1
    33    13    18    1
@<TRIPOS>MOLECULE
*****
 31 33 0 0 0
SMALL
GASTEIGER

@<TRIPOS>ATOM
      1 C          -7.7712  -19.8287   20.2335 C.2     1  UNL1        0.2534
      2 O          -7.3179  -19.3539   18.8847 O.2     1  UNL1       -0.2695
      3 N          -6.9344  -20.8059   21.0048 N.am    1  UNL1       -0.2965
      4 H          -7.2320  -21.1175   21.8900 H       1  UNL1        0.1501
      5 C         -14.0182  -17.8096   24.5371 C.3     1  UNL1        0.0537
      6 C         -13.0909  -17.9638   23.3682 C.ar    1  UNL1        0.0771
      7 N         -13.4708  -17.4019   22.0303 N.ar    1  UNL1       -0.1522
      8 N         -12.5436  -17.5561   20.8614 N.ar    1  UNL1       -0.1416
      9 C         -11.2364  -18.2721   21.0303 C.ar    1  UNL1        0.1333
     10 S         -10.1269  -18.5763   20.0678 S.2     1  UNL1       -0.0604
     11 C          -9.0612  -19.3262   20.8108 C.ar    1  UNL1        0.0971
     12 C          -9.5122  -19.4855   22.2326 C.ar    1  UNL1        0.0538
     13 N          -8.7522  -20.1751   23.3266 N.pl3   1  UNL1       -0.3564
     14 C         -10.8565  -18.8340   22.3682 C.ar    1  UNL1        0.0363
     15 C         -11.7838  -18.6798   23.5371 C.ar    1  UNL1       -0.0033
     16 C         -11.4038  -19.2417   24.8750 C.3     1  UNL1        0.0324
     17 H          -7.8722  -20.5744   23.1385 H       1  UNL1        0.1424
     18 H          -9.1335  -20.2285   24.2327 H       1  UNL1        0.1424
     19 C          -5.6444  -21.3082   20.4274 C.3     1  UNL1        0.1166
     20 C          -4.4349  -20.4212   20.4094 C.ar    1  UNL1       -0.0025
     21 C          -3.8270  -19.9557   21.6992 C.ar    1  UNL1       -0.0013
     22 C          -2.6175  -19.0686   21.6812 C.ar    1  UNL1        0.0183
     23 C          -2.0160  -18.6471   20.3733 C.ar    1  UNL1        0.1117
     24 C          -2.6239  -19.1126   19.0835 C.ar    1  UNL1        0.0183
     25 C          -3.8334  -19.9996   19.1016 C.ar    1  UNL1       -0.0013
     26 S          -0.8065  -17.7601   20.3554 S.O2    1  UNL1        0.0699
     27 O          -1.5879  -16.6805   21.0438 O.2     1  UNL1       -0.1634
     28 O          -0.0250  -18.8396   19.6669 O.2     1  UNL1       -0.1634
     29 C           0.4030  -16.8731   20.3374 C.3     1  UNL1        0.4496
     30 F           0.2611  -15.4180   20.0015 F       1  UNL1       -0.1722
     31 F           1.7545  -17.4411   20.6552 F       1  UNL1       -0.1722
@<TRIPOS>BOND
     1     5     6    1
     2     6     7   ar
     3     7     8   ar
     4     8     9   ar
     5     9    10   ar
     6    10    11   ar
     7    11     1    1
     8     1     2    2
     9     1     3   am
    10     3    19    1
    11    19    20    1
    12    20    21   ar
    13    21    22   ar
    14    22    23   ar
    15    23    26    1
    16    26    27    2
    17    26    28    2
    18    26    29    1
    19    29    30    1
    20    29    31    1
    21    23    24   ar
    22    24    25   ar
    23    11    12   ar
    24    12    13    1
    25    12    14   ar
    26    14    15   ar
    27    15    16    1
    28    15     6   ar
    29    14     9   ar
    30    25    20   ar
    31     3     4    1
    32    13    17    1
    33    13    18    1
@<TRIPOS>MOLECULE
*****
 31 33 0 0 0
SMALL
GASTEIGER

@<TRIPOS>ATOM
      1 C         -13.2062   -2.6655   18.2930 C.2     1  UNL1        0.2534
      2 O         -13.2296   -3.3404   16.9536 O.2     1  UNL1       -0.2695
      3 N         -12.7020   -3.4049   19.4967 N.am    1  UNL1       -0.2965
      4 H         -12.6867   -2.9620   20.3758 H       1  UNL1        0.1501
      5 C         -16.7706    4.1402   19.9059 C.3     1  UNL1        0.0537
      6 C         -15.8068    3.1453   19.3303 C.ar    1  UNL1        0.0771
      7 N         -14.7120    3.6053   18.4140 N.ar    1  UNL1       -0.1522
      8 N         -13.7482    2.6104   17.8384 N.ar    1  UNL1       -0.1416
      9 C         -13.8793    1.1555   18.1791 C.ar    1  UNL1        0.1333
     10 S         -13.0837   -0.0475   17.7670 S.2     1  UNL1       -0.0604
     11 C         -13.6870   -1.2511   18.4286 C.ar    1  UNL1        0.0971
     12 C         -14.8553   -0.7919   19.2496 C.ar    1  UNL1        0.0538
     13 N         -15.7481   -1.6664   20.0792 N.pl3   1  UNL1       -0.3564
     14 C         -14.9741    0.6955   19.0954 C.ar    1  UNL1        0.0363
     15 C         -15.9379    1.6904   19.6710 C.ar    1  UNL1       -0.0033
     16 C         -17.0329    1.2303   20.5873 C.3     1  UNL1        0.0324
     17 H         -15.5889   -2.6372   20.1172 H       1  UNL1        0.1424
     18 H         -16.4932   -1.2696   20.5856 H       1  UNL1        0.1424
     19 C         -12.2213   -4.8193   19.3610 C.3     1  UNL1        0.1166
     20 C         -13.2065   -5.9282   19.1375 C.ar    1  UNL1       -0.0025
     21 C         -12.8078   -7.1370   18.3440 C.ar    1  UNL1       -0.0013
     22 C         -13.7930   -8.2458   18.1205 C.ar    1  UNL1        0.0183
     23 C         -15.1768   -8.1457   18.6906 C.ar    1  UNL1        0.1117
     24 C         -15.5755   -6.9369   19.4842 C.ar    1  UNL1        0.0183
     25 C         -14.5903   -5.8282   19.7076 C.ar    1  UNL1       -0.0013
     26 S         -16.1620   -9.2546   18.4671 S.O2    1  UNL1        0.0699
     27 O         -15.0494  -10.2579   18.5402 O.2     1  UNL1       -0.1634
     28 O         -17.2747   -8.2513   18.3939 O.2     1  UNL1       -0.1634
     29 C         -17.1471  -10.3634   18.2436 C.3     1  UNL1        0.4496
     30 F         -18.4677  -10.0737   17.5937 F       1  UNL1       -0.1722
     31 F         -16.8118  -11.7619   18.6700 F       1  UNL1       -0.1722
@<TRIPOS>BOND
     1     5     6    1
     2     6     7   ar
     3     7     8   ar
     4     8     9   ar
     5     9    10   ar
     6    10    11   ar
     7    11     1    1
     8     1     2    2
     9     1     3   am
    10     3    19    1
    11    19    20    1
    12    20    21   ar
    13    21    22   ar
    14    22    23   ar
    15    23    26    1
    16    26    27    2
    17    26    28    2
    18    26    29    1
    19    29    30    1
    20    29    31    1
    21    23    24   ar
    22    24    25   ar
    23    11    12   ar
    24    12    13    1
    25    12    14   ar
    26    14    15   ar
    27    15    16    1
    28    15     6   ar
    29    14     9   ar
    30    25    20   ar
    31     3     4    1
    32    13    17    1
    33    13    18    1
@<TRIPOS>MOLECULE
*****
 31 33 0 0 0
SMALL
GASTEIGER

@<TRIPOS>ATOM
      1 C          -1.0600    3.1556   19.5038 C.2     1  UNL1        0.2534
      2 O          -1.0026    3.9304   18.2206 O.2     1  UNL1       -0.2695
      3 N          -0.0096    2.1289   19.8077 N.am    1  UNL1       -0.2965
      4 H          -0.0473    1.6205   20.6499 H       1  UNL1        0.1501
      5 C          -7.7167    4.6194   23.3987 C.3     1  UNL1        0.0537
      6 C          -6.2745    4.3166   23.1185 C.ar    1  UNL1        0.0771
      7 N          -5.3092    4.1476   24.2540 N.ar    1  UNL1       -0.1522
      8 N          -3.8671    3.8448   23.9737 N.ar    1  UNL1       -0.1416
      9 C          -3.3903    3.7110   22.5579 C.ar    1  UNL1        0.1333
     10 S          -2.0383    3.4191   21.9774 S.2     1  UNL1       -0.0604
     11 C          -2.1680    3.4077   20.4831 C.ar    1  UNL1        0.0971
     12 C          -3.6002    3.6926   20.1400 C.ar    1  UNL1        0.0538
     13 N          -4.1759    3.7755   18.7573 N.pl3   1  UNL1       -0.3564
     14 C          -4.3555    3.8801   21.4223 C.ar    1  UNL1        0.0363
     15 C          -5.7977    4.1829   21.7026 C.ar    1  UNL1       -0.0033
     16 C          -6.7630    4.3519   20.5669 C.3     1  UNL1        0.0324
     17 H          -3.5964    3.6367   17.9737 H       1  UNL1        0.1424
     18 H          -5.1333    3.9686   18.6336 H       1  UNL1        0.1424
     19 C           1.0983    1.8769   18.8284 C.3     1  UNL1        0.1166
     20 C           1.9199    0.6261   18.9310 C.ar    1  UNL1       -0.0025
     21 C           2.9627    0.3267   17.8952 C.ar    1  UNL1       -0.0013
     22 C           3.7843   -0.9241   17.9979 C.ar    1  UNL1        0.0183
     23 C           3.5630   -1.8755   19.1362 C.ar    1  UNL1        0.1117
     24 C           2.5202   -1.5761   20.1720 C.ar    1  UNL1        0.0183
     25 C           1.6986   -0.3253   20.0694 C.ar    1  UNL1       -0.0013
     26 S           4.3846   -3.1263   19.2388 S.O2    1  UNL1        0.0699
     27 O           3.1599   -3.9522   18.9779 O.2     1  UNL1       -0.1634
     28 O           5.6093   -2.3004   19.4997 O.2     1  UNL1       -0.1634
     29 C           5.2062   -4.3770   19.3414 C.3     1  UNL1        0.4496
     30 F           4.7746   -5.6192   18.6198 F       1  UNL1       -0.1722
     31 F           6.4595   -4.3856   20.1656 F       1  UNL1       -0.1722
@<TRIPOS>BOND
     1     5     6    1
     2     6     7   ar
     3     7     8   ar
     4     8     9   ar
     5     9    10   ar
     6    10    11   ar
     7    11     1    1
     8     1     2    2
     9     1     3   am
    10     3    19    1
    11    19    20    1
    12    20    21   ar
    13    21    22   ar
    14    22    23   ar
    15    23    26    1
    16    26    27    2
    17    26    28    2
    18    26    29    1
    19    29    30    1
    20    29    31    1
    21    23    24   ar
    22    24    25   ar
    23    11    12   ar
    24    12    13    1
    25    12    14   ar
    26    14    15   ar
    27    15    16    1
    28    15     6   ar
    29    14     9   ar
    30    25    20   ar
    31     3     4    1
    32    13    17    1
    33    13    18    1
@<TRIPOS>MOLECULE
*****
 31 33 0 0 0
SMALL
GASTEIGER

@<TRIPOS>ATOM
      1 C           5.9554   -0.0252   32.5409 C.2     1  UNL1        0.2534
      2 O           5.2456    1.1336   31.9059 O.2     1  UNL1       -0.2695
      3 N           6.4638    0.0862   33.9477 N.am    1  UNL1       -0.2965
      4 H           6.9297   -0.6744   34.3644 H       1  UNL1        0.1501
      5 C           6.7143   -5.8173   27.2969 C.3     1  UNL1        0.0537
      6 C           6.6778   -5.0839   28.6048 C.ar    1  UNL1        0.0771
      7 N           6.9537   -5.8173   29.8839 N.ar    1  UNL1       -0.1522
      8 N           6.9172   -5.0839   31.1919 N.ar    1  UNL1       -0.1416
      9 C           6.6048   -3.6171   31.2208 C.ar    1  UNL1        0.1333
     10 S           6.4985   -2.6356   32.3501 S.2     1  UNL1       -0.0604
     11 C           6.1569   -1.2956   31.7690 C.ar    1  UNL1        0.0971
     12 C           6.0520   -1.4489   30.2805 C.ar    1  UNL1        0.0538
     13 N           5.7274   -0.3589   29.3026 N.pl3   1  UNL1       -0.3564
     14 C           6.3289   -2.8837   29.9418 C.ar    1  UNL1        0.0363
     15 C           6.3654   -3.6171   28.6338 C.ar    1  UNL1       -0.0033
     16 C           6.0895   -2.8837   27.3547 C.3     1  UNL1        0.0324
     17 H           5.5604    0.5568   29.6236 H       1  UNL1        0.1424
     18 H           5.6813   -0.5590   28.3398 H       1  UNL1        0.1424
     19 C           6.2624    1.3564   34.7195 C.3     1  UNL1        0.1166
     20 C           5.1470    1.4590   35.7173 C.ar    1  UNL1       -0.0025
     21 C           3.9602    2.3297   35.4288 C.ar    1  UNL1       -0.0013
     22 C           2.8450    2.4322   36.4265 C.ar    1  UNL1        0.0183
     23 C           2.9165    1.6639   37.7129 C.ar    1  UNL1        0.1117
     24 C           4.1033    0.7932   38.0014 C.ar    1  UNL1        0.0183
     25 C           5.2185    0.6907   37.0036 C.ar    1  UNL1       -0.0013
     26 S           1.8011    1.7664   38.7107 S.O2    1  UNL1        0.0699
     27 O           2.4561    0.7108   39.5513 O.2     1  UNL1       -0.1634
     28 O           1.1461    2.8220   37.8700 O.2     1  UNL1       -0.1634
     29 C           0.6858    1.8689   39.7084 C.3     1  UNL1        0.4496
     30 F          -0.4057    2.8790   39.5121 F       1  UNL1       -0.1722
     31 F           0.6619    0.9614   40.9026 F       1  UNL1       -0.1722
@<TRIPOS>BOND
     1     5     6    1
     2     6     7   ar
     3     7     8   ar
     4     8     9   ar
     5     9    10   ar
     6    10    11   ar
     7    11     1    1
     8     1     2    2
     9     1     3   am
    10     3    19    1
    11    19    20    1
    12    20    21   ar
    13    21    22   ar
    14    22    23   ar
    15    23    26    1
    16    26    27    2
    17    26    28    2
    18    26    29    1
    19    29    30    1
    20    29    31    1
    21    23    24   ar
    22    24    25   ar
    23    11    12   ar
    24    12    13    1
    25    12    14   ar
    26    14    15   ar
    27    15    16    1
    28    15     6   ar
    29    14     9   ar
    30    25    20   ar
    31     3     4    1
    32    13    17    1
    33    13    18    1
@<TRIPOS>MOLECULE
*****
 31 33 0 0 0
SMALL
GASTEIGER

@<TRIPOS>ATOM
      1 C          -0.6861    3.3497   20.1268 C.2     1  UNL1        0.2534
      2 O           0.4051    3.6600   21.1081 O.2     1  UNL1       -0.2695
      3 N          -0.3444    2.7939   18.7762 N.am    1  UNL1       -0.2965
      4 H          -1.0606    2.5903   18.1321 H       1  UNL1        0.1501
      5 C          -7.6972    4.4689   23.4758 C.3     1  UNL1        0.0537
      6 C          -6.6312    4.3273   22.4301 C.ar    1  UNL1        0.0771
      7 N          -6.9810    4.4694   20.9784 N.ar    1  UNL1       -0.1522
      8 N          -5.9149    4.3278   19.9327 N.ar    1  UNL1       -0.1416
      9 C          -4.4991    4.0441   20.3387 C.ar    1  UNL1        0.1333
     10 S          -3.2444    3.8545   19.5388 S.2     1  UNL1       -0.0604
     11 C          -2.1191    3.5952   20.4962 C.ar    1  UNL1        0.0971
     12 C          -2.6783    3.6246   21.8877 C.ar    1  UNL1        0.0538
     13 N          -1.9028    3.4136   23.1543 N.pl3   1  UNL1       -0.3564
     14 C          -4.1493    3.9020   21.7903 C.ar    1  UNL1        0.0363
     15 C          -5.2153    4.0436   22.8361 C.ar    1  UNL1       -0.0033
     16 C          -4.8654    3.9015   24.2878 C.3     1  UNL1        0.0324
     17 H          -0.9352    3.2366   23.1153 H       1  UNL1        0.1424
     18 H          -2.3615    3.4522   24.0245 H       1  UNL1        0.1424
     19 C           1.0885    2.5484   18.4068 C.3     1  UNL1        0.1166
     20 C           1.7621    1.2738   18.8213 C.ar    1  UNL1       -0.0025
     21 C           1.0471    0.3037   19.7144 C.ar    1  UNL1       -0.0013
     22 C           1.7207   -0.9708   20.1288 C.ar    1  UNL1        0.0183
     23 C           3.1092   -1.2753   19.6501 C.ar    1  UNL1        0.1117
     24 C           3.8242   -0.3053   18.7569 C.ar    1  UNL1        0.0183
     25 C           3.1506    0.9693   18.3425 C.ar    1  UNL1       -0.0013
     26 S           3.7828   -2.5500   20.0645 S.O2    1  UNL1        0.0699
     27 O           3.8496   -2.9813   18.6295 O.2     1  UNL1       -0.1634
     28 O           3.7160   -2.1186   21.4996 O.2     1  UNL1       -0.1634
     29 C           4.4563   -3.8245   20.4790 C.3     1  UNL1        0.4496
     30 F           4.2512   -4.3656   21.8629 F       1  UNL1       -0.1722
     31 F           5.3351   -4.5581   19.5095 F       1  UNL1       -0.1722
@<TRIPOS>BOND
     1     5     6    1
     2     6     7   ar
     3     7     8   ar
     4     8     9   ar
     5     9    10   ar
     6    10    11   ar
     7    11     1    1
     8     1     2    2
     9     1     3   am
    10     3    19    1
    11    19    20    1
    12    20    21   ar
    13    21    22   ar
    14    22    23   ar
    15    23    26    1
    16    26    27    2
    17    26    28    2
    18    26    29    1
    19    29    30    1
    20    29    31    1
    21    23    24   ar
    22    24    25   ar
    23    11    12   ar
    24    12    13    1
    25    12    14   ar
    26    14    15   ar
    27    15    16    1
    28    15     6   ar
    29    14     9   ar
    30    25    20   ar
    31     3     4    1
    32    13    17    1
    33    13    18    1
@<TRIPOS>MOLECULE
*****
 31 33 0 0 0
SMALL
GASTEIGER

@<TRIPOS>ATOM
      1 C           7.8552   -4.7541   22.3295 C.2     1  UNL1        0.2534
      2 O           8.5282   -6.0605   22.0286 O.2     1  UNL1       -0.2695
      3 N           7.7130   -4.2933   23.7498 N.am    1  UNL1       -0.2965
      4 H           7.2713   -3.4359   23.9473 H       1  UNL1        0.1501
      5 C           3.7323   -0.6131   17.0876 C.3     1  UNL1        0.0537
      6 C           4.8901   -1.2441   17.8026 C.ar    1  UNL1        0.0771
      7 N           6.2864   -1.0416   17.2936 N.ar    1  UNL1       -0.1522
      8 N           7.4443   -1.6726   18.0086 N.ar    1  UNL1       -0.1416
      9 C           7.2058   -2.5061   19.2326 C.ar    1  UNL1        0.1333
     10 S           8.1421   -3.2477   20.1400 S.2     1  UNL1       -0.0604
     11 C           7.3244   -3.9086   21.2099 C.ar    1  UNL1        0.0971
     12 C           5.8827   -3.5754   20.9638 C.ar    1  UNL1        0.0538
     13 N           4.7187   -4.0292   21.7939 N.pl3   1  UNL1       -0.3564
     14 C           5.8095   -2.7086   19.7417 C.ar    1  UNL1        0.0363
     15 C           4.6516   -2.0776   19.0267 C.ar    1  UNL1       -0.0033
     16 C           3.2552   -2.2801   19.5358 C.3     1  UNL1        0.0324
     17 H           4.8689   -4.5997   22.5821 H       1  UNL1        0.1424
     18 H           3.8045   -3.7567   21.5505 H       1  UNL1        0.1424
     19 C           8.2438   -5.1389   24.8693 C.3     1  UNL1        0.1166
     20 C           7.8811   -4.8176   26.2889 C.ar    1  UNL1       -0.0025
     21 C           6.7064   -5.4915   26.9338 C.ar    1  UNL1       -0.0013
     22 C           6.3437   -5.1702   28.3533 C.ar    1  UNL1        0.0183
     23 C           7.1558   -4.1750   29.1281 C.ar    1  UNL1        0.1117
     24 C           8.3305   -3.5012   28.4832 C.ar    1  UNL1        0.0183
     25 C           8.6932   -3.8225   27.0636 C.ar    1  UNL1       -0.0013
     26 S           6.7931   -3.8537   30.5477 S.O2    1  UNL1        0.0699
     27 O           6.8266   -5.3145   30.8869 O.2     1  UNL1       -0.1634
     28 O           6.7595   -2.3929   30.2085 O.2     1  UNL1       -0.1634
     29 C           6.4304   -3.5324   31.9672 C.3     1  UNL1        0.4496
     30 F           6.4162   -2.1068   32.4334 F       1  UNL1       -0.1722
     31 F           6.0819   -4.6368   32.9207 F       1  UNL1       -0.1722
@<TRIPOS>BOND
     1     5     6    1
     2     6     7   ar
     3     7     8   ar
     4     8     9   ar
     5     9    10   ar
     6    10    11   ar
     7    11     1    1
     8     1     2    2
     9     1     3   am
    10     3    19    1
    11    19    20    1
    12    20    21   ar
    13    21    22   ar
    14    22    23   ar
    15    23    26    1
    16    26    27    2
    17    26    28    2
    18    26    29    1
    19    29    30    1
    20    29    31    1
    21    23    24   ar
    22    24    25   ar
    23    11    12   ar
    24    12    13    1
    25    12    14   ar
    26    14    15   ar
    27    15    16    1
    28    15     6   ar
    29    14     9   ar
    30    25    20   ar
    31     3     4    1
    32    13    17    1
    33    13    18    1
@<TRIPOS>MOLECULE
*****
 31 33 0 0 0
SMALL
GASTEIGER

@<TRIPOS>ATOM
      1 C          -0.9870    3.1856   20.0913 C.2     1  UNL1        0.2534
      2 O          -0.7849    4.2392   19.0428 O.2     1  UNL1       -0.2695
      3 N          -0.2202    1.8985   20.0187 N.am    1  UNL1       -0.2965
      4 H          -0.3528    1.2070   20.7068 H       1  UNL1        0.1501
      5 C          -4.8293    4.3857   26.8307 C.3     1  UNL1        0.0537
      6 C          -4.5576    4.1834   25.3695 C.ar    1  UNL1        0.0771
      7 N          -5.6924    4.1835   24.3886 N.ar    1  UNL1       -0.1522
      8 N          -5.4208    3.9813   22.9273 N.ar    1  UNL1       -0.1416
      9 C          -4.0143    3.7789   22.4469 C.ar    1  UNL1        0.1333
     10 S          -3.4435    3.5567   21.0777 S.2     1  UNL1       -0.0604
     11 C          -1.9559    3.4193   21.2123 C.ar    1  UNL1        0.0971
     12 C          -1.6073    3.5565   22.6648 C.ar    1  UNL1        0.0538
     13 N          -0.2286    3.4842   23.2513 N.pl3   1  UNL1       -0.3564
     14 C          -2.8795    3.7787   23.4278 C.ar    1  UNL1        0.0363
     15 C          -3.1512    3.9810   24.8891 C.ar    1  UNL1       -0.0033
     16 C          -2.0162    3.9808   25.8700 C.3     1  UNL1        0.0324
     17 H           0.5483    3.3341   22.6655 H       1  UNL1        0.1424
     18 H          -0.1006    3.5867   24.2220 H       1  UNL1        0.1424
     19 C           0.7486    1.6649   18.8976 C.3     1  UNL1        0.1166
     20 C           1.6801    0.4900   18.9439 C.ar    1  UNL1       -0.0025
     21 C           2.6955    0.2947   17.8573 C.ar    1  UNL1       -0.0013
     22 C           3.6269   -0.8801   17.9036 C.ar    1  UNL1        0.0183
     23 C           3.5430   -1.8596   19.0366 C.ar    1  UNL1        0.1117
     24 C           2.5277   -1.6643   20.1232 C.ar    1  UNL1        0.0183
     25 C           1.5962   -0.4894   20.0769 C.ar    1  UNL1       -0.0013
     26 S           4.4745   -3.0345   19.0828 S.O2    1  UNL1        0.0699
     27 O           5.1513   -2.5470   17.8361 O.2     1  UNL1       -0.1634
     28 O           3.7977   -3.5220   20.3296 O.2     1  UNL1       -0.1634
     29 C           5.4060   -4.2093   19.1292 C.3     1  UNL1        0.4496
     30 F           6.7090   -4.1048   19.8648 F       1  UNL1       -0.1722
     31 F           5.0344   -5.4887   18.4398 F       1  UNL1       -0.1722
@<TRIPOS>BOND
     1     5     6    1
     2     6     7   ar
     3     7     8   ar
     4     8     9   ar
     5     9    10   ar
     6    10    11   ar
     7    11     1    1
     8     1     2    2
     9     1     3   am
    10     3    19    1
    11    19    20    1
    12    20    21   ar
    13    21    22   ar
    14    22    23   ar
    15    23    26    1
    16    26    27    2
    17    26    28    2
    18    26    29    1
    19    29    30    1
    20    29    31    1
    21    23    24   ar
    22    24    25   ar
    23    11    12   ar
    24    12    13    1
    25    12    14   ar
    26    14    15   ar
    27    15    16    1
    28    15     6   ar
    29    14     9   ar
    30    25    20   ar
    31     3     4    1
    32    13    17    1
    33    13    18    1
