@<TRIPOS>MOLECULE
*****
 39 42 0 0 0
SMALL
GASTEIGER

@<TRIPOS>ATOM
      1 C           6.9147    1.6058   36.4520 C.3     1  UNL1        0.0326
      2 C           5.6298    2.0517   37.0844 C.ar    1  UNL1       -0.0045
      3 C           5.5991    2.4270   38.5364 C.ar    1  UNL1       -0.0027
      4 C           4.3142    2.8729   39.1689 C.ar    1  UNL1        0.0013
      5 C           3.0598    2.9436   38.3494 C.ar    1  UNL1        0.0206
      6 C           3.0904    2.5683   36.8974 C.ar    1  UNL1        0.0996
      7 N           2.0214    2.5388   35.8456 N.ar    1  UNL1       -0.2135
      8 C           2.6457    2.0747   34.5631 C.ar    1  UNL1        0.2039
      9 N           4.1005    1.8173   34.8223 N.ar    1  UNL1       -0.2999
     10 C           4.3754    2.1224   36.2650 C.ar    1  UNL1        0.0758
     11 C           5.1043    1.3389   33.8155 C.3     1  UNL1        0.1078
     12 C           5.9680    2.4010   33.2021 C.3     1  UNL1        0.0245
     13 C           7.0522    2.2482   32.1771 C.3     1  UNL1        0.0037
     14 C           7.5408    0.9955   31.5121 C.3     1  UNL1        0.0216
     15 C           7.0657   -0.4137   31.7080 C.3     1  UNL1        0.0938
     16 N           5.9846   -0.9183   32.6173 N.am    1  UNL1       -0.2742
     17 C           5.7447   -2.3986   32.5843 C.2     1  UNL1        0.2489
     18 O           4.6857   -3.0064   33.4556 O.2     1  UNL1       -0.2699
     19 C           5.1118   -0.1383   33.5552 C.3     1  UNL1        0.1162
     20 C           6.5639   -3.2711   31.6800 C.2     1  UNL1        0.0548
     21 C           6.5863   -4.7563   31.8892 C.2     1  UNL1       -0.0041
     22 C           7.4054   -5.6289   30.9850 C.3     1  UNL1        0.0991
     23 N           7.6592   -5.2106   29.5670 N.3     1  UNL1       -0.2665
     24 C           8.9696   -4.5838   29.1930 C.3     1  UNL1        0.0899
     25 C           6.6025   -5.4192   28.5231 C.3     1  UNL1        0.0899
     26 N           1.9391    1.8989   33.2516 N.am    1  UNL1       -0.2518
     27 C           2.0521    2.9539   32.1915 C.2     1  UNL1        0.2517
     28 O           2.8716    4.1850   32.4427 O.2     1  UNL1       -0.2697
     29 H           1.4013    1.0909   33.0867 H       1  UNL1        0.1580
     30 C           1.3455    2.7781   30.8800 C.ar    1  UNL1        0.0567
     31 C           1.3307    3.8963   29.8802 C.ar    1  UNL1        0.0252
     32 C           0.6242    3.7204   28.5688 C.ar    1  UNL1        0.0989
     33 N          -0.0675    2.4264   28.2571 N.ar    1  UNL1       -0.2399
     34 C          -0.0527    1.3083   29.2569 C.ar    1  UNL1        0.1528
     35 C           0.6539    1.4841   30.5683 C.ar    1  UNL1        0.0276
     36 C          -0.7444    0.0143   28.9452 C.3     1  UNL1        0.4348
     37 F          -1.4361   -1.2798   28.6335 F       1  UNL1       -0.1644
     38 F          -2.0659    0.6402   29.2794 F       1  UNL1       -0.1644
     39 F           0.5772   -0.6116   28.6110 F       1  UNL1       -0.1644
@<TRIPOS>BOND
     1     1     2    1
     2     2     3   ar
     3     3     4   ar
     4     4     5   ar
     5     5     6   ar
     6     6     7   ar
     7     7     8   ar
     8     8    26    1
     9    26    27   am
    10    27    28    2
    11    27    30    1
    12    30    31   ar
    13    31    32   ar
    14    32    33   ar
    15    33    34   ar
    16    34    36    1
    17    36    37    1
    18    36    38    1
    19    36    39    1
    20    34    35   ar
    21     8     9   ar
    22    11     9    1
    23    11    12    1
    24    12    13    1
    25    13    14    1
    26    14    15    1
    27    15    16    1
    28    16    17   am
    29    17    18    2
    30    17    20    1
    31    20    21    2
    32    21    22    1
    33    22    23    1
    34    23    24    1
    35    23    25    1
    36    16    19    1
    37     9    10   ar
    38    10     2   ar
    39    10     6   ar
    40    35    30   ar
    41    19    11    1
    42    26    29    1
@<TRIPOS>MOLECULE
*****
 39 42 0 0 0
SMALL
GASTEIGER

@<TRIPOS>ATOM
      1 C           6.2686   -2.9234   27.4621 C.3     1  UNL1        0.0326
      2 C           6.6342   -3.8422   28.5900 C.ar    1  UNL1       -0.0045
      3 C           7.0904   -5.2413   28.2999 C.ar    1  UNL1       -0.0027
      4 C           7.4560   -6.1601   29.4278 C.ar    1  UNL1        0.0013
      5 C           7.3654   -5.6797   30.8459 C.ar    1  UNL1        0.0206
      6 C           6.9093   -4.2805   31.1360 C.ar    1  UNL1        0.0996
      7 N           6.7221   -3.5323   32.4226 N.ar    1  UNL1       -0.2135
      8 C           6.2408   -2.1512   32.0898 C.ar    1  UNL1        0.2039
      9 N           6.1305   -2.0458   30.5976 N.ar    1  UNL1       -0.2999
     10 C           6.5437   -3.3618   30.0081 C.ar    1  UNL1        0.0758
     11 C           5.6853   -0.8366   29.8296 C.3     1  UNL1        0.1078
     12 C           6.7795   -0.0257   29.2008 C.3     1  UNL1        0.0245
     13 C           6.6634    1.2237   28.3791 C.3     1  UNL1        0.0037
     14 C           5.4245    1.9710   27.9832 C.3     1  UNL1        0.0216
     15 C           3.9957    1.6533   28.3113 C.3     1  UNL1        0.0938
     16 N           3.4529    0.5099   29.1163 N.am    1  UNL1       -0.2742
     17 C           1.9609    0.4692   29.2653 C.2     1  UNL1        0.2489
     18 O           1.3154   -0.6332   30.0514 O.2     1  UNL1       -0.2699
     19 C           4.2049   -0.5982   29.7920 C.3     1  UNL1        0.1162
     20 C           1.1144    1.5310   28.6281 C.2     1  UNL1        0.0548
     21 C          -0.1404    1.1524   27.8986 C.2     1  UNL1       -0.0041
     22 C          -0.9870    2.2141   27.2614 C.3     1  UNL1        0.0991
     23 N          -0.9999    2.3681   25.7694 N.3     1  UNL1       -0.2665
     24 C           0.0271    1.6633   24.9337 C.3     1  UNL1        0.0899
     25 C          -2.0400    3.2269   25.1131 C.3     1  UNL1        0.0899
     26 N           5.9251   -1.0660   33.0761 N.am    1  UNL1       -0.2518
     27 C           4.7543   -1.2116   34.0023 C.2     1  UNL1        0.2517
     28 O           3.8991   -2.4425   33.9423 O.2     1  UNL1       -0.2697
     29 H           6.4864   -0.2581   33.1155 H       1  UNL1        0.1580
     30 C           4.4387   -0.1264   34.9886 C.ar    1  UNL1        0.0567
     31 C           5.0183   -0.1777   36.3712 C.ar    1  UNL1        0.0252
     32 C           4.7027    0.9075   37.3574 C.ar    1  UNL1        0.0989
     33 N           3.8074    2.0440   36.9611 N.ar    1  UNL1       -0.2399
     34 C           3.2278    2.0952   35.5786 C.ar    1  UNL1        0.1528
     35 C           3.5435    1.0100   34.5923 C.ar    1  UNL1        0.0276
     36 C           2.3326    3.2316   35.1823 C.3     1  UNL1        0.4348
     37 F           1.4374    4.3681   34.7860 F       1  UNL1       -0.1644
     38 F           2.9176    4.0741   36.2768 F       1  UNL1       -0.1644
     39 F           1.7476    2.3892   34.0878 F       1  UNL1       -0.1644
@<TRIPOS>BOND
     1     1     2    1
     2     2     3   ar
     3     3     4   ar
     4     4     5   ar
     5     5     6   ar
     6     6     7   ar
     7     7     8   ar
     8     8    26    1
     9    26    27   am
    10    27    28    2
    11    27    30    1
    12    30    31   ar
    13    31    32   ar
    14    32    33   ar
    15    33    34   ar
    16    34    36    1
    17    36    37    1
    18    36    38    1
    19    36    39    1
    20    34    35   ar
    21     8     9   ar
    22    11     9    1
    23    11    12    1
    24    12    13    1
    25    13    14    1
    26    14    15    1
    27    15    16    1
    28    16    17   am
    29    17    18    2
    30    17    20    1
    31    20    21    2
    32    21    22    1
    33    22    23    1
    34    23    24    1
    35    23    25    1
    36    16    19    1
    37     9    10   ar
    38    10     2   ar
    39    10     6   ar
    40    35    30   ar
    41    19    11    1
    42    26    29    1
@<TRIPOS>MOLECULE
*****
 39 42 0 0 0
SMALL
GASTEIGER

@<TRIPOS>ATOM
      1 C           5.6488   -1.0827   28.6484 C.3     1  UNL1        0.0326
      2 C           5.9122   -1.9935   29.8107 C.ar    1  UNL1       -0.0045
      3 C           6.7346   -3.2334   29.6207 C.ar    1  UNL1       -0.0027
      4 C           6.9980   -4.1442   30.7831 C.ar    1  UNL1        0.0013
      5 C           6.4389   -3.8150   32.1355 C.ar    1  UNL1        0.0206
      6 C           5.6165   -2.5751   32.3255 C.ar    1  UNL1        0.0996
      7 N           4.9393   -1.9950   33.5317 N.ar    1  UNL1       -0.2135
      8 C           4.2574   -0.7256   33.1148 C.ar    1  UNL1        0.2039
      9 N           4.5131   -0.5213   31.6510 N.ar    1  UNL1       -0.2999
     10 C           5.3531   -1.6643   31.1631 C.ar    1  UNL1        0.0758
     11 C           4.0162    0.6248   30.8206 C.3     1  UNL1        0.1078
     12 C           4.9529    1.7894   30.6917 C.3     1  UNL1        0.0245
     13 C           4.7530    3.0715   29.9394 C.3     1  UNL1        0.0037
     14 C           3.5671    3.5060   29.1301 C.3     1  UNL1        0.0216
     15 C           2.2882    2.7654   28.8734 C.3     1  UNL1        0.0938
     16 N           1.8792    1.4076   29.3624 N.am    1  UNL1       -0.2742
     17 C           0.5218    0.9407   28.9274 C.2     1  UNL1        0.2489
     18 O           0.0162   -0.4032   29.3614 O.2     1  UNL1       -0.2699
     19 C           2.6484    0.4550   30.2291 C.3     1  UNL1        0.1162
     20 C          -0.3300    1.8177   28.0583 C.2     1  UNL1        0.0548
     21 C          -0.3726    1.5903   26.5762 C.2     1  UNL1       -0.0041
     22 C          -1.2243    2.4673   25.7070 C.3     1  UNL1        0.0991
     23 N          -1.8234    3.7233   26.2669 N.3     1  UNL1       -0.2665
     24 C          -3.2704    3.7534   26.6607 C.3     1  UNL1        0.0899
     25 C          -0.9753    4.9493   26.4328 C.3     1  UNL1        0.0899
     26 N           3.4598    0.1803   34.0054 N.am    1  UNL1       -0.2518
     27 C           4.1587    1.0646   34.9950 C.2     1  UNL1        0.2517
     28 O           5.6553    1.0431   35.0941 O.2     1  UNL1       -0.2697
     29 H           2.4775    0.1944   33.9403 H       1  UNL1        0.1580
     30 C           3.3610    1.9705   35.8855 C.ar    1  UNL1        0.0567
     31 C           3.2015    3.4196   35.5319 C.ar    1  UNL1        0.0252
     32 C           2.4039    4.3255   36.4224 C.ar    1  UNL1        0.0989
     33 N           1.7658    3.7824   37.6667 N.ar    1  UNL1       -0.2399
     34 C           1.9254    2.3335   38.0203 C.ar    1  UNL1        0.1528
     35 C           2.7230    1.4275   37.1297 C.ar    1  UNL1        0.0276
     36 C           1.2874    1.7905   39.2644 C.3     1  UNL1        0.4348
     37 F           0.6493    1.2474   40.5087 F       1  UNL1       -0.1644
     38 F           0.1548    2.7613   39.1074 F       1  UNL1       -0.1644
     39 F           2.4199    0.8196   39.4215 F       1  UNL1       -0.1644
@<TRIPOS>BOND
     1     1     2    1
     2     2     3   ar
     3     3     4   ar
     4     4     5   ar
     5     5     6   ar
     6     6     7   ar
     7     7     8   ar
     8     8    26    1
     9    26    27   am
    10    27    28    2
    11    27    30    1
    12    30    31   ar
    13    31    32   ar
    14    32    33   ar
    15    33    34   ar
    16    34    36    1
    17    36    37    1
    18    36    38    1
    19    36    39    1
    20    34    35   ar
    21     8     9   ar
    22    11     9    1
    23    11    12    1
    24    12    13    1
    25    13    14    1
    26    14    15    1
    27    15    16    1
    28    16    17   am
    29    17    18    2
    30    17    20    1
    31    20    21    2
    32    21    22    1
    33    22    23    1
    34    23    24    1
    35    23    25    1
    36    16    19    1
    37     9    10   ar
    38    10     2   ar
    39    10     6   ar
    40    35    30   ar
    41    19    11    1
    42    26    29    1
@<TRIPOS>MOLECULE
*****
 39 42 0 0 0
SMALL
GASTEIGER

@<TRIPOS>ATOM
      1 C           2.0637    3.8550   35.2110 C.3     1  UNL1        0.0326
      2 C           2.5900    2.8688   36.2112 C.ar    1  UNL1       -0.0045
      3 C           2.2036    2.9869   37.6557 C.ar    1  UNL1       -0.0027
      4 C           2.7299    2.0007   38.6559 C.ar    1  UNL1        0.0013
      5 C           3.6427    0.8965   38.2116 C.ar    1  UNL1        0.0206
      6 C           4.0291    0.7784   36.7671 C.ar    1  UNL1        0.0996
      7 N           4.9052   -0.1976   36.0390 N.ar    1  UNL1       -0.2135
      8 C           4.9202    0.1854   34.5888 C.ar    1  UNL1        0.2039
      9 N           4.0535    1.3981   34.4206 N.ar    1  UNL1       -0.2999
     10 C           3.5028    1.7645   35.7669 C.ar    1  UNL1        0.0758
     11 C           3.7847    2.1179   33.1324 C.3     1  UNL1        0.1078
     12 C           4.3064    3.5219   33.0502 C.3     1  UNL1        0.0245
     13 C           4.2020    4.4933   31.9121 C.3     1  UNL1        0.0037
     14 C           3.5502    4.3007   30.5749 C.3     1  UNL1        0.0216
     15 C           2.8417    3.0891   30.0457 C.3     1  UNL1        0.0938
     16 N           2.6101    1.7708   30.7229 N.am    1  UNL1       -0.2742
     17 C           1.8595    0.7498   29.9203 C.2     1  UNL1        0.2489
     18 O           1.5747   -0.6020   30.5048 O.2     1  UNL1       -0.2699
     19 C           3.0298    1.3387   32.0966 C.3     1  UNL1        0.1162
     20 C           1.3939    1.0806   28.5334 C.2     1  UNL1        0.0548
     21 C          -0.0622    1.3265   28.2698 C.2     1  UNL1       -0.0041
     22 C          -0.5280    1.6573   26.8829 C.3     1  UNL1        0.0991
     23 N          -1.0217    3.0379   26.5667 N.3     1  UNL1       -0.2665
     24 C          -2.0289    3.2425   25.4742 C.3     1  UNL1        0.0899
     25 C          -0.5082    4.2141   27.3432 C.3     1  UNL1        0.0899
     26 N           5.6703   -0.5203   33.4982 N.am    1  UNL1       -0.2518
     27 C           5.1064   -1.7683   32.8863 C.2     1  UNL1        0.2517
     28 O           3.7922   -2.3106   33.3650 O.2     1  UNL1       -0.2697
     29 H           6.5328   -0.1644   33.1841 H       1  UNL1        0.1580
     30 C           5.8565   -2.4740   31.7958 C.ar    1  UNL1        0.0567
     31 C           5.8830   -1.8993   30.4105 C.ar    1  UNL1        0.0252
     32 C           6.6331   -2.6050   29.3199 C.ar    1  UNL1        0.0989
     33 N           7.3567   -3.8855   29.6147 N.ar    1  UNL1       -0.2399
     34 C           7.3301   -4.4602   31.0000 C.ar    1  UNL1        0.1528
     35 C           6.5800   -3.7545   32.0905 C.ar    1  UNL1        0.0276
     36 C           8.0537   -5.7406   31.2947 C.3     1  UNL1        0.4348
     37 F           8.7772   -7.0212   31.5894 F       1  UNL1       -0.1644
     38 F           9.2510   -5.2366   30.5449 F       1  UNL1       -0.1644
     39 F           6.8563   -6.2447   32.0444 F       1  UNL1       -0.1644
@<TRIPOS>BOND
     1     1     2    1
     2     2     3   ar
     3     3     4   ar
     4     4     5   ar
     5     5     6   ar
     6     6     7   ar
     7     7     8   ar
     8     8    26    1
     9    26    27   am
    10    27    28    2
    11    27    30    1
    12    30    31   ar
    13    31    32   ar
    14    32    33   ar
    15    33    34   ar
    16    34    36    1
    17    36    37    1
    18    36    38    1
    19    36    39    1
    20    34    35   ar
    21     8     9   ar
    22    11     9    1
    23    11    12    1
    24    12    13    1
    25    13    14    1
    26    14    15    1
    27    15    16    1
    28    16    17   am
    29    17    18    2
    30    17    20    1
    31    20    21    2
    32    21    22    1
    33    22    23    1
    34    23    24    1
    35    23    25    1
    36    16    19    1
    37     9    10   ar
    38    10     2   ar
    39    10     6   ar
    40    35    30   ar
    41    19    11    1
    42    26    29    1
@<TRIPOS>MOLECULE
*****
 39 42 0 0 0
SMALL
GASTEIGER

@<TRIPOS>ATOM
      1 C          -1.9877    4.8188   24.6254 C.3     1  UNL1        0.0326
      2 C          -1.2981    3.6857   25.3258 C.ar    1  UNL1       -0.0045
      3 C          -1.4294    3.5317   26.8121 C.ar    1  UNL1       -0.0027
      4 C          -0.7398    2.3986   27.5125 C.ar    1  UNL1        0.0013
      5 C           0.0810    1.4195   26.7267 C.ar    1  UNL1        0.0206
      6 C           0.2122    1.5735   25.2405 C.ar    1  UNL1        0.0996
      7 N           0.9481    0.7702   24.2093 N.ar    1  UNL1       -0.2135
      8 C           0.7133    1.4068   22.8715 C.ar    1  UNL1        0.2039
      9 N          -0.1676    2.6036   23.0759 N.ar    1  UNL1       -0.2999
     10 C          -0.4773    2.7065   24.5400 C.ar    1  UNL1        0.0758
     11 C          -0.6536    3.5340   22.0044 C.3     1  UNL1        0.1078
     12 C           0.3366    4.5574   21.5328 C.3     1  UNL1        0.0245
     13 C           0.1595    5.6174   20.4866 C.3     1  UNL1        0.0037
     14 C          -1.0515    5.9162   19.6534 C.3     1  UNL1        0.0216
     15 C          -2.3846    5.2284   19.6608 C.3     1  UNL1        0.0938
     16 N          -2.8358    4.0722   20.5031 N.am    1  UNL1       -0.2742
     17 C          -4.2436    3.6087   20.2718 C.2     1  UNL1        0.2489
     18 O          -4.7940    2.4588   21.0623 O.2     1  UNL1       -0.2699
     19 C          -2.0654    3.3181   21.5461 C.3     1  UNL1        0.1162
     20 C          -5.1008    4.2951   19.2501 C.2     1  UNL1        0.0548
     21 C          -6.5397    4.5899   19.5544 C.2     1  UNL1       -0.0041
     22 C          -7.3970    5.2763   18.5327 C.3     1  UNL1        0.0991
     23 N          -8.4630    6.2363   18.9708 N.3     1  UNL1       -0.2665
     24 C          -8.2181    7.1482   20.1364 C.3     1  UNL1        0.0899
     25 C          -9.7739    6.2845   18.2434 C.3     1  UNL1        0.0899
     26 N           1.2630    0.9304   21.5597 N.am    1  UNL1       -0.2518
     27 C           2.3214   -0.1321   21.5315 C.2     1  UNL1        0.2517
     28 O           2.8302   -0.7182   22.8151 O.2     1  UNL1       -0.2697
     29 H           0.9291    1.3151   20.7172 H       1  UNL1        0.1580
     30 C           2.8711   -0.6085   20.2197 C.ar    1  UNL1        0.0567
     31 C           2.9773    0.3398   19.0622 C.ar    1  UNL1        0.0252
     32 C           3.5270   -0.1367   17.7504 C.ar    1  UNL1        0.0989
     33 N           3.9705   -1.5613   17.5960 N.ar    1  UNL1       -0.2399
     34 C           3.8642   -2.5095   18.7534 C.ar    1  UNL1        0.1528
     35 C           3.3146   -2.0331   20.0653 C.ar    1  UNL1        0.0276
     36 C           4.3077   -3.9341   18.5991 C.3     1  UNL1        0.4348
     37 F           4.7511   -5.3587   18.4447 F       1  UNL1       -0.1644
     38 F           5.6708   -3.4648   18.1846 F       1  UNL1       -0.1644
     39 F           2.9446   -4.4033   19.0135 F       1  UNL1       -0.1644
@<TRIPOS>BOND
     1     1     2    1
     2     2     3   ar
     3     3     4   ar
     4     4     5   ar
     5     5     6   ar
     6     6     7   ar
     7     7     8   ar
     8     8    26    1
     9    26    27   am
    10    27    28    2
    11    27    30    1
    12    30    31   ar
    13    31    32   ar
    14    32    33   ar
    15    33    34   ar
    16    34    36    1
    17    36    37    1
    18    36    38    1
    19    36    39    1
    20    34    35   ar
    21     8     9   ar
    22    11     9    1
    23    11    12    1
    24    12    13    1
    25    13    14    1
    26    14    15    1
    27    15    16    1
    28    16    17   am
    29    17    18    2
    30    17    20    1
    31    20    21    2
    32    21    22    1
    33    22    23    1
    34    23    24    1
    35    23    25    1
    36    16    19    1
    37     9    10   ar
    38    10     2   ar
    39    10     6   ar
    40    35    30   ar
    41    19    11    1
    42    26    29    1
@<TRIPOS>MOLECULE
*****
 39 42 0 0 0
SMALL
GASTEIGER

@<TRIPOS>ATOM
      1 C           2.5100    1.0440   31.3047 C.3     1  UNL1        0.0326
      2 C           3.7790    0.2447   31.2778 C.ar    1  UNL1       -0.0045
      3 C           4.6726    0.2155   32.4822 C.ar    1  UNL1       -0.0027
      4 C           5.9416   -0.5839   32.4553 C.ar    1  UNL1        0.0013
      5 C           6.3169   -1.3541   31.2241 C.ar    1  UNL1        0.0206
      6 C           5.4233   -1.3249   30.0197 C.ar    1  UNL1        0.0996
      7 N           5.5308   -1.9787   28.6740 N.ar    1  UNL1       -0.2135
      8 C           4.3283   -1.5835   27.8692 C.ar    1  UNL1        0.2039
      9 N           3.4776   -0.6854   28.7175 N.ar    1  UNL1       -0.2999
     10 C           4.1543   -0.5255   30.0466 C.ar    1  UNL1        0.0758
     11 C           2.1782   -0.0573   28.3085 C.3     1  UNL1        0.1078
     12 C           0.9656   -0.5232   29.0586 C.3     1  UNL1        0.0245
     13 C          -0.4614   -0.0932   28.8890 C.3     1  UNL1        0.0037
     14 C          -1.0283    0.9087   27.9274 C.3     1  UNL1        0.0216
     15 C          -0.3082    1.7282   26.8979 C.3     1  UNL1        0.0938
     16 N           1.1567    1.7482   26.5757 N.am    1  UNL1       -0.2742
     17 C           1.5697    2.6869   25.4811 C.2     1  UNL1        0.2489
     18 O           3.0120    2.7838   25.0806 O.2     1  UNL1       -0.2699
     19 C           2.2632    0.9535   27.2036 C.3     1  UNL1        0.1162
     20 C           0.5403    3.5285   24.7869 C.2     1  UNL1        0.0548
     21 C          -0.1124    3.0311   23.5312 C.2     1  UNL1       -0.0041
     22 C          -1.1418    3.8727   22.8369 C.3     1  UNL1        0.0991
     23 N          -1.8331    3.3530   21.6114 N.3     1  UNL1       -0.2665
     24 C          -1.0351    2.7116   20.5152 C.3     1  UNL1        0.0899
     25 C          -3.3226    3.4749   21.4820 C.3     1  UNL1        0.0899
     26 N           4.0290   -2.0113   26.4630 N.am    1  UNL1       -0.2518
     27 C           4.6105   -1.2512   25.3080 C.2     1  UNL1        0.2517
     28 O           5.4913   -0.0632   25.5591 O.2     1  UNL1       -0.2697
     29 H           3.4510   -2.7910   26.2981 H       1  UNL1        0.1580
     30 C           4.3112   -1.6790   23.9018 C.ar    1  UNL1        0.0567
     31 C           5.0285   -2.8544   23.3067 C.ar    1  UNL1        0.0252
     32 C           4.7293   -3.2822   21.9005 C.ar    1  UNL1        0.0989
     33 N           3.7127   -2.5346   21.0893 N.ar    1  UNL1       -0.2399
     34 C           2.9955   -1.3593   21.6844 C.ar    1  UNL1        0.1528
     35 C           3.2948   -0.9315   23.0906 C.ar    1  UNL1        0.0276
     36 C           1.9790   -0.6118   20.8733 C.3     1  UNL1        0.4348
     37 F           0.9625    0.1357   20.0621 F       1  UNL1       -0.1644
     38 F           1.7768    0.3461   22.0097 F       1  UNL1       -0.1644
     39 F           2.1813   -1.5698   19.7370 F       1  UNL1       -0.1644
@<TRIPOS>BOND
     1     1     2    1
     2     2     3   ar
     3     3     4   ar
     4     4     5   ar
     5     5     6   ar
     6     6     7   ar
     7     7     8   ar
     8     8    26    1
     9    26    27   am
    10    27    28    2
    11    27    30    1
    12    30    31   ar
    13    31    32   ar
    14    32    33   ar
    15    33    34   ar
    16    34    36    1
    17    36    37    1
    18    36    38    1
    19    36    39    1
    20    34    35   ar
    21     8     9   ar
    22    11     9    1
    23    11    12    1
    24    12    13    1
    25    13    14    1
    26    14    15    1
    27    15    16    1
    28    16    17   am
    29    17    18    2
    30    17    20    1
    31    20    21    2
    32    21    22    1
    33    22    23    1
    34    23    24    1
    35    23    25    1
    36    16    19    1
    37     9    10   ar
    38    10     2   ar
    39    10     6   ar
    40    35    30   ar
    41    19    11    1
    42    26    29    1
@<TRIPOS>MOLECULE
*****
 39 42 0 0 0
SMALL
GASTEIGER

@<TRIPOS>ATOM
      1 C          -2.9962    5.0424   18.9998 C.3     1  UNL1        0.0326
      2 C          -4.2501    4.8236   19.7933 C.ar    1  UNL1       -0.0045
      3 C          -5.5893    5.0568   19.1591 C.ar    1  UNL1       -0.0027
      4 C          -6.8433    4.8380   19.9526 C.ar    1  UNL1        0.0013
      5 C          -6.7581    4.3861   21.3803 C.ar    1  UNL1        0.0206
      6 C          -5.4189    4.1529   22.0145 C.ar    1  UNL1        0.0996
      7 N          -5.0243    3.7090   23.3919 N.ar    1  UNL1       -0.2135
      8 C          -3.5264    3.6535   23.4497 C.ar    1  UNL1        0.2039
      9 N          -2.9954    4.0630   22.1080 N.ar    1  UNL1       -0.2999
     10 C          -4.1650    4.3716   21.2210 C.ar    1  UNL1        0.0758
     11 C          -1.5486    4.1488   21.7212 C.3     1  UNL1        0.1078
     12 C          -0.9283    5.5111   21.8196 C.3     1  UNL1        0.0245
     13 C           0.4802    5.9220   21.5083 C.3     1  UNL1        0.0037
     14 C           1.6165    5.0723   21.0216 C.3     1  UNL1        0.0216
     15 C           1.6247    3.6017   20.7260 C.3     1  UNL1        0.0938
     16 N           0.4988    2.6177   20.8441 N.am    1  UNL1       -0.2742
     17 C           0.8287    1.2031   20.4698 C.2     1  UNL1        0.2489
     18 O          -0.2262    0.1399   20.5523 O.2     1  UNL1       -0.2699
     19 C          -0.9135    2.8613   21.2870 C.3     1  UNL1        0.1162
     20 C           2.2136    0.8517   20.0131 C.2     1  UNL1        0.0548
     21 C           2.6932   -0.5672   20.0957 C.2     1  UNL1       -0.0041
     22 C           4.0780   -0.9186   19.6390 C.3     1  UNL1        0.0991
     23 N           4.2845   -1.5727   18.3050 N.3     1  UNL1       -0.2665
     24 C           4.9884   -2.8944   18.2186 C.3     1  UNL1        0.0899
     25 C           3.7871   -0.9050   17.0573 C.3     1  UNL1        0.0899
     26 N          -2.7041    3.2579   24.6402 N.am    1  UNL1       -0.2518
     27 C          -2.0091    4.3087   25.4543 C.2     1  UNL1        0.2517
     28 O          -2.1364    5.7551   25.0779 O.2     1  UNL1       -0.2697
     29 H          -2.6205    2.3085   24.8872 H       1  UNL1        0.1580
     30 C          -1.1867    3.9131   26.6448 C.ar    1  UNL1        0.0567
     31 C          -0.4091    4.9516   27.3977 C.ar    1  UNL1        0.0252
     32 C           0.4133    4.5560   28.5881 C.ar    1  UNL1        0.0989
     33 N           0.4580    3.1219   29.0257 N.ar    1  UNL1       -0.2399
     34 C          -0.3197    2.0834   28.2728 C.ar    1  UNL1        0.1528
     35 C          -1.1420    2.4790   27.0823 C.ar    1  UNL1        0.0276
     36 C          -0.2749    0.6494   28.7104 C.3     1  UNL1        0.4348
     37 F          -0.2303   -0.7847   29.1480 F       1  UNL1       -0.1644
     38 F           1.2237    0.6790   28.6541 F       1  UNL1       -0.1644
     39 F          -1.7736    0.6198   28.7666 F       1  UNL1       -0.1644
@<TRIPOS>BOND
     1     1     2    1
     2     2     3   ar
     3     3     4   ar
     4     4     5   ar
     5     5     6   ar
     6     6     7   ar
     7     7     8   ar
     8     8    26    1
     9    26    27   am
    10    27    28    2
    11    27    30    1
    12    30    31   ar
    13    31    32   ar
    14    32    33   ar
    15    33    34   ar
    16    34    36    1
    17    36    37    1
    18    36    38    1
    19    36    39    1
    20    34    35   ar
    21     8     9   ar
    22    11     9    1
    23    11    12    1
    24    12    13    1
    25    13    14    1
    26    14    15    1
    27    15    16    1
    28    16    17   am
    29    17    18    2
    30    17    20    1
    31    20    21    2
    32    21    22    1
    33    22    23    1
    34    23    24    1
    35    23    25    1
    36    16    19    1
    37     9    10   ar
    38    10     2   ar
    39    10     6   ar
    40    35    30   ar
    41    19    11    1
    42    26    29    1
@<TRIPOS>MOLECULE
*****
 39 42 0 0 0
SMALL
GASTEIGER

@<TRIPOS>ATOM
      1 C          -0.8380    5.3041   24.5538 C.3     1  UNL1        0.0326
      2 C          -1.7773    5.0169   23.4201 C.ar    1  UNL1       -0.0045
      3 C          -3.0345    5.8204   23.2658 C.ar    1  UNL1       -0.0027
      4 C          -3.9738    5.5332   22.1321 C.ar    1  UNL1        0.0013
      5 C          -3.6559    4.4425   21.1527 C.ar    1  UNL1        0.0206
      6 C          -2.3988    3.6389   21.3070 C.ar    1  UNL1        0.0996
      7 N          -1.8242    2.5100   20.5037 N.ar    1  UNL1       -0.2135
      8 C          -0.5298    2.0995   21.1409 C.ar    1  UNL1        0.2039
      9 N          -0.3044    2.9747   22.3380 N.ar    1  UNL1       -0.2999
     10 C          -1.4595    3.9261   22.4407 C.ar    1  UNL1        0.0758
     11 C           0.8699    2.9099   23.2690 C.3     1  UNL1        0.1078
     12 C           2.1281    3.5612   22.7760 C.3     1  UNL1        0.0245
     13 C           3.4578    3.6659   23.4621 C.3     1  UNL1        0.0037
     14 C           3.8580    3.1451   24.8107 C.3     1  UNL1        0.0216
     15 C           3.0271    2.3910   25.8062 C.3     1  UNL1        0.0938
     16 N           1.5910    1.9714   25.6991 N.am    1  UNL1       -0.2742
     17 C           1.0422    1.2218   26.8768 C.2     1  UNL1        0.2489
     18 O          -0.3837    0.7564   26.8714 O.2     1  UNL1       -0.2699
     19 C           0.6310    2.2024   24.5699 C.3     1  UNL1        0.1162
     20 C           1.9195    0.9377   28.0598 C.2     1  UNL1        0.0548
     21 C           1.4039    0.0993   29.1918 C.2     1  UNL1       -0.0041
     22 C           2.2811   -0.1849   30.3748 C.3     1  UNL1        0.0991
     23 N           2.2504    0.7247   31.5671 N.3     1  UNL1       -0.2665
     24 C           3.2337    0.5318   32.6832 C.3     1  UNL1        0.0899
     25 C           1.2362    1.8273   31.6432 C.3     1  UNL1        0.0899
     26 N           0.3796    1.0058   20.6645 N.am    1  UNL1       -0.2518
     27 C           1.4540    1.3071   19.6622 C.2     1  UNL1        0.2517
     28 O           1.6192    2.7021   19.1361 O.2     1  UNL1       -0.2697
     29 H           0.2712    0.0902   21.0098 H       1  UNL1        0.1580
     30 C           2.3634    0.2134   19.1858 C.ar    1  UNL1        0.0567
     31 C           2.9815    0.2929   17.8213 C.ar    1  UNL1        0.0252
     32 C           3.8909   -0.8008   17.3450 C.ar    1  UNL1        0.0989
     33 N           4.1821   -1.9740   18.2331 N.ar    1  UNL1       -0.2399
     34 C           3.5640   -2.0536   19.5975 C.ar    1  UNL1        0.1528
     35 C           2.6546   -0.9599   20.0738 C.ar    1  UNL1        0.0276
     36 C           3.8552   -3.2268   20.4855 C.3     1  UNL1        0.4348
     37 F           4.1465   -4.4002   21.3735 F       1  UNL1       -0.1644
     38 F           3.7650   -2.3375   21.6900 F       1  UNL1       -0.1644
     39 F           3.9454   -4.1161   19.2810 F       1  UNL1       -0.1644
@<TRIPOS>BOND
     1     1     2    1
     2     2     3   ar
     3     3     4   ar
     4     4     5   ar
     5     5     6   ar
     6     6     7   ar
     7     7     8   ar
     8     8    26    1
     9    26    27   am
    10    27    28    2
    11    27    30    1
    12    30    31   ar
    13    31    32   ar
    14    32    33   ar
    15    33    34   ar
    16    34    36    1
    17    36    37    1
    18    36    38    1
    19    36    39    1
    20    34    35   ar
    21     8     9   ar
    22    11     9    1
    23    11    12    1
    24    12    13    1
    25    13    14    1
    26    14    15    1
    27    15    16    1
    28    16    17   am
    29    17    18    2
    30    17    20    1
    31    20    21    2
    32    21    22    1
    33    22    23    1
    34    23    24    1
    35    23    25    1
    36    16    19    1
    37     9    10   ar
    38    10     2   ar
    39    10     6   ar
    40    35    30   ar
    41    19    11    1
    42    26    29    1
@<TRIPOS>MOLECULE
*****
 39 42 0 0 0
SMALL
GASTEIGER

@<TRIPOS>ATOM
      1 C           4.6248    1.8832   29.7347 C.3     1  UNL1        0.0326
      2 C           5.1314    0.4716   29.7030 C.ar    1  UNL1       -0.0045
      3 C           5.8837   -0.0818   30.8767 C.ar    1  UNL1       -0.0027
      4 C           6.3902   -1.4933   30.8450 C.ar    1  UNL1        0.0013
      5 C           6.1445   -2.3514   29.6395 C.ar    1  UNL1        0.0206
      6 C           5.3923   -1.7980   28.4657 C.ar    1  UNL1        0.0996
      7 N           5.0008   -2.4014   27.1494 N.ar    1  UNL1       -0.2135
      8 C           4.2523   -1.3628   26.3676 C.ar    1  UNL1        0.2039
      9 N           4.1812   -0.1175   27.2008 N.ar    1  UNL1       -0.2999
     10 C           4.8857   -0.3864   28.4975 C.ar    1  UNL1        0.0758
     11 C           3.5214    1.1706   26.8065 C.3     1  UNL1        0.1078
     12 C           4.4304    2.2206   26.2395 C.3     1  UNL1        0.0245
     13 C           4.0823    3.5976   25.7574 C.3     1  UNL1        0.0037
     14 C           2.7394    4.2649   25.7231 C.3     1  UNL1        0.0216
     15 C           1.4128    3.7199   26.1625 C.3     1  UNL1        0.0938
     16 N           1.1014    2.3730   26.7447 N.am    1  UNL1       -0.2742
     17 C          -0.3387    2.1283   27.0854 C.2     1  UNL1        0.2489
     18 O          -0.7574    0.8133   27.6733 O.2     1  UNL1       -0.2699
     19 C           2.0399    1.2385   27.0313 C.3     1  UNL1        0.1162
     20 C          -1.3601    3.1985   26.8382 C.2     1  UNL1        0.0548
     21 C          -2.1745    3.1815   25.5785 C.2     1  UNL1       -0.0041
     22 C          -3.1960    4.2517   25.3312 C.3     1  UNL1        0.0991
     23 N          -4.4439    3.9341   24.5620 N.3     1  UNL1       -0.2665
     24 C          -5.7840    4.3208   25.1138 C.3     1  UNL1        0.0899
     25 C          -4.3517    3.2298   23.2408 C.3     1  UNL1        0.0899
     26 N           3.6761   -1.5387   24.9939 N.am    1  UNL1       -0.2518
     27 C           4.5873   -1.7033   23.8139 C.2     1  UNL1        0.2517
     28 O           6.0748   -1.6921   24.0075 O.2     1  UNL1       -0.2697
     29 H           2.6999   -1.5461   24.8668 H       1  UNL1        0.1580
     30 C           4.0111   -1.8792   22.4402 C.ar    1  UNL1        0.0567
     31 C           2.9809   -0.9156   21.9300 C.ar    1  UNL1        0.0252
     32 C           2.4047   -1.0915   20.5563 C.ar    1  UNL1        0.0989
     33 N           2.8587   -2.2309   19.6927 N.ar    1  UNL1       -0.2399
     34 C           3.8889   -3.1944   20.2029 C.ar    1  UNL1        0.1528
     35 C           4.4651   -3.0186   21.5766 C.ar    1  UNL1        0.0276
     36 C           4.3430   -4.3338   19.3394 C.3     1  UNL1        0.4348
     37 F           4.7970   -5.4732   18.4758 F       1  UNL1       -0.1644
     38 F           5.7725   -3.9621   19.6006 F       1  UNL1       -0.1644
     39 F           2.9134   -4.7054   19.0782 F       1  UNL1       -0.1644
@<TRIPOS>BOND
     1     1     2    1
     2     2     3   ar
     3     3     4   ar
     4     4     5   ar
     5     5     6   ar
     6     6     7   ar
     7     7     8   ar
     8     8    26    1
     9    26    27   am
    10    27    28    2
    11    27    30    1
    12    30    31   ar
    13    31    32   ar
    14    32    33   ar
    15    33    34   ar
    16    34    36    1
    17    36    37    1
    18    36    38    1
    19    36    39    1
    20    34    35   ar
    21     8     9   ar
    22    11     9    1
    23    11    12    1
    24    12    13    1
    25    13    14    1
    26    14    15    1
    27    15    16    1
    28    16    17   am
    29    17    18    2
    30    17    20    1
    31    20    21    2
    32    21    22    1
    33    22    23    1
    34    23    24    1
    35    23    25    1
    36    16    19    1
    37     9    10   ar
    38    10     2   ar
    39    10     6   ar
    40    35    30   ar
    41    19    11    1
    42    26    29    1
