@<TRIPOS>MOLECULE
*****
 23 25 0 0 0
SMALL
GASTEIGER

@<TRIPOS>ATOM
      1 C          -8.5847  -16.8508   22.3272 C.3     1  UNL1        0.2136
      2 C         -10.0779  -16.9843   22.2768 C.ar    1  UNL1        0.0157
      3 C         -11.1817  -16.1120   22.7969 C.ar    1  UNL1       -0.0011
      4 C         -12.6129  -16.5117   22.5926 C.ar    1  UNL1       -0.0002
      5 C         -12.9403  -17.7837   21.8682 C.ar    1  UNL1       -0.0003
      6 C         -11.8365  -18.6561   21.3481 C.ar    1  UNL1       -0.0044
      7 C         -10.4053  -18.2564   21.5524 C.ar    1  UNL1       -0.0202
      8 C          -9.1144  -18.9090   21.1551 C.3     1  UNL1        0.0583
      9 C          -7.9892  -18.0403   21.6340 C.3     1  UNL1        0.1469
     10 O          -6.6824  -17.3919   21.9832 O.3     1  UNL1       -0.3812
     11 H          -5.9520  -17.9398   21.6559 H       1  UNL1        0.2105
     12 C          -7.1206  -19.0942   21.0138 C.3     1  UNL1        0.0967
     13 N          -6.2311  -18.7477   19.8568 N.3     1  UNL1       -0.3191
     14 H          -6.8038  -18.5017   19.0494 H       1  UNL1        0.1189
     15 H          -5.6451  -19.5501   19.6262 H       1  UNL1        0.1189
     16 O          -7.8210  -15.7254   22.9598 O.3     1  UNL1       -0.4726
     17 C          -5.0227  -15.2853   23.9478 C.3     1  UNL1        0.0342
     18 C          -6.1338  -15.5285   24.9257 C.ar    1  UNL1        0.0121
     19 C          -5.8458  -15.5518   26.3976 C.ar    1  UNL1       -0.0013
     20 C          -6.9568  -15.7951   27.3756 C.ar    1  UNL1       -0.0001
     21 C          -8.3560  -16.0151   26.8816 C.ar    1  UNL1        0.0031
     22 C          -8.6440  -15.9918   25.4097 C.ar    1  UNL1        0.0366
     23 C          -7.5329  -15.7486   24.4318 C.ar    1  UNL1        0.1349
@<TRIPOS>BOND
     1    17    18    1
     2    18    19   ar
     3    19    20   ar
     4    20    21   ar
     5    21    22   ar
     6    22    23   ar
     7    23    16    1
     8     1    16    1
     9     1     2    1
    10     2     3   ar
    11     3     4   ar
    12     4     5   ar
    13     5     6   ar
    14     6     7   ar
    15     7     8    1
    16     8     9    1
    17     9    10    1
    18     9    12    1
    19    12    13    1
    20    23    18   ar
    21     9     1    1
    22     7     2   ar
    23    10    11    1
    24    13    14    1
    25    13    15    1
@<TRIPOS>MOLECULE
*****
 23 25 0 0 0
SMALL
GASTEIGER

@<TRIPOS>ATOM
      1 C          -9.0161  -16.4700   22.2605 C.3     1  UNL1        0.2136
      2 C          -9.4009  -17.8470   22.7143 C.ar    1  UNL1        0.0157
      3 C          -8.7928  -18.7788   23.7202 C.ar    1  UNL1       -0.0011
      4 C          -9.4114  -20.1227   23.9676 C.ar    1  UNL1       -0.0002
      5 C         -10.6380  -20.5348   23.2090 C.ar    1  UNL1       -0.0003
      6 C         -11.2461  -19.6030   22.2031 C.ar    1  UNL1       -0.0044
      7 C         -10.6275  -18.2591   21.9557 C.ar    1  UNL1       -0.0202
      8 C         -11.0008  -17.1368   21.0331 C.3     1  UNL1        0.0583
      9 C         -10.0049  -16.0311   21.2215 C.3     1  UNL1        0.1469
     10 O          -9.1796  -14.7789   21.1913 O.3     1  UNL1       -0.3812
     11 H          -9.5550  -14.1597   20.5459 H       1  UNL1        0.2105
     12 C         -10.8212  -15.3304   20.1762 C.3     1  UNL1        0.0967
     13 N         -11.9776  -16.0348   19.5309 N.3     1  UNL1       -0.3191
     14 H         -11.6325  -16.8205   18.9796 H       1  UNL1        0.1189
     15 H         -12.4749  -15.3848   18.9221 H       1  UNL1        0.1189
     16 O          -7.8475  -15.6721   22.7584 O.3     1  UNL1       -0.4726
     17 C          -5.0182  -15.6810   23.7559 C.3     1  UNL1        0.0342
     18 C          -6.1562  -15.5902   24.7289 C.ar    1  UNL1        0.0121
     19 C          -5.8795  -15.5038   26.2006 C.ar    1  UNL1       -0.0013
     20 C          -7.0175  -15.4129   27.1736 C.ar    1  UNL1       -0.0001
     21 C          -8.4322  -15.4084   26.6749 C.ar    1  UNL1        0.0031
     22 C          -8.7088  -15.4948   25.2032 C.ar    1  UNL1        0.0366
     23 C          -7.5708  -15.5857   24.2302 C.ar    1  UNL1        0.1349
@<TRIPOS>BOND
     1    17    18    1
     2    18    19   ar
     3    19    20   ar
     4    20    21   ar
     5    21    22   ar
     6    22    23   ar
     7    23    16    1
     8     1    16    1
     9     1     2    1
    10     2     3   ar
    11     3     4   ar
    12     4     5   ar
    13     5     6   ar
    14     6     7   ar
    15     7     8    1
    16     8     9    1
    17     9    10    1
    18     9    12    1
    19    12    13    1
    20    23    18   ar
    21     9     1    1
    22     7     2   ar
    23    10    11    1
    24    13    14    1
    25    13    15    1
@<TRIPOS>MOLECULE
*****
 23 25 0 0 0
SMALL
GASTEIGER

@<TRIPOS>ATOM
      1 C          -8.4006  -16.7399   22.2859 C.3     1  UNL1        0.2136
      2 C          -7.4985  -17.9048   22.0046 C.ar    1  UNL1        0.0157
      3 C          -6.0601  -18.1646   22.3415 C.ar    1  UNL1       -0.0011
      4 C          -5.4113  -19.4495   21.9194 C.ar    1  UNL1       -0.0002
      5 C          -6.2008  -20.4744   21.1604 C.ar    1  UNL1       -0.0003
      6 C          -7.6392  -20.2145   20.8235 C.ar    1  UNL1       -0.0044
      7 C          -8.2880  -18.9297   21.2456 C.ar    1  UNL1       -0.0202
      8 C          -9.6781  -18.3982   21.0578 C.3     1  UNL1        0.0583
      9 C          -9.7477  -17.0448   21.7008 C.3     1  UNL1        0.1469
     10 O         -10.1149  -15.6962   22.2452 O.3     1  UNL1       -0.3812
     11 H         -11.0434  -15.5061   22.0387 H       1  UNL1        0.2105
     12 C         -11.1715  -17.0679   21.2294 C.3     1  UNL1        0.0967
     13 N         -11.4747  -17.1391   19.7621 N.3     1  UNL1       -0.3191
     14 H         -11.1583  -16.2826   19.3075 H       1  UNL1        0.1189
     15 H         -12.4804  -17.2440   19.6274 H       1  UNL1        0.1189
     16 O          -8.0221  -15.4895   23.0230 O.3     1  UNL1       -0.4726
     17 C          -5.1437  -15.1963   23.8161 C.3     1  UNL1        0.0342
     18 C          -6.1924  -15.4141   24.8661 C.ar    1  UNL1        0.0121
     19 C          -5.8021  -15.4853   26.3126 C.ar    1  UNL1       -0.0013
     20 C          -6.8509  -15.7031   27.3627 C.ar    1  UNL1       -0.0001
     21 C          -8.2901  -15.8497   26.9662 C.ar    1  UNL1        0.0031
     22 C          -8.6804  -15.7785   25.5197 C.ar    1  UNL1        0.0366
     23 C          -7.6317  -15.5607   24.4696 C.ar    1  UNL1        0.1349
@<TRIPOS>BOND
     1    17    18    1
     2    18    19   ar
     3    19    20   ar
     4    20    21   ar
     5    21    22   ar
     6    22    23   ar
     7    23    16    1
     8     1    16    1
     9     1     2    1
    10     2     3   ar
    11     3     4   ar
    12     4     5   ar
    13     5     6   ar
    14     6     7   ar
    15     7     8    1
    16     8     9    1
    17     9    10    1
    18     9    12    1
    19    12    13    1
    20    23    18   ar
    21     9     1    1
    22     7     2   ar
    23    10    11    1
    24    13    14    1
    25    13    15    1
@<TRIPOS>MOLECULE
*****
 23 25 0 0 0
SMALL
GASTEIGER

@<TRIPOS>ATOM
      1 C          -7.9732  -16.8853   22.1364 C.3     1  UNL1        0.2136
      2 C          -7.4159  -18.1621   21.5804 C.ar    1  UNL1        0.0157
      3 C          -7.9317  -19.1143   20.5425 C.ar    1  UNL1       -0.0011
      4 C          -7.1380  -20.3358   20.1849 C.ar    1  UNL1       -0.0002
      5 C          -5.8286  -20.6052   20.8653 C.ar    1  UNL1       -0.0003
      6 C          -5.3128  -19.6530   21.9032 C.ar    1  UNL1       -0.0044
      7 C          -6.1065  -18.4314   22.2607 C.ar    1  UNL1       -0.0202
      8 C          -5.8545  -17.3210   23.2372 C.3     1  UNL1        0.0583
      9 C          -7.0082  -16.3654   23.1604 C.3     1  UNL1        0.1469
     10 O          -8.0036  -15.2526   23.3039 O.3     1  UNL1       -0.3812
     11 H          -7.6904  -14.6227   23.9717 H       1  UNL1        0.2105
     12 C          -6.2513  -15.6130   24.2144 C.3     1  UNL1        0.0967
     13 N          -6.8524  -14.3894   24.8399 N.3     1  UNL1       -0.3191
     14 H          -6.9401  -13.6560   24.1364 H       1  UNL1        0.1189
     15 H          -6.2511  -14.0642   25.5970 H       1  UNL1        0.1189
     16 O          -9.2681  -16.2413   21.7383 O.3     1  UNL1       -0.4726
     17 C         -11.5742  -16.2342   19.8194 C.3     1  UNL1        0.0342
     18 C         -11.7243  -16.8694   21.1700 C.ar    1  UNL1        0.0121
     19 C         -13.0273  -17.5010   21.5612 C.ar    1  UNL1       -0.0013
     20 C         -13.1774  -18.1361   22.9117 C.ar    1  UNL1       -0.0001
     21 C         -12.0244  -18.1397   23.8712 C.ar    1  UNL1        0.0031
     22 C         -10.7214  -17.5081   23.4800 C.ar    1  UNL1        0.0366
     23 C         -10.5713  -16.8729   22.1294 C.ar    1  UNL1        0.1349
@<TRIPOS>BOND
     1    17    18    1
     2    18    19   ar
     3    19    20   ar
     4    20    21   ar
     5    21    22   ar
     6    22    23   ar
     7    23    16    1
     8     1    16    1
     9     1     2    1
    10     2     3   ar
    11     3     4   ar
    12     4     5   ar
    13     5     6   ar
    14     6     7   ar
    15     7     8    1
    16     8     9    1
    17     9    10    1
    18     9    12    1
    19    12    13    1
    20    23    18   ar
    21     9     1    1
    22     7     2   ar
    23    10    11    1
    24    13    14    1
    25    13    15    1
@<TRIPOS>MOLECULE
*****
 23 25 0 0 0
SMALL
GASTEIGER

@<TRIPOS>ATOM
      1 C          -8.0328  -17.2901   22.5980 C.3     1  UNL1        0.2136
      2 C          -8.9174  -18.3225   23.2316 C.ar    1  UNL1        0.0157
      3 C          -9.3588  -19.6819   22.7764 C.ar    1  UNL1       -0.0011
      4 C         -10.2663  -20.5047   23.6422 C.ar    1  UNL1       -0.0002
      5 C         -10.7323  -19.9680   24.9632 C.ar    1  UNL1       -0.0003
      6 C         -10.2909  -18.6087   25.4183 C.ar    1  UNL1       -0.0044
      7 C          -9.3835  -17.7859   24.5525 C.ar    1  UNL1       -0.0202
      8 C          -8.7868  -16.4219   24.7352 C.3     1  UNL1        0.0583
      9 C          -7.9520  -16.1154   23.5273 C.3     1  UNL1        0.1469
     10 O          -7.0615  -15.5382   22.4672 O.3     1  UNL1       -0.3812
     11 H          -6.7630  -14.6567   22.7405 H       1  UNL1        0.2105
     12 C          -7.6851  -14.8201   24.2350 C.3     1  UNL1        0.0967
     13 N          -6.3127  -14.5222   24.7619 N.3     1  UNL1       -0.3191
     14 H          -6.0871  -15.1760   25.5116 H       1  UNL1        0.1189
     15 H          -6.2866  -13.5687   25.1230 H       1  UNL1        0.1189
     16 O          -7.3489  -17.4111   21.2684 O.3     1  UNL1       -0.4726
     17 C          -8.2527  -19.5965   19.4225 C.3     1  UNL1        0.0342
     18 C          -6.9010  -19.6716   20.0684 C.ar    1  UNL1        0.0121
     19 C          -6.0012  -20.8393   19.7914 C.ar    1  UNL1       -0.0013
     20 C          -4.6495  -20.9144   20.4374 C.ar    1  UNL1       -0.0001
     21 C          -4.1976  -19.8218   21.3603 C.ar    1  UNL1        0.0031
     22 C          -5.0974  -18.6541   21.6373 C.ar    1  UNL1        0.0366
     23 C          -6.4491  -18.5790   20.9914 C.ar    1  UNL1        0.1349
@<TRIPOS>BOND
     1    17    18    1
     2    18    19   ar
     3    19    20   ar
     4    20    21   ar
     5    21    22   ar
     6    22    23   ar
     7    23    16    1
     8     1    16    1
     9     1     2    1
    10     2     3   ar
    11     3     4   ar
    12     4     5   ar
    13     5     6   ar
    14     6     7   ar
    15     7     8    1
    16     8     9    1
    17     9    10    1
    18     9    12    1
    19    12    13    1
    20    23    18   ar
    21     9     1    1
    22     7     2   ar
    23    10    11    1
    24    13    14    1
    25    13    15    1
@<TRIPOS>MOLECULE
*****
 23 25 0 0 0
SMALL
GASTEIGER

@<TRIPOS>ATOM
      1 C          -7.6717  -18.3489   21.4335 C.3     1  UNL1        0.2136
      2 C          -7.0982  -17.3877   22.4321 C.ar    1  UNL1        0.0157
      3 C          -7.6748  -16.1786   23.1070 C.ar    1  UNL1       -0.0011
      4 C          -6.8452  -15.3968   24.0818 C.ar    1  UNL1       -0.0002
      5 C          -5.4390  -15.8241   24.3818 C.ar    1  UNL1       -0.0003
      6 C          -4.8624  -17.0332   23.7069 C.ar    1  UNL1       -0.0044
      7 C          -5.6920  -17.8150   22.7320 C.ar    1  UNL1       -0.0202
      8 C          -5.3965  -19.0403   21.9188 C.3     1  UNL1        0.0583
      9 C          -6.6200  -19.3703   21.1163 C.3     1  UNL1        0.1469
     10 O          -7.6695  -19.9386   20.2077 O.3     1  UNL1       -0.3812
     11 H          -7.3182  -20.7237   19.7592 H       1  UNL1        0.2105
     12 C          -5.7876  -20.5105   20.6091 C.3     1  UNL1        0.0967
     13 N          -4.3716  -20.2709   20.1762 N.3     1  UNL1       -0.3191
     14 H          -4.3653  -19.6739   19.3491 H       1  UNL1        0.1189
     15 H          -3.9281  -21.1624   19.9553 H       1  UNL1        0.1189
     16 O          -9.0543  -18.2977   20.8538 O.3     1  UNL1       -0.4726
     17 C         -11.4468  -16.6486   20.1081 C.3     1  UNL1        0.0342
     18 C         -11.4434  -17.4285   21.3893 C.ar    1  UNL1        0.0121
     19 C         -12.6363  -17.3840   22.2977 C.ar    1  UNL1       -0.0013
     20 C         -12.6329  -18.1640   23.5789 C.ar    1  UNL1       -0.0001
     21 C         -11.4366  -18.9886   23.9518 C.ar    1  UNL1        0.0031
     22 C         -10.2438  -19.0331   23.0435 C.ar    1  UNL1        0.0366
     23 C         -10.2472  -18.2531   21.7622 C.ar    1  UNL1        0.1349
@<TRIPOS>BOND
     1    17    18    1
     2    18    19   ar
     3    19    20   ar
     4    20    21   ar
     5    21    22   ar
     6    22    23   ar
     7    23    16    1
     8     1    16    1
     9     1     2    1
    10     2     3   ar
    11     3     4   ar
    12     4     5   ar
    13     5     6   ar
    14     6     7   ar
    15     7     8    1
    16     8     9    1
    17     9    10    1
    18     9    12    1
    19    12    13    1
    20    23    18   ar
    21     9     1    1
    22     7     2   ar
    23    10    11    1
    24    13    14    1
    25    13    15    1
@<TRIPOS>MOLECULE
*****
 23 25 0 0 0
SMALL
GASTEIGER

@<TRIPOS>ATOM
      1 C          -8.1091  -18.5203   22.3836 C.3     1  UNL1        0.2136
      2 C          -8.0150  -17.3379   23.3018 C.ar    1  UNL1        0.0157
      3 C          -9.0409  -16.6330   24.1388 C.ar    1  UNL1       -0.0011
      4 C          -8.6442  -15.4524   24.9747 C.ar    1  UNL1       -0.0002
      5 C          -7.2216  -14.9766   24.9734 C.ar    1  UNL1       -0.0003
      6 C          -6.1958  -15.6815   24.1364 C.ar    1  UNL1       -0.0044
      7 C          -6.5925  -16.8621   23.3005 C.ar    1  UNL1       -0.0202
      8 C          -5.8074  -17.7505   22.3816 C.3     1  UNL1        0.0583
      9 C          -6.7447  -18.7753   21.8148 C.3     1  UNL1        0.1469
     10 O          -7.4266  -19.9026   21.0979 O.3     1  UNL1       -0.3812
     11 H          -6.7809  -20.3742   20.5487 H       1  UNL1        0.2105
     12 C          -5.5229  -19.2659   21.0962 C.3     1  UNL1        0.0967
     13 N          -5.1155  -18.6395   19.7956 N.3     1  UNL1       -0.3191
     14 H          -5.8216  -18.8379   19.0867 H       1  UNL1        0.1189
     15 H          -4.2186  -19.0242   19.4991 H       1  UNL1        0.1189
     16 O          -9.3498  -19.3092   22.0863 O.3     1  UNL1       -0.4726
     17 C         -10.3039  -20.0529   24.8316 C.3     1  UNL1        0.0342
     18 C         -11.1594  -19.1953   23.9471 C.ar    1  UNL1        0.0121
     19 C         -12.4920  -18.7095   24.4351 C.ar    1  UNL1       -0.0013
     20 C         -13.3476  -17.8518   23.5505 C.ar    1  UNL1       -0.0001
     21 C         -12.8705  -17.4799   22.1779 C.ar    1  UNL1        0.0031
     22 C         -11.5380  -17.9657   21.6899 C.ar    1  UNL1        0.0366
     23 C         -10.6824  -18.8234   22.5744 C.ar    1  UNL1        0.1349
@<TRIPOS>BOND
     1    17    18    1
     2    18    19   ar
     3    19    20   ar
     4    20    21   ar
     5    21    22   ar
     6    22    23   ar
     7    23    16    1
     8     1    16    1
     9     1     2    1
    10     2     3   ar
    11     3     4   ar
    12     4     5   ar
    13     5     6   ar
    14     6     7   ar
    15     7     8    1
    16     8     9    1
    17     9    10    1
    18     9    12    1
    19    12    13    1
    20    23    18   ar
    21     9     1    1
    22     7     2   ar
    23    10    11    1
    24    13    14    1
    25    13    15    1
@<TRIPOS>MOLECULE
*****
 23 25 0 0 0
SMALL
GASTEIGER

@<TRIPOS>ATOM
      1 C          -7.6590  -16.5838   23.5694 C.3     1  UNL1        0.2136
      2 C          -7.1710  -17.7657   22.7852 C.ar    1  UNL1        0.0157
      3 C          -7.8975  -18.8316   22.0196 C.ar    1  UNL1       -0.0011
      4 C          -7.1255  -19.9106   21.3200 C.ar    1  UNL1       -0.0002
      5 C          -5.6270  -19.9239   21.3859 C.ar    1  UNL1       -0.0003
      6 C          -4.9005  -18.8580   22.1514 C.ar    1  UNL1       -0.0044
      7 C          -5.6725  -17.7789   22.8511 C.ar    1  UNL1       -0.0202
      8 C          -5.2345  -16.6052   23.6760 C.3     1  UNL1        0.0583
      9 C          -6.4622  -15.8666   24.1199 C.3     1  UNL1        0.1469
     10 O          -7.4844  -14.9374   24.7045 O.3     1  UNL1       -0.3812
     11 H          -7.0365  -14.2379   25.2055 H       1  UNL1        0.2105
     12 C          -5.4790  -14.9551   24.7927 C.3     1  UNL1        0.0967
     13 N          -5.7338  -14.4789   26.1921 N.3     1  UNL1       -0.3191
     14 H          -6.5580  -13.8780   26.2020 H       1  UNL1        0.1189
     15 H          -4.9256  -13.9529   26.5247 H       1  UNL1        0.1189
     16 O          -9.0923  -16.1885   23.7681 O.3     1  UNL1       -0.4726
     17 C         -10.9982  -18.4003   24.4582 C.3     1  UNL1        0.0342
     18 C         -11.0861  -17.7241   23.1221 C.ar    1  UNL1        0.0121
     19 C         -12.1268  -18.1537   22.1311 C.ar    1  UNL1       -0.0013
     20 C         -12.2147  -17.4775   20.7950 C.ar    1  UNL1       -0.0001
     21 C         -11.2618  -16.3717   20.4500 C.ar    1  UNL1        0.0031
     22 C         -10.2211  -15.9421   21.4410 C.ar    1  UNL1        0.0366
     23 C         -10.1332  -16.6182   22.7770 C.ar    1  UNL1        0.1349
@<TRIPOS>BOND
     1    17    18    1
     2    18    19   ar
     3    19    20   ar
     4    20    21   ar
     5    21    22   ar
     6    22    23   ar
     7    23    16    1
     8     1    16    1
     9     1     2    1
    10     2     3   ar
    11     3     4   ar
    12     4     5   ar
    13     5     6   ar
    14     6     7   ar
    15     7     8    1
    16     8     9    1
    17     9    10    1
    18     9    12    1
    19    12    13    1
    20    23    18   ar
    21     9     1    1
    22     7     2   ar
    23    10    11    1
    24    13    14    1
    25    13    15    1
@<TRIPOS>MOLECULE
*****
 23 25 0 0 0
SMALL
GASTEIGER

@<TRIPOS>ATOM
      1 C         -10.2458  -18.1597   20.8696 C.3     1  UNL1        0.2136
      2 C         -10.2601  -18.8108   22.2208 C.ar    1  UNL1        0.0157
      3 C          -9.3979  -19.8757   22.8310 C.ar    1  UNL1       -0.0011
      4 C          -9.6559  -20.3365   24.2349 C.ar    1  UNL1       -0.0002
      5 C         -10.7762  -19.7324   25.0286 C.ar    1  UNL1       -0.0003
      6 C         -11.6384  -18.6675   24.4184 C.ar    1  UNL1       -0.0044
      7 C         -11.3804  -18.2067   23.0145 C.ar    1  UNL1       -0.0202
      8 C         -12.0584  -17.1822   22.1538 C.3     1  UNL1        0.0583
      9 C         -11.3571  -17.1531   20.8282 C.3     1  UNL1        0.1469
     10 O         -10.8668  -16.9027   19.4329 O.3     1  UNL1       -0.3812
     11 H         -11.4110  -16.2157   19.0173 H       1  UNL1        0.2105
     12 C         -12.3660  -16.0943   20.4951 C.3     1  UNL1        0.0967
     13 N         -12.4323  -15.5319   19.1061 N.3     1  UNL1       -0.3191
     14 H         -11.5738  -15.0187   18.9057 H       1  UNL1        0.1189
     15 H         -13.2305  -14.9011   19.0324 H       1  UNL1        0.1189
     16 O          -9.2881  -18.4620   19.7554 O.3     1  UNL1       -0.4726
     17 C          -8.6848  -21.0939   18.4478 C.3     1  UNL1        0.0342
     18 C          -7.6943  -20.4818   19.3934 C.ar    1  UNL1        0.0121
     19 C          -6.4023  -21.1855   19.6854 C.ar    1  UNL1       -0.0013
     20 C          -5.4118  -20.5734   20.6310 C.ar    1  UNL1       -0.0001
     21 C          -5.7134  -19.2574   21.2848 C.ar    1  UNL1        0.0031
     22 C          -7.0055  -18.5537   20.9929 C.ar    1  UNL1        0.0366
     23 C          -7.9959  -19.1659   20.0472 C.ar    1  UNL1        0.1349
@<TRIPOS>BOND
     1    17    18    1
     2    18    19   ar
     3    19    20   ar
     4    20    21   ar
     5    21    22   ar
     6    22    23   ar
     7    23    16    1
     8     1    16    1
     9     1     2    1
    10     2     3   ar
    11     3     4   ar
    12     4     5   ar
    13     5     6   ar
    14     6     7   ar
    15     7     8    1
    16     8     9    1
    17     9    10    1
    18     9    12    1
    19    12    13    1
    20    23    18   ar
    21     9     1    1
    22     7     2   ar
    23    10    11    1
    24    13    14    1
    25    13    15    1
