@<TRIPOS>MOLECULE
*****
 30 32 0 0 0
SMALL
GASTEIGER

@<TRIPOS>ATOM
      1 C          -4.6298  -17.6834   22.3744 C.ar    1  UNL1        0.1329
      2 N          -3.1464  -17.4876   22.4798 N.ar    1  UNL1       -0.1993
      3 C          -2.2136  -18.4351   21.7854 C.ar    1  UNL1        0.2148
      4 N          -0.7301  -18.2393   21.8908 N.pl3   1  UNL1       -0.3274
      5 N          -2.7643  -19.5785   20.9858 N.ar    1  UNL1       -0.2139
      6 C          -4.2477  -19.7743   20.8804 C.ar    1  UNL1        0.0870
      7 C          -4.7984  -20.9176   20.0807 C.ar    1  UNL1        0.0193
      8 C          -6.2818  -21.1134   19.9754 C.ar    1  UNL1        0.0017
      9 C          -7.2145  -20.1659   20.6697 C.ar    1  UNL1        0.0047
     10 C          -6.6639  -19.0226   21.4694 C.ar    1  UNL1        0.0575
     11 C          -5.1805  -18.8268   21.5747 C.ar    1  UNL1        0.0535
     12 H          -0.3688  -17.4888   22.4157 H       1  UNL1        0.1452
     13 H          -0.1179  -18.8612   21.4351 H       1  UNL1        0.1452
     14 C          -7.5967  -18.0750   22.1637 C.2     1  UNL1        0.2462
     15 O          -7.9294  -16.7545   21.5349 O.2     1  UNL1       -0.2701
     16 N          -8.1967  -18.4480   23.4869 N.am    1  UNL1       -0.2969
     17 H          -7.9782  -19.3147   23.8997 H       1  UNL1        0.1501
     18 C          -9.1294  -17.5004   24.1813 C.3     1  UNL1        0.1166
     19 C         -10.5969  -17.5313   23.8721 C.ar    1  UNL1       -0.0026
     20 C         -11.4849  -18.5336   24.5480 C.ar    1  UNL1       -0.0026
     21 C         -12.9524  -18.5644   24.2389 C.ar    1  UNL1       -0.0003
     22 C         -13.5319  -17.5929   23.2538 C.ar    1  UNL1       -0.0000
     23 C         -12.6439  -16.5905   22.5779 C.ar    1  UNL1       -0.0003
     24 C         -11.1764  -16.5597   22.8870 C.ar    1  UNL1       -0.0026
     25 N          -5.5626  -16.7358   23.0688 N.pl3   1  UNL1       -0.3180
     26 H          -6.4599  -16.5694   22.6996 H       1  UNL1        0.1482
     27 C          -5.1281  -16.0418   24.3256 C.3     1  UNL1        0.0882
     28 C          -6.1226  -15.2626   25.1342 C.3     1  UNL1        0.0212
     29 C          -7.6922  -15.6498   27.1680 C.3     1  UNL1        0.0001
     30 C          -6.3101  -15.5694   26.5905 C.3     1  UNL1        0.0017
@<TRIPOS>BOND
     1    29    30    1
     2    30    28    1
     3    28    27    1
     4    27    25    1
     5    25     1    1
     6     1     2   ar
     7     2     3   ar
     8     3     4    1
     9     3     5   ar
    10     5     6   ar
    11     6     7   ar
    12     7     8   ar
    13     8     9   ar
    14     9    10   ar
    15    10    14    1
    16    14    15    2
    17    14    16   am
    18    16    18    1
    19    18    19    1
    20    19    20   ar
    21    20    21   ar
    22    21    22   ar
    23    22    23   ar
    24    23    24   ar
    25    10    11   ar
    26    11     1   ar
    27    11     6   ar
    28    24    19   ar
    29    25    26    1
    30     4    12    1
    31     4    13    1
    32    16    17    1
@<TRIPOS>MOLECULE
*****
 30 32 0 0 0
SMALL
GASTEIGER

@<TRIPOS>ATOM
      1 C          -6.8903  -17.1991   23.2623 C.ar    1  UNL1        0.1329
      2 N          -6.7693  -16.0815   24.2553 N.ar    1  UNL1       -0.1993
      3 C          -5.4159  -15.6471   24.7345 C.ar    1  UNL1        0.2148
      4 N          -5.2950  -14.5294   25.7276 N.pl3   1  UNL1       -0.3274
      5 N          -4.1834  -16.3303   24.2205 N.ar    1  UNL1       -0.2139
      6 C          -4.3043  -17.4480   23.2274 C.ar    1  UNL1        0.0870
      7 C          -3.0718  -18.1312   22.7135 C.ar    1  UNL1        0.0193
      8 C          -3.1928  -19.2489   21.7204 C.ar    1  UNL1        0.0017
      9 C          -4.5462  -19.6833   21.2413 C.ar    1  UNL1        0.0047
     10 C          -5.7787  -19.0001   21.7553 C.ar    1  UNL1        0.0575
     11 C          -5.6577  -17.8824   22.7483 C.ar    1  UNL1        0.0535
     12 H          -6.1040  -14.0809   26.0649 H       1  UNL1        0.1452
     13 H          -4.4068  -14.2442   26.0421 H       1  UNL1        0.1452
     14 C          -7.1321  -19.4345   21.2761 C.2     1  UNL1        0.2462
     15 O          -7.9727  -20.3415   22.1250 O.2     1  UNL1       -0.2701
     16 N          -7.6449  -18.9619   19.9481 N.am    1  UNL1       -0.2969
     17 H          -7.0931  -18.3666   19.3909 H       1  UNL1        0.1501
     18 C          -8.9983  -19.3964   19.4690 C.3     1  UNL1        0.1166
     19 C         -10.2351  -18.8362   20.1067 C.ar    1  UNL1       -0.0026
     20 C         -11.0125  -19.6618   21.0885 C.ar    1  UNL1       -0.0026
     21 C         -12.2493  -19.1016   21.7261 C.ar    1  UNL1       -0.0003
     22 C         -12.7086  -17.7158   21.3820 C.ar    1  UNL1       -0.0000
     23 C         -11.9311  -16.8901   20.4001 C.ar    1  UNL1       -0.0003
     24 C         -10.6944  -17.4503   19.7625 C.ar    1  UNL1       -0.0026
     25 N          -8.2437  -17.6336   22.7832 N.pl3   1  UNL1       -0.3180
     26 H          -8.3246  -18.3839   22.1509 H       1  UNL1        0.1482
     27 C          -9.4738  -16.9249   23.2673 C.3     1  UNL1        0.0882
     28 C         -10.3689  -17.5806   24.2767 C.3     1  UNL1        0.0212
     29 C         -10.2166  -20.1307   24.7499 C.3     1  UNL1        0.0001
     30 C          -9.8551  -18.7194   25.1070 C.3     1  UNL1        0.0017
@<TRIPOS>BOND
     1    29    30    1
     2    30    28    1
     3    28    27    1
     4    27    25    1
     5    25     1    1
     6     1     2   ar
     7     2     3   ar
     8     3     4    1
     9     3     5   ar
    10     5     6   ar
    11     6     7   ar
    12     7     8   ar
    13     8     9   ar
    14     9    10   ar
    15    10    14    1
    16    14    15    2
    17    14    16   am
    18    16    18    1
    19    18    19    1
    20    19    20   ar
    21    20    21   ar
    22    21    22   ar
    23    22    23   ar
    24    23    24   ar
    25    10    11   ar
    26    11     1   ar
    27    11     6   ar
    28    24    19   ar
    29    25    26    1
    30     4    12    1
    31     4    13    1
    32    16    17    1
@<TRIPOS>MOLECULE
*****
 30 32 0 0 0
SMALL
GASTEIGER

@<TRIPOS>ATOM
      1 C          -9.5937  -17.7944   23.3818 C.ar    1  UNL1        0.1329
      2 N         -10.9139  -17.6740   24.0834 N.ar    1  UNL1       -0.1993
      3 C         -12.1586  -18.2046   23.4358 C.ar    1  UNL1        0.2148
      4 N         -13.4789  -18.0841   24.1376 N.pl3   1  UNL1       -0.3274
      5 N         -12.0829  -18.8555   22.0866 N.ar    1  UNL1       -0.2139
      6 C         -10.7626  -18.9759   21.3849 C.ar    1  UNL1        0.0870
      7 C         -10.6870  -19.6269   20.0356 C.ar    1  UNL1        0.0193
      8 C          -9.3667  -19.7473   19.3340 C.ar    1  UNL1        0.0017
      9 C          -8.1221  -19.2167   19.9816 C.ar    1  UNL1        0.0047
     10 C          -8.1977  -18.5657   21.3308 C.ar    1  UNL1        0.0575
     11 C          -9.5180  -18.4454   22.0325 C.ar    1  UNL1        0.0535
     12 H         -13.5285  -17.6569   25.0232 H       1  UNL1        0.1452
     13 H         -14.2958  -18.4324   23.7126 H       1  UNL1        0.1452
     14 C          -6.9531  -18.0352   21.9784 C.2     1  UNL1        0.2462
     15 O          -6.8117  -16.5648   22.2392 O.2     1  UNL1       -0.2701
     16 N          -5.8498  -18.9749   22.3651 N.am    1  UNL1       -0.2969
     17 H          -5.9426  -19.9400   22.1940 H       1  UNL1        0.1501
     18 C          -4.6052  -18.4444   23.0127 C.3     1  UNL1        0.1166
     19 C          -3.4174  -18.0830   22.1709 C.ar    1  UNL1       -0.0026
     20 C          -2.8219  -16.7094   22.2642 C.ar    1  UNL1       -0.0026
     21 C          -1.6341  -16.3481   21.4224 C.ar    1  UNL1       -0.0003
     22 C          -1.0418  -17.3603   20.4873 C.ar    1  UNL1       -0.0000
     23 C          -1.6373  -18.7340   20.3940 C.ar    1  UNL1       -0.0003
     24 C          -2.8250  -19.0953   21.2358 C.ar    1  UNL1       -0.0026
     25 N          -8.3490  -17.2638   24.0293 N.pl3   1  UNL1       -0.3180
     26 H          -7.4883  -17.7210   23.8900 H       1  UNL1        0.1482
     27 C          -8.4157  -16.0366   24.8892 C.3     1  UNL1        0.0882
     28 C          -8.2813  -16.1560   26.3784 C.3     1  UNL1        0.0212
     29 C          -5.8302  -15.3076   26.2294 C.3     1  UNL1        0.0001
     30 C          -7.0075  -15.7397   27.0523 C.3     1  UNL1        0.0017
@<TRIPOS>BOND
     1    29    30    1
     2    30    28    1
     3    28    27    1
     4    27    25    1
     5    25     1    1
     6     1     2   ar
     7     2     3   ar
     8     3     4    1
     9     3     5   ar
    10     5     6   ar
    11     6     7   ar
    12     7     8   ar
    13     8     9   ar
    14     9    10   ar
    15    10    14    1
    16    14    15    2
    17    14    16   am
    18    16    18    1
    19    18    19    1
    20    19    20   ar
    21    20    21   ar
    22    21    22   ar
    23    22    23   ar
    24    23    24   ar
    25    10    11   ar
    26    11     1   ar
    27    11     6   ar
    28    24    19   ar
    29    25    26    1
    30     4    12    1
    31     4    13    1
    32    16    17    1
@<TRIPOS>MOLECULE
*****
 30 32 0 0 0
SMALL
GASTEIGER

@<TRIPOS>ATOM
      1 C          -7.4530  -17.7213   22.4564 C.ar    1  UNL1        0.1329
      2 N          -7.8461  -16.7193   23.5010 N.ar    1  UNL1       -0.1993
      3 C          -9.2602  -16.2236   23.5703 C.ar    1  UNL1        0.2148
      4 N          -9.6533  -15.2215   24.6150 N.pl3   1  UNL1       -0.3274
      5 N         -10.2810  -16.7298   22.5948 N.ar    1  UNL1       -0.2139
      6 C          -9.8878  -17.7319   21.5501 C.ar    1  UNL1        0.0870
      7 C         -10.9087  -18.2381   20.5746 C.ar    1  UNL1        0.0193
      8 C         -10.5155  -19.2401   19.5299 C.ar    1  UNL1        0.0017
      9 C          -9.1015  -19.7358   19.4607 C.ar    1  UNL1        0.0047
     10 C          -8.0806  -19.2296   20.4362 C.ar    1  UNL1        0.0575
     11 C          -8.4738  -18.2276   21.4808 C.ar    1  UNL1        0.0535
     12 H          -8.9833  -14.8893   25.2552 H       1  UNL1        0.1452
     13 H         -10.5814  -14.8962   24.6605 H       1  UNL1        0.1452
     14 C          -6.6666  -19.7253   20.3669 C.2     1  UNL1        0.2462
     15 O          -6.2126  -20.8269   21.2782 O.2     1  UNL1       -0.2701
     16 N          -5.7066  -19.1195   19.3865 N.am    1  UNL1       -0.2969
     17 H          -6.0046  -18.3964   18.7884 H       1  UNL1        0.1501
     18 C          -4.2926  -19.6152   19.3173 C.3     1  UNL1        0.1166
     19 C          -3.2005  -18.8681   20.0239 C.ar    1  UNL1       -0.0026
     20 C          -2.7347  -19.3216   21.3757 C.ar    1  UNL1       -0.0026
     21 C          -1.6426  -18.5745   22.0823 C.ar    1  UNL1       -0.0003
     22 C          -1.0163  -17.3739   21.4371 C.ar    1  UNL1       -0.0000
     23 C          -1.4821  -16.9204   20.0852 C.ar    1  UNL1       -0.0003
     24 C          -2.5742  -17.6675   19.3787 C.ar    1  UNL1       -0.0026
     25 N          -6.0389  -18.2170   22.3871 N.pl3   1  UNL1       -0.3180
     26 H          -5.7590  -18.8050   21.6488 H       1  UNL1        0.1482
     27 C          -5.0514  -17.8169   23.4428 C.3     1  UNL1        0.0882
     28 C          -4.4107  -16.4614   23.3954 C.3     1  UNL1        0.0212
     29 C          -5.2725  -15.3711   25.5905 C.3     1  UNL1        0.0001
     30 C          -5.0471  -15.3056   24.1090 C.3     1  UNL1        0.0017
@<TRIPOS>BOND
     1    29    30    1
     2    30    28    1
     3    28    27    1
     4    27    25    1
     5    25     1    1
     6     1     2   ar
     7     2     3   ar
     8     3     4    1
     9     3     5   ar
    10     5     6   ar
    11     6     7   ar
    12     7     8   ar
    13     8     9   ar
    14     9    10   ar
    15    10    14    1
    16    14    15    2
    17    14    16   am
    18    16    18    1
    19    18    19    1
    20    19    20   ar
    21    20    21   ar
    22    21    22   ar
    23    22    23   ar
    24    23    24   ar
    25    10    11   ar
    26    11     1   ar
    27    11     6   ar
    28    24    19   ar
    29    25    26    1
    30     4    12    1
    31     4    13    1
    32    16    17    1
@<TRIPOS>MOLECULE
*****
 30 32 0 0 0
SMALL
GASTEIGER

@<TRIPOS>ATOM
      1 C         -13.4042   -4.7030   17.9400 C.ar    1  UNL1        0.1329
      2 N         -13.6160   -3.2193   18.0000 N.ar    1  UNL1       -0.1993
      3 C         -12.4996   -2.3194   18.4403 C.ar    1  UNL1        0.2148
      4 N         -12.7115   -0.8356   18.5002 N.pl3   1  UNL1       -0.3274
      5 N         -11.1713   -2.9033   18.8205 N.ar    1  UNL1       -0.2139
      6 C         -10.9594   -4.3871   18.7605 C.ar    1  UNL1        0.0870
      7 C          -9.6311   -4.9710   19.1408 C.ar    1  UNL1        0.0193
      8 C          -9.4192   -6.4547   19.0808 C.ar    1  UNL1        0.0017
      9 C         -10.5357   -7.3546   18.6406 C.ar    1  UNL1        0.0047
     10 C         -11.8640   -6.7707   18.2603 C.ar    1  UNL1        0.0575
     11 C         -12.0758   -5.2870   18.3203 C.ar    1  UNL1        0.0535
     12 H         -13.5833   -0.4524   18.2507 H       1  UNL1        0.1452
     13 H         -11.9787   -0.2450   18.7892 H       1  UNL1        0.1452
     14 C         -12.9805   -7.6705   17.8201 C.2     1  UNL1        0.2462
     15 O         -13.2783   -7.8365   16.3594 O.2     1  UNL1       -0.2701
     16 N         -13.7990   -8.4043   18.8405 N.am    1  UNL1       -0.2969
     17 H         -13.6036   -8.2954   19.7993 H       1  UNL1        0.1501
     18 C         -14.9155   -9.3042   18.4003 C.3     1  UNL1        0.1166
     19 C         -16.3407   -8.9074   18.6483 C.ar    1  UNL1       -0.0026
     20 C         -17.2685   -8.6815   17.4915 C.ar    1  UNL1       -0.0026
     21 C         -18.6937   -8.2847   17.7394 C.ar    1  UNL1       -0.0003
     22 C         -19.1911   -8.1138   19.1442 C.ar    1  UNL1       -0.0000
     23 C         -18.2632   -8.3398   20.3010 C.ar    1  UNL1       -0.0003
     24 C         -16.8381   -8.7365   20.0530 C.ar    1  UNL1       -0.0026
     25 N         -14.5207   -5.6028   17.4998 N.pl3   1  UNL1       -0.3180
     26 H         -14.3227   -6.4132   16.9769 H       1  UNL1        0.1482
     27 C         -15.9387   -5.2680   17.8562 C.3     1  UNL1        0.0882
     28 C         -16.3615   -5.2305   19.2949 C.3     1  UNL1        0.0212
     29 C         -18.8327   -4.5004   19.6274 C.3     1  UNL1        0.0001
     30 C         -17.3655   -4.2155   19.7553 C.3     1  UNL1        0.0017
@<TRIPOS>BOND
     1    29    30    1
     2    30    28    1
     3    28    27    1
     4    27    25    1
     5    25     1    1
     6     1     2   ar
     7     2     3   ar
     8     3     4    1
     9     3     5   ar
    10     5     6   ar
    11     6     7   ar
    12     7     8   ar
    13     8     9   ar
    14     9    10   ar
    15    10    14    1
    16    14    15    2
    17    14    16   am
    18    16    18    1
    19    18    19    1
    20    19    20   ar
    21    20    21   ar
    22    21    22   ar
    23    22    23   ar
    24    23    24   ar
    25    10    11   ar
    26    11     1   ar
    27    11     6   ar
    28    24    19   ar
    29    25    26    1
    30     4    12    1
    31     4    13    1
    32    16    17    1
@<TRIPOS>MOLECULE
*****
 30 32 0 0 0
SMALL
GASTEIGER

@<TRIPOS>ATOM
      1 C          -7.0746  -17.6203   22.3323 C.ar    1  UNL1        0.1329
      2 N          -6.3489  -16.6827   23.2512 N.ar    1  UNL1       -0.1993
      3 C          -4.8742  -16.8425   23.4739 C.ar    1  UNL1        0.2148
      4 N          -4.1485  -15.9048   24.3928 N.pl3   1  UNL1       -0.3274
      5 N          -4.1251  -17.9398   22.7778 N.ar    1  UNL1       -0.2139
      6 C          -4.8507  -18.8775   21.8589 C.ar    1  UNL1        0.0870
      7 C          -4.1017  -19.9749   21.1629 C.ar    1  UNL1        0.0193
      8 C          -4.8273  -20.9125   20.2440 C.ar    1  UNL1        0.0017
      9 C          -6.3021  -20.7527   20.0213 C.ar    1  UNL1        0.0047
     10 C          -7.0511  -19.6553   20.7174 C.ar    1  UNL1        0.0575
     11 C          -6.3255  -18.7177   21.6362 C.ar    1  UNL1        0.0535
     12 H          -4.6402  -15.1845   24.8497 H       1  UNL1        0.1452
     13 H          -3.1806  -16.0096   24.5390 H       1  UNL1        0.1452
     14 C          -8.5259  -19.4955   20.4946 C.2     1  UNL1        0.2462
     15 O          -9.0259  -18.6606   19.3532 O.2     1  UNL1       -0.2701
     16 N          -9.5006  -20.1706   21.4133 N.am    1  UNL1       -0.2969
     17 H          -9.1725  -20.7186   22.1625 H       1  UNL1        0.1501
     18 C         -10.9754  -20.0108   21.1906 C.3     1  UNL1        0.1166
     19 C         -11.6628  -18.7424   21.6012 C.ar    1  UNL1       -0.0026
     20 C         -12.1983  -18.5968   22.9947 C.ar    1  UNL1       -0.0026
     21 C         -12.8857  -17.3283   23.4053 C.ar    1  UNL1       -0.0003
     22 C         -13.0376  -16.2055   22.4224 C.ar    1  UNL1       -0.0000
     23 C         -12.5021  -16.3512   21.0288 C.ar    1  UNL1       -0.0003
     24 C         -11.8147  -17.6196   20.6182 C.ar    1  UNL1       -0.0026
     25 N          -8.5493  -17.4605   22.1096 N.pl3   1  UNL1       -0.3180
     26 H          -9.0207  -18.0592   21.4863 H       1  UNL1        0.1482
     27 C          -9.3058  -16.3885   22.8366 C.3     1  UNL1        0.0882
     28 C          -9.4561  -16.4562   24.3275 C.3     1  UNL1        0.0212
     29 C          -8.2656  -15.7587   26.5290 C.3     1  UNL1        0.0001
     30 C          -8.8411  -15.3958   25.1922 C.3     1  UNL1        0.0017
@<TRIPOS>BOND
     1    29    30    1
     2    30    28    1
     3    28    27    1
     4    27    25    1
     5    25     1    1
     6     1     2   ar
     7     2     3   ar
     8     3     4    1
     9     3     5   ar
    10     5     6   ar
    11     6     7   ar
    12     7     8   ar
    13     8     9   ar
    14     9    10   ar
    15    10    14    1
    16    14    15    2
    17    14    16   am
    18    16    18    1
    19    18    19    1
    20    19    20   ar
    21    20    21   ar
    22    21    22   ar
    23    22    23   ar
    24    23    24   ar
    25    10    11   ar
    26    11     1   ar
    27    11     6   ar
    28    24    19   ar
    29    25    26    1
    30     4    12    1
    31     4    13    1
    32    16    17    1
@<TRIPOS>MOLECULE
*****
 30 32 0 0 0
SMALL
GASTEIGER

@<TRIPOS>ATOM
      1 C         -15.4575   -8.1813   18.9974 C.ar    1  UNL1        0.1329
      2 N         -15.5673   -9.6771   18.9761 N.ar    1  UNL1       -0.1993
      3 C         -16.9037  -10.3337   19.1579 C.ar    1  UNL1        0.2148
      4 N         -17.0134  -11.8295   19.1366 N.pl3   1  UNL1       -0.3274
      5 N         -18.1302   -9.4945   19.3611 N.ar    1  UNL1       -0.2139
      6 C         -18.0204   -7.9986   19.3824 C.ar    1  UNL1        0.0870
      7 C         -19.2469   -7.1594   19.5856 C.ar    1  UNL1        0.0193
      8 C         -19.1371   -5.6636   19.6069 C.ar    1  UNL1        0.0017
      9 C         -17.8008   -5.0070   19.4251 C.ar    1  UNL1        0.0047
     10 C         -16.5742   -5.8462   19.2219 C.ar    1  UNL1        0.0575
     11 C         -16.6841   -7.3420   19.2006 C.ar    1  UNL1        0.0535
     12 H         -16.2084  -12.3803   19.0032 H       1  UNL1        0.1452
     13 H         -17.8905  -12.2605   19.2560 H       1  UNL1        0.1452
     14 C         -15.2379   -5.1896   19.0400 C.2     1  UNL1        0.2462
     15 O         -14.6674   -5.0186   17.6633 O.2     1  UNL1       -0.2701
     16 N         -14.4720   -4.7040   20.2348 N.am    1  UNL1       -0.2969
     17 H         -14.8465   -4.8162   21.1384 H       1  UNL1        0.1501
     18 C         -13.1357   -4.0474   20.0529 C.3     1  UNL1        0.1166
     19 C         -13.0471   -2.6886   19.4237 C.ar    1  UNL1       -0.0026
     20 C         -14.2725   -1.8302   19.3170 C.ar    1  UNL1       -0.0026
     21 C         -14.1839   -0.4714   18.6878 C.ar    1  UNL1       -0.0003
     22 C         -12.8699    0.0289   18.1653 C.ar    1  UNL1       -0.0000
     23 C         -11.6445   -0.8296   18.2720 C.ar    1  UNL1       -0.0003
     24 C         -11.7331   -2.1883   18.9012 C.ar    1  UNL1       -0.0026
     25 N         -14.1212   -7.5247   18.8155 N.pl3   1  UNL1       -0.3180
     26 H         -13.8615   -6.7692   19.3909 H       1  UNL1        0.1482
     27 C         -13.1804   -8.0192   17.7570 C.3     1  UNL1        0.0882
     28 C         -11.8628   -7.3342   17.5452 C.3     1  UNL1        0.0212
     29 C          -9.6300   -7.2957   18.8731 C.3     1  UNL1        0.0001
     30 C         -11.0607   -6.8700   18.7247 C.3     1  UNL1        0.0017
@<TRIPOS>BOND
     1    29    30    1
     2    30    28    1
     3    28    27    1
     4    27    25    1
     5    25     1    1
     6     1     2   ar
     7     2     3   ar
     8     3     4    1
     9     3     5   ar
    10     5     6   ar
    11     6     7   ar
    12     7     8   ar
    13     8     9   ar
    14     9    10   ar
    15    10    14    1
    16    14    15    2
    17    14    16   am
    18    16    18    1
    19    18    19    1
    20    19    20   ar
    21    20    21   ar
    22    21    22   ar
    23    22    23   ar
    24    23    24   ar
    25    10    11   ar
    26    11     1   ar
    27    11     6   ar
    28    24    19   ar
    29    25    26    1
    30     4    12    1
    31     4    13    1
    32    16    17    1
@<TRIPOS>MOLECULE
*****
 30 32 0 0 0
SMALL
GASTEIGER

@<TRIPOS>ATOM
      1 C         -15.0330   -7.0485   19.0731 C.ar    1  UNL1        0.1329
      2 N         -15.0025   -8.5309   18.8466 N.ar    1  UNL1       -0.1993
      3 C         -16.2820   -9.3137   18.8310 C.ar    1  UNL1        0.2148
      4 N         -16.2515  -10.7962   18.6044 N.pl3   1  UNL1       -0.3274
      5 N         -17.5919   -8.6141   19.0419 N.ar    1  UNL1       -0.2139
      6 C         -17.6224   -7.1315   19.2685 C.ar    1  UNL1        0.0870
      7 C         -18.9324   -6.4319   19.4794 C.ar    1  UNL1        0.0193
      8 C         -18.9628   -4.9494   19.7060 C.ar    1  UNL1        0.0017
      9 C         -17.6834   -4.1666   19.7216 C.ar    1  UNL1        0.0047
     10 C         -16.3735   -4.8663   19.5106 C.ar    1  UNL1        0.0575
     11 C         -16.3430   -6.3487   19.2841 C.ar    1  UNL1        0.0535
     12 H         -15.3917  -11.2554   18.4659 H       1  UNL1        0.1452
     13 H         -17.0912  -11.3100   18.5942 H       1  UNL1        0.1452
     14 C         -15.0940   -4.0835   19.5262 C.2     1  UNL1        0.2462
     15 O         -14.2599   -4.0344   20.7719 O.2     1  UNL1       -0.2701
     16 N         -14.6486   -3.3497   18.2961 N.am    1  UNL1       -0.2969
     17 H         -15.1961   -3.3819   17.4785 H       1  UNL1        0.1501
     18 C         -13.3692   -2.5669   18.3117 C.3     1  UNL1        0.1166
     19 C         -12.0885   -3.2143   17.8748 C.ar    1  UNL1       -0.0026
     20 C         -11.0244   -3.5284   18.8843 C.ar    1  UNL1       -0.0026
     21 C          -9.7437   -4.1758   18.4474 C.ar    1  UNL1       -0.0003
     22 C          -9.5272   -4.5090   17.0010 C.ar    1  UNL1       -0.0000
     23 C         -10.5914   -4.1949   15.9915 C.ar    1  UNL1       -0.0003
     24 C         -11.8720   -3.5476   16.4284 C.ar    1  UNL1       -0.0026
     25 N         -13.7536   -6.2657   19.0887 N.pl3   1  UNL1       -0.3180
     26 H         -13.7774   -5.2853   19.1752 H       1  UNL1        0.1482
     27 C         -12.4379   -6.9766   18.9725 C.3     1  UNL1        0.0882
     28 C         -11.9053   -7.3525   17.6216 C.3     1  UNL1        0.0212
     29 C          -9.5746   -7.8537   18.6546 C.3     1  UNL1        0.0001
     30 C         -10.5191   -7.9107   17.4907 C.3     1  UNL1        0.0017
@<TRIPOS>BOND
     1    29    30    1
     2    30    28    1
     3    28    27    1
     4    27    25    1
     5    25     1    1
     6     1     2   ar
     7     2     3   ar
     8     3     4    1
     9     3     5   ar
    10     5     6   ar
    11     6     7   ar
    12     7     8   ar
    13     8     9   ar
    14     9    10   ar
    15    10    14    1
    16    14    15    2
    17    14    16   am
    18    16    18    1
    19    18    19    1
    20    19    20   ar
    21    20    21   ar
    22    21    22   ar
    23    22    23   ar
    24    23    24   ar
    25    10    11   ar
    26    11     1   ar
    27    11     6   ar
    28    24    19   ar
    29    25    26    1
    30     4    12    1
    31     4    13    1
    32    16    17    1
@<TRIPOS>MOLECULE
*****
 30 32 0 0 0
SMALL
GASTEIGER

@<TRIPOS>ATOM
      1 C         -15.7312   -5.1944   18.2548 C.ar    1  UNL1        0.1329
      2 N         -16.5301   -3.9273   18.3331 N.ar    1  UNL1       -0.1993
      3 C         -17.8806   -3.9313   18.9858 C.ar    1  UNL1        0.2148
      4 N         -18.6795   -2.6641   19.0640 N.pl3   1  UNL1       -0.3274
      5 N         -18.4323   -5.2023   19.5602 N.ar    1  UNL1       -0.2139
      6 C         -17.6334   -6.4695   19.4820 C.ar    1  UNL1        0.0870
      7 C         -18.1851   -7.7406   20.0565 C.ar    1  UNL1        0.0193
      8 C         -17.3862   -9.0077   19.9782 C.ar    1  UNL1        0.0017
      9 C         -16.0356   -9.0037   19.3255 C.ar    1  UNL1        0.0047
     10 C         -15.4840   -7.7327   18.7511 C.ar    1  UNL1        0.0575
     11 C         -16.2829   -6.4656   18.8293 C.ar    1  UNL1        0.0535
     12 H         -18.3174   -1.8298   18.6870 H       1  UNL1        0.1452
     13 H         -19.5659   -2.6666   19.4924 H       1  UNL1        0.1452
     14 C         -14.1334   -7.7288   18.0984 C.2     1  UNL1        0.2462
     15 O         -14.0228   -7.7799   16.6034 O.2     1  UNL1       -0.2701
     16 N         -12.8935   -7.6737   18.9407 N.am    1  UNL1       -0.2969
     17 H         -12.9661   -7.6402   19.9219 H       1  UNL1        0.1501
     18 C         -11.5430   -7.6698   18.2880 C.3     1  UNL1        0.1166
     19 C         -10.8925   -6.3697   17.9181 C.ar    1  UNL1       -0.0026
     20 C         -10.9011   -5.9059   16.4916 C.ar    1  UNL1       -0.0026
     21 C         -10.2507   -4.6058   16.1217 C.ar    1  UNL1       -0.0003
     22 C          -9.5917   -3.7695   17.1783 C.ar    1  UNL1       -0.0000
     23 C          -9.5831   -4.2334   18.6048 C.ar    1  UNL1       -0.0003
     24 C         -10.2335   -5.5334   18.9747 C.ar    1  UNL1       -0.0026
     25 N         -14.3807   -5.1905   17.6021 N.pl3   1  UNL1       -0.3180
     26 H         -13.9567   -6.0404   17.3430 H       1  UNL1        0.1482
     27 C         -13.6761   -3.8917   17.3442 C.3     1  UNL1        0.0882
     28 C         -13.1305   -3.0937   18.4913 C.3     1  UNL1        0.0212
     29 C         -13.9078   -3.1830   20.9688 C.3     1  UNL1        0.0001
     30 C         -13.0461   -3.7061   19.8580 C.3     1  UNL1        0.0017
@<TRIPOS>BOND
     1    29    30    1
     2    30    28    1
     3    28    27    1
     4    27    25    1
     5    25     1    1
     6     1     2   ar
     7     2     3   ar
     8     3     4    1
     9     3     5   ar
    10     5     6   ar
    11     6     7   ar
    12     7     8   ar
    13     8     9   ar
    14     9    10   ar
    15    10    14    1
    16    14    15    2
    17    14    16   am
    18    16    18    1
    19    18    19    1
    20    19    20   ar
    21    20    21   ar
    22    21    22   ar
    23    22    23   ar
    24    23    24   ar
    25    10    11   ar
    26    11     1   ar
    27    11     6   ar
    28    24    19   ar
    29    25    26    1
    30     4    12    1
    31     4    13    1
    32    16    17    1
