@<TRIPOS>MOLECULE
*****
 14 15 0 0 0
SMALL
GASTEIGER

@<TRIPOS>ATOM
      1 C          -7.2579  -18.9361   20.9970 C.2     1  UNL1        0.1898
      2 N          -6.3270  -18.8385   19.8250 N.2     1  UNL1       -0.2199
      3 C          -4.9212  -18.9251   20.3410 C.2     1  UNL1        0.1003
      4 C          -3.5926  -18.8858   19.6459 C.2     1  UNL1        0.0569
      5 C          -2.3262  -18.9977   20.4418 C.2     1  UNL1        0.1364
      6 C          -2.3883  -19.1488   21.9329 C.2     1  UNL1        0.0172
      7 C          -3.7169  -19.1880   22.6280 C.3     1  UNL1        0.0765
      8 C          -4.9833  -19.0762   21.8321 C.2     1  UNL1        0.0833
      9 N          -6.4275  -19.0830   22.2375 N.2     1  UNL1       -0.2238
     10 O          -0.9975  -18.9585   19.7467 O.2     1  UNL1       -0.4717
     11 C          -0.0688  -17.8016   19.9687 C.3     1  UNL1        0.2525
     12 S          -8.7562  -18.8942   20.9389 S.3     1  UNL1       -0.0757
     13 C         -10.9255  -19.9600   21.8918 C.3     1  UNL1        0.0130
     14 C          -9.5658  -19.3656   22.1103 C.3     1  UNL1        0.0652
@<TRIPOS>BOND
     1    13    14    1
     2    14    12    1
     3    12     1    1
     4     1     2    2
     5     2     3    1
     6     3     4    2
     7     4     5    1
     8     5    10    1
     9    10    11    1
    10     5     6    2
    11     6     7    1
    12     7     8    1
    13     8     9    2
    14     9     1    1
    15     8     3    1
@<TRIPOS>MOLECULE
*****
 14 15 0 0 0
SMALL
GASTEIGER

@<TRIPOS>ATOM
      1 C          -7.8968  -19.1168   21.8082 C.2     1  UNL1        0.1898
      2 N          -8.7199  -19.1390   23.0619 N.2     1  UNL1       -0.2199
      3 C         -10.1017  -18.6676   22.7177 C.2     1  UNL1        0.1003
      4 C         -11.3358  -18.4834   23.5502 C.2     1  UNL1        0.0569
      5 C         -12.6007  -17.9855   22.9162 C.2     1  UNL1        0.1364
      6 C         -12.6315  -17.6719   21.4497 C.2     1  UNL1        0.0172
      7 C         -11.3974  -17.8561   20.6172 C.3     1  UNL1        0.0765
      8 C         -10.1325  -18.3539   21.2512 C.2     1  UNL1        0.0833
      9 N          -8.7698  -18.6316   20.6891 N.2     1  UNL1       -0.2238
     10 O         -13.8349  -17.8013   23.7487 O.2     1  UNL1       -0.4717
     11 C         -13.9424  -18.4679   25.0881 C.3     1  UNL1        0.2525
     12 S          -6.4539  -19.5106   21.6936 S.3     1  UNL1       -0.0757
     13 C          -4.6142  -20.4961   20.1463 C.3     1  UNL1        0.0130
     14 C          -6.0271  -20.4999   20.6501 C.3     1  UNL1        0.0652
@<TRIPOS>BOND
     1    13    14    1
     2    14    12    1
     3    12     1    1
     4     1     2    2
     5     2     3    1
     6     3     4    2
     7     4     5    1
     8     5    10    1
     9    10    11    1
    10     5     6    2
    11     6     7    1
    12     7     8    1
    13     8     9    2
    14     9     1    1
    15     8     3    1
@<TRIPOS>MOLECULE
*****
 14 15 0 0 0
SMALL
GASTEIGER

@<TRIPOS>ATOM
      1 C          -6.3413  -19.2024   21.2777 C.2     1  UNL1        0.1898
      2 N          -7.3333  -18.1397   20.9084 N.2     1  UNL1       -0.2199
      3 C          -8.5992  -18.4029   21.6687 C.2     1  UNL1        0.1003
      4 C          -9.9157  -17.6850   21.7053 C.2     1  UNL1        0.0569
      5 C         -11.0226  -18.1925   22.5812 C.2     1  UNL1        0.1364
      6 C         -10.8130  -19.4180   23.4205 C.2     1  UNL1        0.0172
      7 C          -9.4964  -20.1358   23.3839 C.3     1  UNL1        0.0765
      8 C          -8.3896  -19.6283   22.5080 C.2     1  UNL1        0.0833
      9 N          -6.9941  -20.1224   22.2663 N.2     1  UNL1       -0.2238
     10 O         -12.3392  -17.4746   22.6178 O.2     1  UNL1       -0.4717
     11 C         -13.4060  -17.9129   23.5770 C.3     1  UNL1        0.2525
     12 S          -4.9421  -19.3239   20.7508 S.3     1  UNL1       -0.0757
     13 C          -2.4516  -19.7018   21.3868 C.3     1  UNL1        0.0130
     14 C          -3.7749  -19.0470   21.6514 C.3     1  UNL1        0.0652
@<TRIPOS>BOND
     1    13    14    1
     2    14    12    1
     3    12     1    1
     4     1     2    2
     5     2     3    1
     6     3     4    2
     7     4     5    1
     8     5    10    1
     9    10    11    1
    10     5     6    2
    11     6     7    1
    12     7     8    1
    13     8     9    2
    14     9     1    1
    15     8     3    1
@<TRIPOS>MOLECULE
*****
 14 15 0 0 0
SMALL
GASTEIGER

@<TRIPOS>ATOM
      1 C          -7.6145  -18.5461   22.3415 C.2     1  UNL1        0.1898
      2 N          -6.2650  -17.9619   22.6374 N.2     1  UNL1       -0.2199
      3 C          -5.2439  -18.7348   21.8564 C.2     1  UNL1        0.1003
      4 C          -3.7528  -18.6088   21.7536 C.2     1  UNL1        0.0569
      5 C          -2.9801  -19.5447   20.8721 C.2     1  UNL1        0.1364
      6 C          -3.6985  -20.6065   20.0934 C.2     1  UNL1        0.0172
      7 C          -5.1896  -20.7325   20.1962 C.3     1  UNL1        0.0765
      8 C          -5.9623  -19.7966   21.0777 C.2     1  UNL1        0.0833
      9 N          -7.4274  -19.6800   21.3775 N.2     1  UNL1       -0.2238
     10 O          -1.4889  -19.4188   20.7693 O.2     1  UNL1       -0.4717
     11 C          -0.8840  -18.3233   19.9422 C.3     1  UNL1        0.2525
     12 S          -8.9215  -18.0784   22.9098 S.3     1  UNL1       -0.0757
     13 C         -10.6874  -19.9790   23.0496 C.3     1  UNL1        0.0130
     14 C          -9.7611  -19.0139   23.7283 C.3     1  UNL1        0.0652
@<TRIPOS>BOND
     1    13    14    1
     2    14    12    1
     3    12     1    1
     4     1     2    2
     5     2     3    1
     6     3     4    2
     7     4     5    1
     8     5    10    1
     9    10    11    1
    10     5     6    2
    11     6     7    1
    12     7     8    1
    13     8     9    2
    14     9     1    1
    15     8     3    1
@<TRIPOS>MOLECULE
*****
 14 15 0 0 0
SMALL
GASTEIGER

@<TRIPOS>ATOM
      1 C          -6.7267  -19.1366   21.4947 C.2     1  UNL1        0.1898
      2 N          -7.6673  -19.9269   22.3553 N.2     1  UNL1       -0.2199
      3 C          -8.8472  -19.0568   22.6727 C.2     1  UNL1        0.1003
      4 C         -10.0868  -19.3023   23.4809 C.2     1  UNL1        0.0569
      5 C         -11.1150  -18.2197   23.6246 C.2     1  UNL1        0.1364
      6 C         -10.9037  -16.8916   22.9600 C.2     1  UNL1        0.0172
      7 C          -9.6642  -16.6462   22.1518 C.3     1  UNL1        0.0765
      8 C          -8.6359  -17.7288   22.0081 C.2     1  UNL1        0.0833
      9 N          -7.3254  -17.7781   21.2801 N.2     1  UNL1       -0.2238
     10 O         -12.3546  -18.4651   24.4329 O.2     1  UNL1       -0.4717
     11 C         -13.6890  -18.0176   23.9141 C.3     1  UNL1        0.2525
     12 S          -5.4174  -19.6199   20.9451 S.3     1  UNL1       -0.0757
     13 C          -3.9371  -18.6429   22.8436 C.3     1  UNL1        0.0130
     14 C          -4.1348  -18.9869   21.3970 C.3     1  UNL1        0.0652
@<TRIPOS>BOND
     1    13    14    1
     2    14    12    1
     3    12     1    1
     4     1     2    2
     5     2     3    1
     6     3     4    2
     7     4     5    1
     8     5    10    1
     9    10    11    1
    10     5     6    2
    11     6     7    1
    12     7     8    1
    13     8     9    2
    14     9     1    1
    15     8     3    1
@<TRIPOS>MOLECULE
*****
 14 15 0 0 0
SMALL
GASTEIGER

@<TRIPOS>ATOM
      1 C          -7.6947  -18.3341   22.3880 C.2     1  UNL1        0.1898
      2 N          -6.3174  -17.8125   22.6724 N.2     1  UNL1       -0.2199
      3 C          -5.3373  -18.6482   21.9038 C.2     1  UNL1        0.1003
      4 C          -3.8419  -18.5980   21.7974 C.2     1  UNL1        0.0569
      5 C          -3.1181  -19.5860   20.9315 C.2     1  UNL1        0.1364
      6 C          -3.8896  -20.6243   20.1720 C.2     1  UNL1        0.0172
      7 C          -5.3849  -20.6745   20.2784 C.3     1  UNL1        0.0765
      8 C          -6.1088  -19.6865   21.1443 C.2     1  UNL1        0.0833
      9 N          -7.5657  -19.4923   21.4435 N.2     1  UNL1       -0.2238
     10 O          -1.6226  -19.5358   20.8250 O.2     1  UNL1       -0.4717
     11 C          -0.9643  -18.4604   20.0126 C.3     1  UNL1        0.2525
     12 S          -8.9760  -17.7927   22.9493 S.3     1  UNL1       -0.0757
     13 C          -8.8509  -16.0167   24.8414 C.3     1  UNL1        0.0130
     14 C          -9.0541  -16.3629   23.3961 C.3     1  UNL1        0.0652
@<TRIPOS>BOND
     1    13    14    1
     2    14    12    1
     3    12     1    1
     4     1     2    2
     5     2     3    1
     6     3     4    2
     7     4     5    1
     8     5    10    1
     9    10    11    1
    10     5     6    2
    11     6     7    1
    12     7     8    1
    13     8     9    2
    14     9     1    1
    15     8     3    1
@<TRIPOS>MOLECULE
*****
 14 15 0 0 0
SMALL
GASTEIGER

@<TRIPOS>ATOM
      1 C         -10.0719  -17.7409   20.6388 C.2     1  UNL1        0.1898
      2 N          -9.0763  -17.3619   21.6948 N.2     1  UNL1       -0.2199
      3 C          -7.8922  -18.2733   21.5641 C.2     1  UNL1        0.1003
      4 C          -6.6079  -18.3669   22.3333 C.2     1  UNL1        0.0569
      5 C          -5.5873  -19.4028   21.9657 C.2     1  UNL1        0.1364
      6 C          -5.8510  -20.3452   20.8288 C.2     1  UNL1        0.0172
      7 C          -7.1353  -20.2516   20.0596 C.3     1  UNL1        0.0765
      8 C          -8.1559  -19.2157   20.4272 C.2     1  UNL1        0.0833
      9 N          -9.5030  -18.8866   19.8554 N.2     1  UNL1       -0.2238
     10 O          -4.3029  -19.4964   22.7349 O.2     1  UNL1       -0.4717
     11 C          -2.9907  -19.4814   22.0083 C.3     1  UNL1        0.2525
     12 S         -11.4027  -17.0888   20.4070 S.3     1  UNL1       -0.0757
     13 C         -12.3058  -18.0684   22.6374 C.3     1  UNL1        0.0130
     14 C         -12.5505  -17.3784   21.3281 C.3     1  UNL1        0.0652
@<TRIPOS>BOND
     1    13    14    1
     2    14    12    1
     3    12     1    1
     4     1     2    2
     5     2     3    1
     6     3     4    2
     7     4     5    1
     8     5    10    1
     9    10    11    1
    10     5     6    2
    11     6     7    1
    12     7     8    1
    13     8     9    2
    14     9     1    1
    15     8     3    1
@<TRIPOS>MOLECULE
*****
 14 15 0 0 0
SMALL
GASTEIGER

@<TRIPOS>ATOM
      1 C          -5.8323  -19.1879   21.6033 C.2     1  UNL1        0.1898
      2 N          -6.9528  -18.5045   22.3295 N.2     1  UNL1       -0.2199
      3 C          -8.1967  -18.6490   21.5038 C.2     1  UNL1        0.1003
      4 C          -9.6042  -18.1768   21.7182 C.2     1  UNL1        0.0569
      5 C         -10.6599  -18.4772   20.6960 C.2     1  UNL1        0.1364
      6 C         -10.3082  -19.2499   19.4593 C.2     1  UNL1        0.0172
      7 C          -8.9008  -19.7221   19.2449 C.3     1  UNL1        0.0765
      8 C          -7.8450  -19.4217   20.2672 C.2     1  UNL1        0.0833
      9 N          -6.3837  -19.7547   20.3287 N.2     1  UNL1       -0.2238
     10 O         -12.0675  -18.0050   20.9103 O.2     1  UNL1       -0.4717
     11 C         -12.3647  -16.5360   20.9709 C.3     1  UNL1        0.2525
     12 S          -4.4101  -19.2871   22.0697 S.3     1  UNL1       -0.0757
     13 C          -2.0722  -19.0104   20.9708 C.3     1  UNL1        0.0130
     14 C          -3.3472  -19.7834   21.1350 C.3     1  UNL1        0.0652
@<TRIPOS>BOND
     1    13    14    1
     2    14    12    1
     3    12     1    1
     4     1     2    2
     5     2     3    1
     6     3     4    2
     7     4     5    1
     8     5    10    1
     9    10    11    1
    10     5     6    2
    11     6     7    1
    12     7     8    1
    13     8     9    2
    14     9     1    1
    15     8     3    1
@<TRIPOS>MOLECULE
*****
 14 15 0 0 0
SMALL
GASTEIGER

@<TRIPOS>ATOM
      1 C          -5.8308  -16.0530   23.7578 C.2     1  UNL1        0.1898
      2 N          -4.4196  -15.6952   23.3966 N.2     1  UNL1       -0.2199
      3 C          -3.7933  -16.8880   22.7370 C.2     1  UNL1        0.1003
      4 C          -2.4228  -17.1185   22.1727 C.2     1  UNL1        0.0569
      5 C          -2.0765  -18.4440   21.5619 C.2     1  UNL1        0.1364
      6 C          -3.1006  -19.5390   21.5155 C.2     1  UNL1        0.0172
      7 C          -4.4711  -19.3085   22.0798 C.3     1  UNL1        0.0765
      8 C          -4.8175  -17.9830   22.6905 C.2     1  UNL1        0.0833
      9 N          -6.0767  -17.4669   23.3214 N.2     1  UNL1       -0.2238
     10 O          -0.7059  -18.6746   20.9975 O.2     1  UNL1       -0.4717
     11 C          -0.2690  -17.9399   19.7649 C.3     1  UNL1        0.2525
     12 S          -6.8221  -15.1546   24.4362 S.3     1  UNL1       -0.0757
     13 C          -6.7196  -15.5655   26.9995 C.3     1  UNL1        0.0130
     14 C          -7.4836  -15.5934   25.7090 C.3     1  UNL1        0.0652
@<TRIPOS>BOND
     1    13    14    1
     2    14    12    1
     3    12     1    1
     4     1     2    2
     5     2     3    1
     6     3     4    2
     7     4     5    1
     8     5    10    1
     9    10    11    1
    10     5     6    2
    11     6     7    1
    12     7     8    1
    13     8     9    2
    14     9     1    1
    15     8     3    1
