@<TRIPOS>MOLECULE
*****
 41 44 0 0 0
SMALL
GASTEIGER

@<TRIPOS>ATOM
      1 C           3.5105   -0.9307   27.2759 C.3     1  UNL1        0.0942
      2 C           2.1710   -0.4292   27.7274 C.3     1  UNL1        0.1129
      3 N           2.0472    0.3168   29.0228 N.am    1  UNL1       -0.2779
      4 C           0.7076    0.8184   29.4745 C.2     1  UNL1        0.2252
      5 O           0.5838    1.5643   30.7699 O.2     1  UNL1       -0.2749
      6 C           3.2630    0.5611   29.8667 C.3     1  UNL1        0.0936
      7 C           4.6025    0.0596   29.4152 C.3     1  UNL1        0.0246
      8 C           4.7263   -0.6864   28.1198 C.3     1  UNL1        0.0374
      9 N           3.8257   -1.6696   23.3894 N.am    1  UNL1       -0.2485
     10 C           3.7018   -0.9237   24.6848 C.2     1  UNL1        0.3059
     11 O           3.6455    0.5753   24.6848 O.2     1  UNL1       -0.2524
     12 N           3.6344   -1.6767   25.9804 N.am    1  UNL1       -0.2885
     13 H           3.8627   -2.6534   23.3894 H       1  UNL1        0.1583
     14 H           3.6713   -2.6605   25.9804 H       1  UNL1        0.1510
     15 C           3.4323   -0.1712   19.8305 C.ar    1  UNL1        0.0803
     16 S           3.0191   -1.1428   20.8960 S.2     1  UNL1       -0.0488
     17 C           3.8932   -0.9166   22.0938 C.ar    1  UNL1        0.1664
     18 N           4.8466    0.1948   21.7686 N.ar    1  UNL1       -0.2282
     19 C           4.5617    0.6555   20.3698 C.ar    1  UNL1        0.0701
     20 C           5.2802    1.7506   19.6388 C.3     1  UNL1        0.0528
     21 C           3.5668   -0.5510   17.2639 C.3     1  UNL1        0.0779
     22 C           2.8230   -0.0479   18.4654 C.2     1  UNL1        0.1807
     23 O           1.4699    0.5784   18.3018 O.2     1  UNL1       -0.2908
     24 C          -0.5082    0.5740   28.6306 C.3     1  UNL1        0.0767
     25 C          -1.3364   -0.6577   28.8472 C.3     1  UNL1        0.0096
     26 C          -0.8958    1.5615   27.5700 C.3     1  UNL1        0.0096
     27 C           6.0659   -1.1880   27.6682 C.3     1  UNL1        0.0738
     28 N           6.6602   -0.6883   26.3848 N.3     1  UNL1       -0.2726
     29 C           6.7211    0.7852   26.1101 C.3     1  UNL1        0.0721
     30 C           7.3153    1.2849   24.8267 C.3     1  UNL1        0.0174
     31 C           7.8487    0.3112   23.8180 C.3     1  UNL1        0.0031
     32 C           7.7878   -1.1621   24.0926 C.3     1  UNL1        0.0204
     33 C           7.1936   -1.6619   25.3760 C.3     1  UNL1        0.0724
     34 C           8.3212   -2.1358   23.0839 C.3     1  UNL1        0.0277
     35 C           7.5385   -2.4298   21.8385 C.ar    1  UNL1       -0.0220
     36 C           6.5312   -3.5412   21.8306 C.ar    1  UNL1       -0.0020
     37 C           5.7485   -3.8352   20.5852 C.ar    1  UNL1        0.0293
     38 C           5.9731   -3.0177   19.3478 C.ar    1  UNL1        0.1401
     39 F           5.1904   -3.3116   18.1024 F       1  UNL1       -0.2042
     40 C           6.9804   -1.9063   19.3557 C.ar    1  UNL1        0.0293
     41 C           7.7631   -1.6123   20.6011 C.ar    1  UNL1       -0.0020
@<TRIPOS>BOND
     1    21    22    1
     2    22    23    2
     3    22    15    1
     4    15    16   ar
     5    16    17   ar
     6    17     9    1
     7     9    10   am
     8    10    11    2
     9    10    12   am
    10     1    12    1
    11     1     2    1
    12     2     3    1
    13     3     4   am
    14     4     5    2
    15     4    24    1
    16    24    25    1
    17    24    26    1
    18     3     6    1
    19     6     7    1
    20     7     8    1
    21     8    27    1
    22    27    28    1
    23    28    29    1
    24    29    30    1
    25    30    31    1
    26    31    32    1
    27    32    34    1
    28    34    35    1
    29    35    36   ar
    30    36    37   ar
    31    37    38   ar
    32    38    39    1
    33    38    40   ar
    34    40    41   ar
    35    32    33    1
    36    17    18   ar
    37    18    19   ar
    38    19    20    1
    39    19    15   ar
    40     8     1    1
    41    33    28    1
    42    41    35   ar
    43     9    13    1
    44    12    14    1
@<TRIPOS>MOLECULE
*****
 41 44 0 0 0
SMALL
GASTEIGER

@<TRIPOS>ATOM
      1 C           3.7465   -1.0731   28.0784 C.3     1  UNL1        0.0942
      2 C           2.3538   -0.5360   28.2258 C.3     1  UNL1        0.1129
      3 N           2.0253    0.3970   29.3535 N.am    1  UNL1       -0.2779
      4 C           0.6325    0.9342   29.5010 C.2     1  UNL1        0.2252
      5 O           0.3041    1.8672   30.6286 O.2     1  UNL1       -0.2749
      6 C           3.0896    0.7929   30.3336 C.3     1  UNL1        0.0936
      7 C           4.4823    0.2558   30.1861 C.3     1  UNL1        0.0246
      8 C           4.8108   -0.6772   29.0585 C.3     1  UNL1        0.0374
      9 N           4.6051   -2.3998   24.4379 N.am    1  UNL1       -0.2485
     10 C           4.2766   -1.4668   25.5656 C.2     1  UNL1        0.3059
     11 O           4.1496    0.0055   25.3081 O.2     1  UNL1       -0.2524
     12 N           4.0751   -2.0061   26.9507 N.am    1  UNL1       -0.2885
     13 H           4.6885   -3.3661   24.6069 H       1  UNL1        0.1583
     14 H           4.1584   -2.9724   27.1197 H       1  UNL1        0.1510
     15 C           4.4513   -1.3090   20.7161 C.ar    1  UNL1        0.0803
     16 S           3.8484   -1.9940   21.9066 S.2     1  UNL1       -0.0488
     17 C           4.8067   -1.8605   23.0528 C.ar    1  UNL1        0.1664
     18 N           6.0019   -1.0930   22.5707 N.ar    1  UNL1       -0.2282
     19 C           5.7823   -0.7522   21.1265 C.ar    1  UNL1        0.0701
     20 C           6.7277    0.0114   20.2472 C.3     1  UNL1        0.0528
     21 C           2.7069   -0.2369   19.1169 C.3     1  UNL1        0.0779
     22 C           3.8320   -1.2001   19.3542 C.2     1  UNL1        0.1807
     23 O           4.3379   -2.0542   18.2298 O.2     1  UNL1       -0.2908
     24 C          -0.4317    0.5383   28.5209 C.3     1  UNL1        0.0767
     25 C          -1.3313   -0.6242   28.8194 C.3     1  UNL1        0.0096
     26 C          -0.5963    1.3050   27.2421 C.3     1  UNL1        0.0096
     27 C           6.2035   -1.2144   28.9110 C.3     1  UNL1        0.0738
     28 N           6.6333   -2.4124   29.7048 N.3     1  UNL1       -0.2726
     29 C           6.1138   -2.6152   31.0973 C.3     1  UNL1        0.0721
     30 C           6.5435   -3.8132   31.8911 C.3     1  UNL1        0.0174
     31 C           7.4929   -4.8084   31.2923 C.3     1  UNL1        0.0031
     32 C           8.0124   -4.6056   29.8999 C.3     1  UNL1        0.0204
     33 C           7.5826   -3.4076   29.1061 C.3     1  UNL1        0.0724
     34 C           8.9617   -5.6008   29.3012 C.3     1  UNL1        0.0277
     35 C           8.7362   -6.1080   27.9076 C.ar    1  UNL1       -0.0220
     36 C           7.8749   -7.3146   27.6789 C.ar    1  UNL1       -0.0020
     37 C           7.6494   -7.8218   26.2854 C.ar    1  UNL1        0.0293
     38 C           8.2851   -7.1223   25.1206 C.ar    1  UNL1        0.1401
     39 F           8.0596   -7.6295   23.7271 F       1  UNL1       -0.2042
     40 C           9.1463   -5.9157   25.3494 C.ar    1  UNL1        0.0293
     41 C           9.3718   -5.4085   26.7429 C.ar    1  UNL1       -0.0020
@<TRIPOS>BOND
     1    21    22    1
     2    22    23    2
     3    22    15    1
     4    15    16   ar
     5    16    17   ar
     6    17     9    1
     7     9    10   am
     8    10    11    2
     9    10    12   am
    10     1    12    1
    11     1     2    1
    12     2     3    1
    13     3     4   am
    14     4     5    2
    15     4    24    1
    16    24    25    1
    17    24    26    1
    18     3     6    1
    19     6     7    1
    20     7     8    1
    21     8    27    1
    22    27    28    1
    23    28    29    1
    24    29    30    1
    25    30    31    1
    26    31    32    1
    27    32    34    1
    28    34    35    1
    29    35    36   ar
    30    36    37   ar
    31    37    38   ar
    32    38    39    1
    33    38    40   ar
    34    40    41   ar
    35    32    33    1
    36    17    18   ar
    37    18    19   ar
    38    19    20    1
    39    19    15   ar
    40     8     1    1
    41    33    28    1
    42    41    35   ar
    43     9    13    1
    44    12    14    1
@<TRIPOS>MOLECULE
*****
 41 44 0 0 0
SMALL
GASTEIGER

@<TRIPOS>ATOM
      1 C           2.1078    1.1686   24.7332 C.3     1  UNL1        0.0942
      2 C           1.5814    0.9526   26.1210 C.3     1  UNL1        0.1129
      3 N           1.3890    2.1220   27.0406 N.am    1  UNL1       -0.2779
      4 C           0.8625    1.9060   28.4285 C.2     1  UNL1        0.2252
      5 O           0.6701    3.0753   29.3480 O.2     1  UNL1       -0.2749
      6 C           1.7230    3.5073   26.5722 C.3     1  UNL1        0.0936
      7 C           2.2494    3.7233   25.1844 C.3     1  UNL1        0.0246
      8 C           2.4418    2.5539   24.2649 C.3     1  UNL1        0.0374
      9 N           3.8382   -1.8239   22.7837 N.am    1  UNL1       -0.2485
     10 C           3.6457   -0.6546   23.7032 C.2     1  UNL1        0.3059
     11 O           4.7987   -0.1391   24.5125 O.2     1  UNL1       -0.2524
     12 N           2.3003   -0.0008   23.8136 N.am    1  UNL1       -0.2885
     13 H           3.0814   -2.1622   22.2525 H       1  UNL1        0.1583
     14 H           1.5435   -0.3391   23.2824 H       1  UNL1        0.1510
     15 C           7.0952   -3.9116   23.0989 C.ar    1  UNL1        0.0803
     16 S           5.7173   -3.5540   23.5718 S.2     1  UNL1       -0.0488
     17 C           5.1837   -2.4778   22.6734 C.ar    1  UNL1        0.1664
     18 N           6.2317   -2.1704   21.6453 N.ar    1  UNL1       -0.2282
     19 C           7.4131   -3.0565   21.9083 C.ar    1  UNL1        0.0701
     20 C           8.6885   -3.0828   21.1192 C.3     1  UNL1        0.0528
     21 C           8.9552   -4.5533   24.7955 C.3     1  UNL1        0.0779
     22 C           7.9968   -4.9432   23.7096 C.2     1  UNL1        0.1807
     23 O           7.9399   -6.3647   23.2343 O.2     1  UNL1       -0.2908
     24 C           0.5286    0.5207   28.8968 C.3     1  UNL1        0.0767
     25 C           1.5843   -0.3282   29.5409 C.3     1  UNL1        0.0096
     26 C          -0.8612   -0.0157   28.7211 C.3     1  UNL1        0.0096
     27 C           2.9682    2.7699   22.8769 C.3     1  UNL1        0.0738
     28 N           2.2553    2.1682   21.7023 N.3     1  UNL1       -0.2726
     29 C           0.7584    2.2259   21.6235 C.3     1  UNL1        0.0721
     30 C           0.0455    1.6241   20.4489 C.3     1  UNL1        0.0174
     31 C           0.8295    0.9647   19.3532 C.3     1  UNL1        0.0031
     32 C           2.3262    0.9070   19.4320 C.3     1  UNL1        0.0204
     33 C           3.0392    1.5087   20.6066 C.3     1  UNL1        0.0724
     34 C           3.1102    0.2475   18.3362 C.3     1  UNL1        0.0277
     35 C           3.6509   -1.1381   18.5303 C.ar    1  UNL1       -0.0220
     36 C           2.8880   -2.1322   19.3550 C.ar    1  UNL1       -0.0020
     37 C           3.4287   -3.5178   19.5490 C.ar    1  UNL1        0.0293
     38 C           4.7322   -3.9094   18.9184 C.ar    1  UNL1        0.1401
     39 F           5.2728   -5.2951   19.1124 F       1  UNL1       -0.2042
     40 C           5.4949   -2.9154   18.0937 C.ar    1  UNL1        0.0293
     41 C           4.9543   -1.5297   17.8997 C.ar    1  UNL1       -0.0020
@<TRIPOS>BOND
     1    21    22    1
     2    22    23    2
     3    22    15    1
     4    15    16   ar
     5    16    17   ar
     6    17     9    1
     7     9    10   am
     8    10    11    2
     9    10    12   am
    10     1    12    1
    11     1     2    1
    12     2     3    1
    13     3     4   am
    14     4     5    2
    15     4    24    1
    16    24    25    1
    17    24    26    1
    18     3     6    1
    19     6     7    1
    20     7     8    1
    21     8    27    1
    22    27    28    1
    23    28    29    1
    24    29    30    1
    25    30    31    1
    26    31    32    1
    27    32    34    1
    28    34    35    1
    29    35    36   ar
    30    36    37   ar
    31    37    38   ar
    32    38    39    1
    33    38    40   ar
    34    40    41   ar
    35    32    33    1
    36    17    18   ar
    37    18    19   ar
    38    19    20    1
    39    19    15   ar
    40     8     1    1
    41    33    28    1
    42    41    35   ar
    43     9    13    1
    44    12    14    1
@<TRIPOS>MOLECULE
*****
 41 44 0 0 0
SMALL
GASTEIGER

@<TRIPOS>ATOM
      1 C          -1.5006    3.4368   20.7077 C.3     1  UNL1        0.0942
      2 C          -2.5913    3.7078   19.7143 C.3     1  UNL1        0.1129
      3 N          -3.0585    5.1135   19.4785 N.am    1  UNL1       -0.2779
      4 C          -4.1493    5.3846   18.4851 C.2     1  UNL1        0.2252
      5 O          -4.6165    6.7903   18.2492 O.2     1  UNL1       -0.2749
      6 C          -2.4350    6.2481   20.2360 C.3     1  UNL1        0.0936
      7 C          -1.3443    5.9771   21.2294 C.3     1  UNL1        0.0246
      8 C          -0.8771    4.5714   21.4652 C.3     1  UNL1        0.0374
      9 N           0.6245    0.0960   20.4360 N.am    1  UNL1       -0.2485
     10 C           0.1572    1.5017   20.2002 C.2     1  UNL1        0.3059
     11 O           0.8804    2.3782   19.2209 O.2     1  UNL1       -0.2524
     12 N          -1.0333    2.0310   20.9435 N.am    1  UNL1       -0.2885
     13 H           0.1499   -0.4792   21.0787 H       1  UNL1        0.1583
     14 H          -1.5079    1.4558   21.5862 H       1  UNL1        0.1510
     15 C           3.7585   -1.7558   19.0890 C.ar    1  UNL1        0.0803
     16 S           2.6951   -1.5665   20.1298 S.2     1  UNL1       -0.0488
     17 C           1.8150   -0.4332   19.6926 C.ar    1  UNL1        0.1664
     18 N           2.3344    0.0778   18.3815 N.ar    1  UNL1       -0.2282
     19 C           3.5355   -0.7396   18.0084 C.ar    1  UNL1        0.0701
     20 C           4.3676   -0.5704   16.7719 C.3     1  UNL1        0.0528
     21 C           4.5350   -4.2255   18.8705 C.3     1  UNL1        0.0779
     22 C           4.8526   -2.7814   19.1227 C.2     1  UNL1        0.1807
     23 O           6.2643   -2.3628   19.4086 O.2     1  UNL1       -0.2908
     24 C          -4.7728    4.2500   17.7275 C.3     1  UNL1        0.0767
     25 C          -4.2151    3.8406   16.3966 C.3     1  UNL1        0.0096
     26 C          -5.9540    3.5247   18.3010 C.3     1  UNL1        0.0096
     27 C           0.2137    4.3003   22.4586 C.3     1  UNL1        0.0738
     28 N          -0.0609    3.4434   23.6588 N.3     1  UNL1       -0.2726
     29 C           0.7533    2.2067   23.8995 C.3     1  UNL1        0.0721
     30 C           0.4786    1.3498   25.0996 C.3     1  UNL1        0.0174
     31 C          -0.6102    1.7296   26.0590 C.3     1  UNL1        0.0031
     32 C          -1.4243    2.9662   25.8182 C.3     1  UNL1        0.0204
     33 C          -1.1497    3.8231   24.6181 C.3     1  UNL1        0.0724
     34 C          -2.5131    3.3459   26.7776 C.3     1  UNL1        0.0277
     35 C          -3.7943    3.9330   26.2639 C.ar    1  UNL1       -0.0220
     36 C          -4.4828    5.0207   27.0339 C.ar    1  UNL1       -0.0020
     37 C          -5.7639    5.6078   26.5202 C.ar    1  UNL1        0.0293
     38 C          -6.3566    5.1071   25.2364 C.ar    1  UNL1        0.1401
     39 F          -7.6378    5.6942   24.7226 F       1  UNL1       -0.2042
     40 C          -5.6682    4.0195   24.4664 C.ar    1  UNL1        0.0293
     41 C          -4.3870    3.4324   24.9801 C.ar    1  UNL1       -0.0020
@<TRIPOS>BOND
     1    21    22    1
     2    22    23    2
     3    22    15    1
     4    15    16   ar
     5    16    17   ar
     6    17     9    1
     7     9    10   am
     8    10    11    2
     9    10    12   am
    10     1    12    1
    11     1     2    1
    12     2     3    1
    13     3     4   am
    14     4     5    2
    15     4    24    1
    16    24    25    1
    17    24    26    1
    18     3     6    1
    19     6     7    1
    20     7     8    1
    21     8    27    1
    22    27    28    1
    23    28    29    1
    24    29    30    1
    25    30    31    1
    26    31    32    1
    27    32    34    1
    28    34    35    1
    29    35    36   ar
    30    36    37   ar
    31    37    38   ar
    32    38    39    1
    33    38    40   ar
    34    40    41   ar
    35    32    33    1
    36    17    18   ar
    37    18    19   ar
    38    19    20    1
    39    19    15   ar
    40     8     1    1
    41    33    28    1
    42    41    35   ar
    43     9    13    1
    44    12    14    1
@<TRIPOS>MOLECULE
*****
 41 44 0 0 0
SMALL
GASTEIGER

@<TRIPOS>ATOM
      1 C           4.1548   -0.6011   27.1343 C.3     1  UNL1        0.0942
      2 C           2.7732   -0.0282   27.2474 C.3     1  UNL1        0.1129
      3 N           2.5552    1.2663   27.9732 N.am    1  UNL1       -0.2779
      4 C           1.1735    1.8393   28.0863 C.2     1  UNL1        0.2252
      5 O           0.9555    3.1337   28.8121 O.2     1  UNL1       -0.2749
      6 C           3.7188    1.9878   28.5858 C.3     1  UNL1        0.0936
      7 C           5.1004    1.4149   28.4726 C.3     1  UNL1        0.0246
      8 C           5.3184    0.1204   27.7469 C.3     1  UNL1        0.0374
      9 N           5.0509   -3.1813   24.2551 N.am    1  UNL1       -0.2485
     10 C           4.8329   -1.8868   24.9808 C.2     1  UNL1        0.3059
     11 O           5.0749   -0.5834   24.2789 O.2     1  UNL1       -0.2524
     12 N           4.3728   -1.8957   26.4085 N.am    1  UNL1       -0.2885
     13 H           4.8921   -4.0367   24.7157 H       1  UNL1        0.1583
     14 H           4.2139   -2.7511   26.8692 H       1  UNL1        0.1510
     15 C           5.5519   -3.4243   20.4138 C.ar    1  UNL1        0.0803
     16 S           4.7020   -3.5968   21.6377 S.2     1  UNL1       -0.0488
     17 C           5.5110   -3.1724   22.8274 C.ar    1  UNL1        0.1664
     18 N           6.8609   -2.7377   22.3387 N.ar    1  UNL1       -0.2282
     19 C           6.8861   -2.8933   20.8470 C.ar    1  UNL1        0.0701
     20 C           8.0426   -2.5740   19.9467 C.3     1  UNL1        0.0528
     21 C           4.5530   -5.0679   18.6672 C.3     1  UNL1        0.0779
     22 C           5.1398   -3.7292   19.0041 C.2     1  UNL1        0.1807
     23 O           5.3145   -2.6955   17.9314 O.2     1  UNL1       -0.2908
     24 C           0.0099    1.1177   27.4737 C.3     1  UNL1        0.0767
     25 C          -0.7802    0.1389   28.2909 C.3     1  UNL1        0.0096
     26 C          -0.3637    1.3750   26.0439 C.3     1  UNL1        0.0096
     27 C           6.7001   -0.4526   27.6337 C.3     1  UNL1        0.0738
     28 N           7.0008   -1.8045   28.2098 N.3     1  UNL1       -0.2726
     29 C           7.6999   -2.8367   27.3754 C.3     1  UNL1        0.0721
     30 C           8.0006   -4.1886   27.9514 C.3     1  UNL1        0.0174
     31 C           7.6023   -4.5084   29.3619 C.3     1  UNL1        0.0031
     32 C           6.9034   -3.4762   30.1961 C.3     1  UNL1        0.0204
     33 C           6.6026   -2.1243   29.6201 C.3     1  UNL1        0.0724
     34 C           6.5051   -3.7960   31.6066 C.3     1  UNL1        0.0277
     35 C           6.1386   -2.6902   32.5514 C.ar    1  UNL1       -0.0220
     36 C           7.1817   -1.7094   32.9989 C.ar    1  UNL1       -0.0020
     37 C           6.8152   -0.6036   33.9438 C.ar    1  UNL1        0.0293
     38 C           5.4055   -0.4785   34.4411 C.ar    1  UNL1        0.1401
     39 F           5.0390    0.6274   35.3860 F       1  UNL1       -0.2042
     40 C           4.3625   -1.4591   33.9936 C.ar    1  UNL1        0.0293
     41 C           4.7290   -2.5650   33.0488 C.ar    1  UNL1       -0.0020
@<TRIPOS>BOND
     1    21    22    1
     2    22    23    2
     3    22    15    1
     4    15    16   ar
     5    16    17   ar
     6    17     9    1
     7     9    10   am
     8    10    11    2
     9    10    12   am
    10     1    12    1
    11     1     2    1
    12     2     3    1
    13     3     4   am
    14     4     5    2
    15     4    24    1
    16    24    25    1
    17    24    26    1
    18     3     6    1
    19     6     7    1
    20     7     8    1
    21     8    27    1
    22    27    28    1
    23    28    29    1
    24    29    30    1
    25    30    31    1
    26    31    32    1
    27    32    34    1
    28    34    35    1
    29    35    36   ar
    30    36    37   ar
    31    37    38   ar
    32    38    39    1
    33    38    40   ar
    34    40    41   ar
    35    32    33    1
    36    17    18   ar
    37    18    19   ar
    38    19    20    1
    39    19    15   ar
    40     8     1    1
    41    33    28    1
    42    41    35   ar
    43     9    13    1
    44    12    14    1
@<TRIPOS>MOLECULE
*****
 41 44 0 0 0
SMALL
GASTEIGER

@<TRIPOS>ATOM
      1 C           3.6187   -0.9483   27.2244 C.3     1  UNL1        0.0942
      2 C           2.2725   -0.4746   27.6863 C.3     1  UNL1        0.1129
      3 N           2.1440    0.2731   28.9803 N.am    1  UNL1       -0.2779
      4 C           0.7978    0.7469   29.4422 C.2     1  UNL1        0.2252
      5 O           0.6693    1.4947   30.7362 O.2     1  UNL1       -0.2749
      6 C           3.3616    0.5471   29.8123 C.3     1  UNL1        0.0936
      7 C           4.7078    0.0733   29.3504 C.3     1  UNL1        0.0246
      8 C           4.8363   -0.6744   28.0565 C.3     1  UNL1        0.0374
      9 N           3.9348   -1.6931   23.3391 N.am    1  UNL1       -0.2485
     10 C           3.8062   -0.9454   24.6331 C.2     1  UNL1        0.3059
     11 O           3.7367    0.5530   24.6298 O.2     1  UNL1       -0.2524
     12 N           3.7472   -1.6961   25.9304 N.am    1  UNL1       -0.2885
     13 H           3.9804   -2.6765   23.3413 H       1  UNL1        0.1583
     14 H           3.7929   -2.6795   25.9326 H       1  UNL1        0.1510
     15 C           3.4922   -0.1732   19.7952 C.ar    1  UNL1        0.0803
     16 S           3.0700   -1.1256   20.8743 S.2     1  UNL1       -0.0488
     17 C           3.9938   -0.9424   22.0418 C.ar    1  UNL1        0.1664
     18 N           4.9870    0.1233   21.6842 N.ar    1  UNL1       -0.2282
     19 C           4.6770    0.5987   20.2957 C.ar    1  UNL1        0.0701
     20 C           5.4212    1.6597   19.5404 C.3     1  UNL1        0.0528
     21 C           3.5164   -0.5657   17.2271 C.3     1  UNL1        0.0779
     22 C           2.8436   -0.0196   18.4514 C.2     1  UNL1        0.1807
     23 O           1.5222    0.6801   18.3321 O.2     1  UNL1       -0.2908
     24 C          -0.4198    0.4730   28.6102 C.3     1  UNL1        0.0767
     25 C          -0.7851    1.3986   27.4878 C.3     1  UNL1        0.0096
     26 C          -1.2722   -0.7267   28.9005 C.3     1  UNL1        0.0096
     27 C           6.1825   -1.1482   27.5945 C.3     1  UNL1        0.0738
     28 N           6.4068   -2.6027   27.3046 N.3     1  UNL1       -0.2726
     29 C           5.9363   -3.6427   28.2779 C.3     1  UNL1        0.0721
     30 C           6.1606   -5.0972   27.9881 C.3     1  UNL1        0.0174
     31 C           6.8553   -5.5118   26.7249 C.3     1  UNL1        0.0031
     32 C           7.3258   -4.4719   25.7517 C.3     1  UNL1        0.0204
     33 C           7.1015   -3.0173   26.0415 C.3     1  UNL1        0.0724
     34 C           8.0205   -4.8864   24.4885 C.3     1  UNL1        0.0277
     35 C           7.7165   -4.1821   23.1995 C.ar    1  UNL1       -0.0220
     36 C           8.7790   -3.3701   22.5198 C.ar    1  UNL1       -0.0020
     37 C           8.4750   -2.6658   21.2309 C.ar    1  UNL1        0.0293
     38 C           7.1085   -2.7734   20.6216 C.ar    1  UNL1        0.1401
     39 F           6.8046   -2.0690   19.3326 F       1  UNL1       -0.2042
     40 C           6.0461   -3.5853   21.3012 C.ar    1  UNL1        0.0293
     41 C           6.3501   -4.2896   22.5902 C.ar    1  UNL1       -0.0020
@<TRIPOS>BOND
     1    21    22    1
     2    22    23    2
     3    22    15    1
     4    15    16   ar
     5    16    17   ar
     6    17     9    1
     7     9    10   am
     8    10    11    2
     9    10    12   am
    10     1    12    1
    11     1     2    1
    12     2     3    1
    13     3     4   am
    14     4     5    2
    15     4    24    1
    16    24    25    1
    17    24    26    1
    18     3     6    1
    19     6     7    1
    20     7     8    1
    21     8    27    1
    22    27    28    1
    23    28    29    1
    24    29    30    1
    25    30    31    1
    26    31    32    1
    27    32    34    1
    28    34    35    1
    29    35    36   ar
    30    36    37   ar
    31    37    38   ar
    32    38    39    1
    33    38    40   ar
    34    40    41   ar
    35    32    33    1
    36    17    18   ar
    37    18    19   ar
    38    19    20    1
    39    19    15   ar
    40     8     1    1
    41    33    28    1
    42    41    35   ar
    43     9    13    1
    44    12    14    1
@<TRIPOS>MOLECULE
*****
 41 44 0 0 0
SMALL
GASTEIGER

@<TRIPOS>ATOM
      1 C           3.4855   -0.3811   27.1029 C.3     1  UNL1        0.0942
      2 C           2.1625    0.2576   27.4056 C.3     1  UNL1        0.1129
      3 N           2.0699    1.3336   28.4465 N.am    1  UNL1       -0.2779
      4 C           0.7469    1.9724   28.7493 C.2     1  UNL1        0.2252
      5 O           0.6542    3.0484   29.7902 O.2     1  UNL1       -0.2749
      6 C           3.3003    1.7710   29.1847 C.3     1  UNL1        0.0936
      7 C           4.6233    1.1323   28.8819 C.3     1  UNL1        0.0246
      8 C           4.7159    0.0562   27.8410 C.3     1  UNL1        0.0374
      9 N           3.8431   -2.1668   23.5767 N.am    1  UNL1       -0.2485
     10 C           3.7504   -1.0907   24.6176 C.2     1  UNL1        0.3059
     11 O           3.8300    0.3519   24.2143 O.2     1  UNL1       -0.2524
     12 N           3.5782   -1.4572   26.0619 N.am    1  UNL1       -0.2885
     13 H           3.7908   -3.1136   23.8415 H       1  UNL1        0.1583
     14 H           3.5259   -2.4040   26.3267 H       1  UNL1        0.1510
     15 C           4.9653   -1.5417   19.9140 C.ar    1  UNL1        0.0803
     16 S           5.2248   -2.0791   21.2902 S.2     1  UNL1       -0.0488
     17 C           4.0153   -1.8003   22.1324 C.ar    1  UNL1        0.1664
     18 N           3.0083   -1.0906   21.2767 N.ar    1  UNL1       -0.2282
     19 C           3.5954   -0.9308   19.9057 C.ar    1  UNL1        0.0701
     20 C           2.9295   -0.2752   18.7323 C.3     1  UNL1        0.0528
     21 C           7.0000   -0.5832   18.6137 C.3     1  UNL1        0.0779
     22 C           5.9099   -1.6044   18.7504 C.2     1  UNL1        0.1807
     23 O           5.7643   -2.6881   17.7237 O.2     1  UNL1       -0.2908
     24 C          -0.4835    1.5350   28.0112 C.3     1  UNL1        0.0767
     25 C          -0.8759    2.2196   26.7355 C.3     1  UNL1        0.0096
     26 C          -1.3216    0.4130   28.5488 C.3     1  UNL1        0.0096
     27 C           6.0389   -0.5825   27.5382 C.3     1  UNL1        0.0738
     28 N           6.3465   -1.9545   28.0608 N.3     1  UNL1       -0.2726
     29 C           6.5996   -3.0820   27.1044 C.3     1  UNL1        0.0721
     30 C           6.9072   -4.4540   27.6271 C.3     1  UNL1        0.0174
     31 C           6.9616   -4.6984   29.1061 C.3     1  UNL1        0.0031
     32 C           6.7085   -3.5709   30.0624 C.3     1  UNL1        0.0204
     33 C           6.4009   -2.1989   29.5397 C.3     1  UNL1        0.0724
     34 C           6.7629   -3.8153   31.5414 C.3     1  UNL1        0.0277
     35 C           6.2751   -2.7640   32.4937 C.ar    1  UNL1       -0.0220
     36 C           4.8542   -2.7882   32.9739 C.ar    1  UNL1       -0.0020
     37 C           4.3663   -1.7369   33.9262 C.ar    1  UNL1        0.0293
     38 C           5.2994   -0.6615   34.3983 C.ar    1  UNL1        0.1401
     39 F           4.8116    0.3898   35.3506 F       1  UNL1       -0.2042
     40 C           6.7203   -0.6373   33.9181 C.ar    1  UNL1        0.0293
     41 C           7.2081   -1.6886   32.9658 C.ar    1  UNL1       -0.0020
@<TRIPOS>BOND
     1    21    22    1
     2    22    23    2
     3    22    15    1
     4    15    16   ar
     5    16    17   ar
     6    17     9    1
     7     9    10   am
     8    10    11    2
     9    10    12   am
    10     1    12    1
    11     1     2    1
    12     2     3    1
    13     3     4   am
    14     4     5    2
    15     4    24    1
    16    24    25    1
    17    24    26    1
    18     3     6    1
    19     6     7    1
    20     7     8    1
    21     8    27    1
    22    27    28    1
    23    28    29    1
    24    29    30    1
    25    30    31    1
    26    31    32    1
    27    32    34    1
    28    34    35    1
    29    35    36   ar
    30    36    37   ar
    31    37    38   ar
    32    38    39    1
    33    38    40   ar
    34    40    41   ar
    35    32    33    1
    36    17    18   ar
    37    18    19   ar
    38    19    20    1
    39    19    15   ar
    40     8     1    1
    41    33    28    1
    42    41    35   ar
    43     9    13    1
    44    12    14    1
@<TRIPOS>MOLECULE
*****
 41 44 0 0 0
SMALL
GASTEIGER

@<TRIPOS>ATOM
      1 C           6.7488   -3.5588   22.6476 C.3     1  UNL1        0.0942
      2 C           5.8026   -3.3623   21.5004 C.3     1  UNL1        0.1129
      3 N           6.3373   -3.1569   20.1141 N.am    1  UNL1       -0.2779
      4 C           5.3912   -2.9604   18.9667 C.2     1  UNL1        0.2252
      5 O           5.9259   -2.7550   17.5804 O.2     1  UNL1       -0.2749
      6 C           7.8181   -3.1480   19.8750 C.3     1  UNL1        0.0936
      7 C           8.7643   -3.3445   21.0223 C.3     1  UNL1        0.0246
      8 C           8.2296   -3.5499   22.4086 C.3     1  UNL1        0.0374
      9 N           5.3277   -2.7856   26.2716 N.am    1  UNL1       -0.2485
     10 C           5.8624   -2.5803   24.8852 C.2     1  UNL1        0.3059
     11 O           6.0454   -1.1909   24.3501 O.2     1  UNL1       -0.2524
     12 N           6.2141   -3.7642   24.0340 N.am    1  UNL1       -0.2885
     13 H           5.2076   -3.6975   26.6228 H       1  UNL1        0.1583
     14 H           6.0940   -4.6761   24.3852 H       1  UNL1        0.1510
     15 C           3.7168    0.0037   28.4372 C.ar    1  UNL1        0.0803
     16 S           3.6075   -1.2561   27.6304 S.2     1  UNL1       -0.0488
     17 C           4.9760   -1.6017   27.1228 C.ar    1  UNL1        0.1664
     18 N           5.9311   -0.5555   27.6159 N.ar    1  UNL1       -0.2282
     19 C           5.1529    0.4367   28.4283 C.ar    1  UNL1        0.0701
     20 C           5.7125    1.6491   29.1117 C.3     1  UNL1        0.0528
     21 C           2.1026    2.0312   28.6206 C.3     1  UNL1        0.0779
     22 C           2.5881    0.7070   29.1312 C.2     1  UNL1        0.1807
     23 O           1.9450    0.0860   30.3356 O.2     1  UNL1       -0.2908
     24 C           3.9104   -2.9693   19.2058 C.3     1  UNL1        0.0767
     25 C           3.1399   -4.2511   19.0913 C.3     1  UNL1        0.0096
     26 C           3.2001   -1.6962   19.5593 C.3     1  UNL1        0.0096
     27 C           9.1757   -3.7464   23.5559 C.3     1  UNL1        0.0738
     28 N           9.0633   -4.9674   24.4199 N.3     1  UNL1       -0.2726
     29 C           8.6588   -6.2793   23.8155 C.3     1  UNL1        0.0721
     30 C           8.5464   -7.5003   24.6795 C.3     1  UNL1        0.0174
     31 C           8.8387   -7.4093   26.1480 C.3     1  UNL1        0.0031
     32 C           9.2432   -6.0975   26.7524 C.3     1  UNL1        0.0204
     33 C           9.3556   -4.8765   25.8884 C.3     1  UNL1        0.0724
     34 C           9.5354   -6.0066   28.2209 C.3     1  UNL1        0.0277
     35 C           8.5610   -5.3301   29.1390 C.ar    1  UNL1       -0.0220
     36 C           8.0566   -6.0464   30.3567 C.ar    1  UNL1       -0.0020
     37 C           7.0821   -5.3699   31.2748 C.ar    1  UNL1        0.0293
     38 C           6.6122   -3.9772   30.9753 C.ar    1  UNL1        0.1401
     39 F           5.6378   -3.3008   31.8934 F       1  UNL1       -0.2042
     40 C           7.1167   -3.2610   29.7577 C.ar    1  UNL1        0.0293
     41 C           8.0911   -3.9375   28.8396 C.ar    1  UNL1       -0.0020
@<TRIPOS>BOND
     1    21    22    1
     2    22    23    2
     3    22    15    1
     4    15    16   ar
     5    16    17   ar
     6    17     9    1
     7     9    10   am
     8    10    11    2
     9    10    12   am
    10     1    12    1
    11     1     2    1
    12     2     3    1
    13     3     4   am
    14     4     5    2
    15     4    24    1
    16    24    25    1
    17    24    26    1
    18     3     6    1
    19     6     7    1
    20     7     8    1
    21     8    27    1
    22    27    28    1
    23    28    29    1
    24    29    30    1
    25    30    31    1
    26    31    32    1
    27    32    34    1
    28    34    35    1
    29    35    36   ar
    30    36    37   ar
    31    37    38   ar
    32    38    39    1
    33    38    40   ar
    34    40    41   ar
    35    32    33    1
    36    17    18   ar
    37    18    19   ar
    38    19    20    1
    39    19    15   ar
    40     8     1    1
    41    33    28    1
    42    41    35   ar
    43     9    13    1
    44    12    14    1
@<TRIPOS>MOLECULE
*****
 41 44 0 0 0
SMALL
GASTEIGER

@<TRIPOS>ATOM
      1 C           3.1870    0.4043   21.9443 C.3     1  UNL1        0.0942
      2 C           3.5518   -0.8353   21.1827 C.3     1  UNL1        0.1129
      3 N           4.0676   -2.0397   21.9130 N.am    1  UNL1       -0.2779
      4 C           4.4324   -3.2795   21.1514 C.2     1  UNL1        0.2252
      5 O           4.9482   -4.4838   21.8818 O.2     1  UNL1       -0.2749
      6 C           4.2186   -2.0044   23.4050 C.3     1  UNL1        0.0936
      7 C           3.8538   -0.7647   24.1666 C.3     1  UNL1        0.0246
      8 C           3.3380    0.4397   23.4362 C.3     1  UNL1        0.0374
      9 N           0.6781    3.0131   20.3164 N.am    1  UNL1       -0.2485
     10 C           1.1940    1.8088   21.0467 C.2     1  UNL1        0.3059
     11 O           0.2326    0.8043   21.6098 O.2     1  UNL1       -0.2524
     12 N           2.6712    1.6088   21.2139 N.am    1  UNL1       -0.2885
     13 H           1.3091    3.6723   19.9468 H       1  UNL1        0.1583
     14 H           3.3021    2.2680   20.8443 H       1  UNL1        0.1510
     15 C          -2.9608    3.7549   19.1880 C.ar    1  UNL1        0.0803
     16 S          -1.4871    3.7093   18.9121 S.2     1  UNL1       -0.0488
     17 C          -0.7990    3.2131   20.1492 C.ar    1  UNL1        0.1664
     18 N          -1.8475    2.9520   21.1896 N.ar    1  UNL1       -0.2282
     19 C          -3.1836    3.2869   20.5956 C.ar    1  UNL1        0.0701
     20 C          -4.5095    3.1735   21.2877 C.3     1  UNL1        0.0528
     21 C          -4.6447    5.5513   18.3589 C.3     1  UNL1        0.0779
     22 C          -4.0250    4.1919   18.2254 C.2     1  UNL1        0.1807
     23 O          -4.4692    3.2694   17.1292 O.2     1  UNL1       -0.2908
     24 C           4.2814   -3.3148   19.6595 C.3     1  UNL1        0.0767
     25 C           3.1445   -4.0708   19.0384 C.3     1  UNL1        0.0096
     26 C           5.2674   -2.5941   18.7886 C.3     1  UNL1        0.0096
     27 C           2.9732    1.6794   24.1978 C.3     1  UNL1        0.0738
     28 N           1.7575    1.6893   25.0765 N.3     1  UNL1       -0.2726
     29 C           1.8074    1.0513   26.4332 C.3     1  UNL1        0.0721
     30 C           0.5918    1.0612   27.3118 C.3     1  UNL1        0.0174
     31 C          -0.6738    1.7091   26.8338 C.3     1  UNL1        0.0031
     32 C          -0.7238    2.3472   25.4773 C.3     1  UNL1        0.0204
     33 C           0.4919    2.3373   24.5986 C.3     1  UNL1        0.0724
     34 C          -1.9894    2.9951   24.9993 C.3     1  UNL1        0.0277
     35 C          -2.6709    4.0267   25.8486 C.ar    1  UNL1       -0.0220
     36 C          -4.1422    3.9208   26.1212 C.ar    1  UNL1       -0.0020
     37 C          -4.8237    4.9524   26.9706 C.ar    1  UNL1        0.0293
     38 C          -4.0340    6.0898   27.5473 C.ar    1  UNL1        0.1401
     39 F          -4.7155    7.1214   28.3967 F       1  UNL1       -0.2042
     40 C          -2.5628    6.1957   27.2747 C.ar    1  UNL1        0.0293
     41 C          -1.8813    5.1641   26.4253 C.ar    1  UNL1       -0.0020
@<TRIPOS>BOND
     1    21    22    1
     2    22    23    2
     3    22    15    1
     4    15    16   ar
     5    16    17   ar
     6    17     9    1
     7     9    10   am
     8    10    11    2
     9    10    12   am
    10     1    12    1
    11     1     2    1
    12     2     3    1
    13     3     4   am
    14     4     5    2
    15     4    24    1
    16    24    25    1
    17    24    26    1
    18     3     6    1
    19     6     7    1
    20     7     8    1
    21     8    27    1
    22    27    28    1
    23    28    29    1
    24    29    30    1
    25    30    31    1
    26    31    32    1
    27    32    34    1
    28    34    35    1
    29    35    36   ar
    30    36    37   ar
    31    37    38   ar
    32    38    39    1
    33    38    40   ar
    34    40    41   ar
    35    32    33    1
    36    17    18   ar
    37    18    19   ar
    38    19    20    1
    39    19    15   ar
    40     8     1    1
    41    33    28    1
    42    41    35   ar
    43     9    13    1
    44    12    14    1
