@<TRIPOS>MOLECULE
*****
 37 41 0 0 0
SMALL
GASTEIGER

@<TRIPOS>ATOM
      1 C           7.6513   -2.7592   21.0054 C.3     1  UNL1        0.0972
      2 C           7.3621   -1.6668   21.9918 C.3     1  UNL1        0.0431
      3 C           7.2201   -2.2922   23.3478 C.3     1  UNL1        0.0968
      4 N           7.4216   -3.7712   23.1994 N.am    1  UNL1       -0.2623
      5 C           7.3663   -4.7838   24.3046 C.2     1  UNL1        0.3073
      6 O           7.5891   -6.2362   24.0030 O.2     1  UNL1       -0.2523
      7 N           7.0882   -4.3441   25.7115 N.am    1  UNL1       -0.2626
      8 C           6.8465   -2.9343   26.1630 C.3     1  UNL1        0.0964
      9 C           6.6119   -2.9558   27.6444 C.3     1  UNL1        0.0390
     10 C           6.7086   -4.3790   28.1084 C.3     1  UNL1        0.0758
     11 C           7.0030   -5.2370   26.9138 C.3     1  UNL1        0.1106
     12 C           7.6881   -4.0598   21.7518 C.3     1  UNL1        0.1147
     13 C           6.7013   -2.2844   18.6343 C.2     1  UNL1        0.2551
     14 O           6.9161   -2.1072   17.1603 O.2     1  UNL1       -0.2694
     15 N           7.8660   -2.5821   19.5314 N.am    1  UNL1       -0.2738
     16 C           9.2454   -2.7026   18.9546 C.3     1  UNL1        0.1152
     17 C           3.2719   -1.2318   20.1164 C.ar    1  UNL1        0.0296
     18 C           3.1265   -2.7243   20.0807 C.ar    1  UNL1        0.0071
     19 C           4.3934   -3.3003   19.5211 C.ar    1  UNL1        0.0115
     20 C           5.3219   -2.1638   19.2110 C.ar    1  UNL1        0.0830
     21 S           4.6288   -0.8854   19.5790 S.2     1  UNL1       -0.0824
     22 C           0.1805    1.6927   21.5793 C.ar    1  UNL1        0.1387
     23 C           1.2932    1.2605   22.4876 C.ar    1  UNL1        0.0369
     24 C           2.3236    0.2857   22.0000 C.ar    1  UNL1        0.0036
     25 C           2.2415   -0.2570   20.6041 C.ar    1  UNL1        0.0062
     26 C           1.1288    0.1752   19.6957 C.ar    1  UNL1        0.0036
     27 C           0.0983    1.1501   20.1833 C.ar    1  UNL1        0.0369
     28 C          -1.8548    3.2379   21.1104 C.3     1  UNL1        0.2525
     29 O          -0.8500    2.6676   22.0669 O.3     1  UNL1       -0.4714
     30 N           6.5404   -4.8597   29.5193 N.3     1  UNL1       -0.2980
     31 H           6.9691   -5.7839   29.5685 H       1  UNL1        0.1232
     32 C           7.1040   -4.0599   30.6563 C.3     1  UNL1        0.0590
     33 C           8.5600   -4.1683   31.0003 C.3     1  UNL1        0.0478
     34 C           9.1236   -3.3686   32.1373 C.3     1  UNL1        0.1435
     35 O           8.2311   -2.4604   32.9302 O.3     1  UNL1       -0.3537
     36 C           6.7752   -2.3520   32.5862 C.3     1  UNL1        0.1435
     37 C           6.2116   -3.1517   31.4492 C.3     1  UNL1        0.0478
@<TRIPOS>BOND
     1    28    29    1
     2    29    22    1
     3    22    23   ar
     4    23    24   ar
     5    24    25   ar
     6    25    17    1
     7    17    18   ar
     8    18    19   ar
     9    19    20   ar
    10    20    13    1
    11    13    14    2
    12    13    15   am
    13    15    16    1
    14     1    15    1
    15     1     2    1
    16     2     3    1
    17     3     4    1
    18     4     5   am
    19     5     6    2
    20     5     7   am
    21     7     8    1
    22     8     9    1
    23     9    10    1
    24    10    30    1
    25    30    32    1
    26    32    33    1
    27    33    34    1
    28    34    35    1
    29    35    36    1
    30    36    37    1
    31    10    11    1
    32     4    12    1
    33    20    21   ar
    34    25    26   ar
    35    26    27   ar
    36    27    22   ar
    37    21    17   ar
    38    12     1    1
    39    11     7    1
    40    37    32    1
    41    30    31    1
@<TRIPOS>MOLECULE
*****
 37 41 0 0 0
SMALL
GASTEIGER

@<TRIPOS>ATOM
      1 C           7.8030   -3.0713   20.9528 C.3     1  UNL1        0.0972
      2 C           7.5820   -4.5228   21.2595 C.3     1  UNL1        0.0431
      3 C           7.4058   -4.6617   22.7427 C.3     1  UNL1        0.0968
      4 N           7.5179   -3.2959   23.3526 N.am    1  UNL1       -0.2623
      5 C           7.4045   -2.9702   24.8124 C.2     1  UNL1        0.3073
      6 O           7.5392   -1.5502   25.2767 O.2     1  UNL1       -0.2523
      7 N           7.1564   -4.0644   25.8079 N.am    1  UNL1       -0.2626
      8 C           7.0006   -5.5230   25.4943 C.3     1  UNL1        0.0964
      9 C           6.7684   -6.2523   26.7844 C.3     1  UNL1        0.0390
     10 C           6.7807   -5.2444   27.8953 C.3     1  UNL1        0.0758
     11 C           7.0205   -3.8923   27.2918 C.3     1  UNL1        0.1106
     12 C           7.7634   -2.3130   22.2465 C.3     1  UNL1        0.1147
     13 C           6.8777   -1.8693   18.8436 C.2     1  UNL1        0.2551
     14 O           7.0994   -1.2795   17.4823 O.2     1  UNL1       -0.2694
     15 N           8.0247   -2.4815   19.5916 N.am    1  UNL1       -0.2738
     16 C           9.3933   -2.5040   18.9783 C.3     1  UNL1        0.1152
     17 C           3.5709   -1.1714   20.7525 C.ar    1  UNL1        0.0296
     18 C           3.2345   -2.4526   20.0487 C.ar    1  UNL1        0.0071
     19 C           4.4322   -2.8700   19.2479 C.ar    1  UNL1        0.0115
     20 C           5.5090   -1.8468   19.4568 C.ar    1  UNL1        0.0830
     21 S           4.9766   -0.7970   20.3867 S.2     1  UNL1       -0.0824
     22 C           0.8423    1.1425   23.4820 C.ar    1  UNL1        0.1387
     23 C           0.5809    1.1178   22.0052 C.ar    1  UNL1        0.0369
     24 C           1.4905    0.3465   21.0953 C.ar    1  UNL1        0.0036
     25 C           2.6614   -0.4001   21.6623 C.ar    1  UNL1        0.0062
     26 C           2.9227   -0.3755   23.1391 C.ar    1  UNL1        0.0036
     27 C           2.0131    0.3958   24.0490 C.ar    1  UNL1        0.0369
     28 C           0.3129    2.1279   25.8269 C.3     1  UNL1        0.2525
     29 O          -0.0673    1.9138   24.3918 O.3     1  UNL1       -0.4714
     30 N           6.5872   -5.5373   29.3536 N.3     1  UNL1       -0.2980
     31 H           6.8778   -6.5039   29.5009 H       1  UNL1        0.1232
     32 C           7.2955   -4.7102   30.3852 C.3     1  UNL1        0.0590
     33 C           6.5279   -3.7172   31.2066 C.3     1  UNL1        0.0478
     34 C           7.2362   -2.8900   32.2381 C.3     1  UNL1        0.1435
     35 O           8.7121   -3.0559   32.4483 O.3     1  UNL1       -0.3537
     36 C           9.4797   -4.0489   31.6269 C.3     1  UNL1        0.1435
     37 C           8.7714   -4.8761   30.5953 C.3     1  UNL1        0.0478
@<TRIPOS>BOND
     1    28    29    1
     2    29    22    1
     3    22    23   ar
     4    23    24   ar
     5    24    25   ar
     6    25    17    1
     7    17    18   ar
     8    18    19   ar
     9    19    20   ar
    10    20    13    1
    11    13    14    2
    12    13    15   am
    13    15    16    1
    14     1    15    1
    15     1     2    1
    16     2     3    1
    17     3     4    1
    18     4     5   am
    19     5     6    2
    20     5     7   am
    21     7     8    1
    22     8     9    1
    23     9    10    1
    24    10    30    1
    25    30    32    1
    26    32    33    1
    27    33    34    1
    28    34    35    1
    29    35    36    1
    30    36    37    1
    31    10    11    1
    32     4    12    1
    33    20    21   ar
    34    25    26   ar
    35    26    27   ar
    36    27    22   ar
    37    21    17   ar
    38    12     1    1
    39    11     7    1
    40    37    32    1
    41    30    31    1
@<TRIPOS>MOLECULE
*****
 37 41 0 0 0
SMALL
GASTEIGER

@<TRIPOS>ATOM
      1 C           6.9705   -2.7037   30.6597 C.3     1  UNL1        0.0972
      2 C           7.9117   -1.6986   31.2546 C.3     1  UNL1        0.0431
      3 C           7.2992   -1.1842   32.5235 C.3     1  UNL1        0.0968
      4 N           5.9793   -1.8713   32.7129 N.am    1  UNL1       -0.2623
      5 C           5.0294   -1.6570   33.8537 C.2     1  UNL1        0.3073
      6 O           3.7392   -2.4202   33.9090 O.2     1  UNL1       -0.2523
      7 N           5.3696   -0.6795   34.9394 N.am    1  UNL1       -0.2626
      8 C           6.6158    0.1515   35.0188 C.3     1  UNL1        0.0964
      9 C           6.5397    0.9833   36.2648 C.3     1  UNL1        0.0390
     10 C           5.2464    0.6664   36.9554 C.3     1  UNL1        0.0758
     11 C           4.5232   -0.3612   36.1363 C.3     1  UNL1        0.1106
     12 C           5.7761   -2.8104   31.5610 C.3     1  UNL1        0.1147
     13 C           6.5869   -2.9721   28.1041 C.2     1  UNL1        0.2551
     14 O           6.8021   -3.7362   26.8314 O.2     1  UNL1       -0.2694
     15 N           7.1857   -3.4678   29.3870 N.am    1  UNL1       -0.2738
     16 C           7.9997   -4.7276   29.3971 C.3     1  UNL1        0.1152
     17 C           3.8957   -0.1778   27.9814 C.ar    1  UNL1        0.0296
     18 C           5.1443    0.6305   28.1752 C.ar    1  UNL1        0.0071
     19 C           6.3044   -0.3178   28.2447 C.ar    1  UNL1        0.0115
     20 C           5.7728   -1.7123   28.0939 C.ar    1  UNL1        0.0830
     21 S           4.2841   -1.6258   27.9312 S.2     1  UNL1       -0.0824
     22 C          -0.2819    1.4543   27.6150 C.ar    1  UNL1        0.1387
     23 C           0.8015    1.9556   26.7068 C.ar    1  UNL1        0.0369
     24 C           2.1941    1.4116   26.8290 C.ar    1  UNL1        0.0036
     25 C           2.5032    0.3662   27.8593 C.ar    1  UNL1        0.0062
     26 C           1.4197   -0.1352   28.7674 C.ar    1  UNL1        0.0036
     27 C           0.0272    0.4089   28.6453 C.ar    1  UNL1        0.0369
     28 C          -1.9542    3.1411   26.5624 C.3     1  UNL1        0.2525
     29 O          -1.6744    1.9983   27.4929 O.3     1  UNL1       -0.4714
     30 N           4.7615    1.2710   38.2396 N.3     1  UNL1       -0.2980
     31 H           5.2618    2.1520   38.3577 H       1  UNL1        0.1232
     32 C           3.3037    1.5729   38.4230 C.3     1  UNL1        0.0590
     33 C           2.7449    2.8843   37.9561 C.3     1  UNL1        0.0478
     34 C           1.2871    3.1863   38.1395 C.3     1  UNL1        0.1435
     35 O           0.3881    2.1769   38.7897 O.3     1  UNL1       -0.3537
     36 C           0.9469    0.8655   39.2566 C.3     1  UNL1        0.1435
     37 C           2.4047    0.5635   39.0732 C.3     1  UNL1        0.0478
@<TRIPOS>BOND
     1    28    29    1
     2    29    22    1
     3    22    23   ar
     4    23    24   ar
     5    24    25   ar
     6    25    17    1
     7    17    18   ar
     8    18    19   ar
     9    19    20   ar
    10    20    13    1
    11    13    14    2
    12    13    15   am
    13    15    16    1
    14     1    15    1
    15     1     2    1
    16     2     3    1
    17     3     4    1
    18     4     5   am
    19     5     6    2
    20     5     7   am
    21     7     8    1
    22     8     9    1
    23     9    10    1
    24    10    30    1
    25    30    32    1
    26    32    33    1
    27    33    34    1
    28    34    35    1
    29    35    36    1
    30    36    37    1
    31    10    11    1
    32     4    12    1
    33    20    21   ar
    34    25    26   ar
    35    26    27   ar
    36    27    22   ar
    37    21    17   ar
    38    12     1    1
    39    11     7    1
    40    37    32    1
    41    30    31    1
@<TRIPOS>MOLECULE
*****
 37 41 0 0 0
SMALL
GASTEIGER

@<TRIPOS>ATOM
      1 C           0.8389    3.3459   22.9455 C.3     1  UNL1        0.0972
      2 C          -0.3655    2.8617   23.6971 C.3     1  UNL1        0.0431
      3 C           0.1104    2.1796   24.9454 C.3     1  UNL1        0.0968
      4 N           1.6089    2.2421   24.9653 N.am    1  UNL1       -0.2623
      5 C           2.5006    1.6822   26.0336 C.2     1  UNL1        0.3073
      6 O           3.9896    1.8216   25.9169 O.2     1  UNL1       -0.2523
      7 N           1.9034    0.9829   27.2187 N.am    1  UNL1       -0.2626
      8 C           0.4404    0.7684   27.4707 C.3     1  UNL1        0.0964
      9 C           0.2971    0.0283   28.7675 C.3     1  UNL1        0.0390
     10 C           1.6716   -0.2146   29.3170 C.3     1  UNL1        0.0758
     11 C           2.6643    0.3754   28.3597 C.3     1  UNL1        0.1106
     12 C           2.0592    2.9630   23.7294 C.3     1  UNL1        0.1147
     13 C           1.0129    3.3347   20.3533 C.2     1  UNL1        0.2551
     14 O           0.9994    4.0723   19.0473 O.2     1  UNL1       -0.2694
     15 N           0.8255    4.0835   21.6395 N.am    1  UNL1       -0.2738
     16 C           0.6247    5.5698   21.6196 C.3     1  UNL1        0.1152
     17 C           2.2659   -0.3385   20.4024 C.ar    1  UNL1        0.0296
     18 C           0.7794   -0.5393   20.4050 C.ar    1  UNL1        0.0071
     19 C           0.1291    0.8123   20.3869 C.ar    1  UNL1        0.0115
     20 C           1.2136    1.8484   20.3731 C.ar    1  UNL1        0.0830
     21 S           2.5343    1.1371   20.3827 S.2     1  UNL1       -0.0824
     22 C           5.3745   -3.5920   20.4459 C.ar    1  UNL1        0.1387
     23 C           4.9186   -2.9729   21.7339 C.ar    1  UNL1        0.0369
     24 C           3.8824   -1.8885   21.7194 C.ar    1  UNL1        0.0036
     25 C           3.3021   -1.4230   20.4169 C.ar    1  UNL1        0.0062
     26 C           3.7580   -2.0420   19.1289 C.ar    1  UNL1        0.0036
     27 C           4.7942   -3.1265   19.1434 C.ar    1  UNL1        0.0369
     28 C           7.7757   -4.4021   21.0185 C.3     1  UNL1        0.2525
     29 O           6.4107   -4.6764   20.4604 O.3     1  UNL1       -0.4714
     30 N           1.9962   -0.9230   30.5986 N.3     1  UNL1       -0.2980
     31 H           2.3073   -1.8610   30.3459 H       1  UNL1        0.1232
     32 C           3.0313   -0.3588   31.5261 C.3     1  UNL1        0.0590
     33 C           4.2988   -1.1176   31.7862 C.3     1  UNL1        0.0478
     34 C           5.3339   -0.5534   32.7136 C.3     1  UNL1        0.1435
     35 O           5.1015    0.7698   33.3809 O.3     1  UNL1       -0.3537
     36 C           3.8341    1.5286   33.1208 C.3     1  UNL1        0.1435
     37 C           2.7990    0.9644   32.1933 C.3     1  UNL1        0.0478
@<TRIPOS>BOND
     1    28    29    1
     2    29    22    1
     3    22    23   ar
     4    23    24   ar
     5    24    25   ar
     6    25    17    1
     7    17    18   ar
     8    18    19   ar
     9    19    20   ar
    10    20    13    1
    11    13    14    2
    12    13    15   am
    13    15    16    1
    14     1    15    1
    15     1     2    1
    16     2     3    1
    17     3     4    1
    18     4     5   am
    19     5     6    2
    20     5     7   am
    21     7     8    1
    22     8     9    1
    23     9    10    1
    24    10    30    1
    25    30    32    1
    26    32    33    1
    27    33    34    1
    28    34    35    1
    29    35    36    1
    30    36    37    1
    31    10    11    1
    32     4    12    1
    33    20    21   ar
    34    25    26   ar
    35    26    27   ar
    36    27    22   ar
    37    21    17   ar
    38    12     1    1
    39    11     7    1
    40    37    32    1
    41    30    31    1
@<TRIPOS>MOLECULE
*****
 37 41 0 0 0
SMALL
GASTEIGER

@<TRIPOS>ATOM
      1 C           4.3439    0.0864   19.5173 C.3     1  UNL1        0.0972
      2 C           2.8460    0.0289   19.5724 C.3     1  UNL1        0.0431
      3 C           2.4059    0.6420   20.8687 C.3     1  UNL1        0.0968
      4 N           3.6318    1.0784   21.6148 N.am    1  UNL1       -0.2623
      5 C           3.6558    1.7418   22.9600 C.2     1  UNL1        0.3073
      6 O           4.9650    2.1232   23.5849 O.2     1  UNL1       -0.2523
      7 N           2.3705    2.0236   23.6802 N.am    1  UNL1       -0.2626
      8 C           0.9924    1.7013   23.1833 C.3     1  UNL1        0.0964
      9 C           0.0079    2.1558   24.2198 C.3     1  UNL1        0.0390
     10 C           0.7776    2.7590   25.3572 C.3     1  UNL1        0.0758
     11 C           2.2378    2.6774   25.0237 C.3     1  UNL1        0.1106
     12 C           4.8295    0.7351   20.7797 C.3     1  UNL1        0.1147
     13 C           5.8542   -1.7650   18.4968 C.2     1  UNL1        0.2551
     14 O           6.7152   -2.2678   17.3763 O.2     1  UNL1       -0.2694
     15 N           5.2049   -0.4165   18.3968 N.am    1  UNL1       -0.2738
     16 C           5.4168    0.4291   17.1761 C.3     1  UNL1        0.1152
     17 C           5.9627   -3.6609   21.8820 C.ar    1  UNL1        0.0296
     18 C           4.6703   -4.1632   21.3098 C.ar    1  UNL1        0.0071
     19 C           4.4723   -3.5141   19.9720 C.ar    1  UNL1        0.0115
     20 C           5.6424   -2.6107   19.7175 C.ar    1  UNL1        0.0830
     21 S           6.5634   -2.7014   20.8979 S.2     1  UNL1       -0.0824
     22 C           7.7276   -4.8276   25.8536 C.ar    1  UNL1        0.1387
     23 C           6.6802   -3.7561   25.7840 C.ar    1  UNL1        0.0369
     24 C           6.0919   -3.3672   24.4602 C.ar    1  UNL1        0.0036
     25 C           6.5510   -4.0498   23.2059 C.ar    1  UNL1        0.0062
     26 C           7.5984   -5.1212   23.2754 C.ar    1  UNL1        0.0036
     27 C           8.1867   -5.5101   24.5993 C.ar    1  UNL1        0.0369
     28 C           7.4344   -5.7747   28.2551 C.3     1  UNL1        0.2525
     29 O           8.3159   -5.2165   27.1775 O.3     1  UNL1       -0.4714
     30 N           0.1902    3.3416   26.6084 N.3     1  UNL1       -0.2980
     31 H          -0.7182    3.7297   26.3543 H       1  UNL1        0.1232
     32 C          -0.0318    2.4703   27.8090 C.3     1  UNL1        0.0590
     33 C           0.7052    2.7498   29.0852 C.3     1  UNL1        0.0478
     34 C           0.4833    1.8785   30.2858 C.3     1  UNL1        0.1435
     35 O          -0.4757    0.7276   30.2102 O.3     1  UNL1       -0.3537
     36 C          -1.2127    0.4480   28.9341 C.3     1  UNL1        0.1435
     37 C          -0.9908    1.3194   27.7334 C.3     1  UNL1        0.0478
@<TRIPOS>BOND
     1    28    29    1
     2    29    22    1
     3    22    23   ar
     4    23    24   ar
     5    24    25   ar
     6    25    17    1
     7    17    18   ar
     8    18    19   ar
     9    19    20   ar
    10    20    13    1
    11    13    14    2
    12    13    15   am
    13    15    16    1
    14     1    15    1
    15     1     2    1
    16     2     3    1
    17     3     4    1
    18     4     5   am
    19     5     6    2
    20     5     7   am
    21     7     8    1
    22     8     9    1
    23     9    10    1
    24    10    30    1
    25    30    32    1
    26    32    33    1
    27    33    34    1
    28    34    35    1
    29    35    36    1
    30    36    37    1
    31    10    11    1
    32     4    12    1
    33    20    21   ar
    34    25    26   ar
    35    26    27   ar
    36    27    22   ar
    37    21    17   ar
    38    12     1    1
    39    11     7    1
    40    37    32    1
    41    30    31    1
@<TRIPOS>MOLECULE
*****
 37 41 0 0 0
SMALL
GASTEIGER

@<TRIPOS>ATOM
      1 C          -0.1923    2.7287   25.3528 C.3     1  UNL1        0.0972
      2 C           1.1819    3.2333   25.6798 C.3     1  UNL1        0.0431
      3 C           1.6968    2.4500   26.8509 C.3     1  UNL1        0.0968
      4 N           0.6408    1.4614   27.2477 N.am    1  UNL1       -0.2623
      5 C           0.7357    0.4739   28.3728 C.2     1  UNL1        0.3073
      6 O          -0.4069   -0.4569   28.6521 O.2     1  UNL1       -0.2523
      7 N           1.9733    0.4171   29.2185 N.am    1  UNL1       -0.2626
      8 C           3.1901    1.2797   29.0595 C.3     1  UNL1        0.0964
      9 C           4.1801    0.8835   30.1144 C.3     1  UNL1        0.0390
     10 C           3.5752   -0.2240   30.9253 C.3     1  UNL1        0.0758
     11 C           2.2113   -0.5123   30.3716 C.3     1  UNL1        0.1106
     12 C          -0.5267    1.6336   26.3219 C.3     1  UNL1        0.1147
     13 C          -0.6601    3.0637   22.8193 C.2     1  UNL1        0.2551
     14 O          -1.5446    3.5660   21.7169 O.2     1  UNL1       -0.2694
     15 N          -1.0769    3.2310   24.2505 N.am    1  UNL1       -0.2738
     16 C          -2.3782    3.9007   24.5792 C.3     1  UNL1        0.1152
     17 C           2.2827    0.7152   21.8757 C.ar    1  UNL1        0.0296
     18 C           3.0049    2.0118   22.0932 C.ar    1  UNL1        0.0071
     19 C           1.9904    3.0494   22.4731 C.ar    1  UNL1        0.0115
     20 C           0.6413    2.3941   22.4904 C.ar    1  UNL1        0.0830
     21 S           0.8219    0.9515   22.1212 S.2     1  UNL1       -0.0824
     22 C           4.1676   -3.1964   20.6941 C.ar    1  UNL1        0.1387
     23 C           4.2269   -2.7359   22.1204 C.ar    1  UNL1        0.0369
     24 C           3.5986   -1.4320   22.5142 C.ar    1  UNL1        0.0036
     25 C           2.9110   -0.5886   21.4818 C.ar    1  UNL1        0.0062
     26 C           2.8517   -1.0492   20.0555 C.ar    1  UNL1        0.0036
     27 C           3.4800   -2.3531   19.6617 C.ar    1  UNL1        0.0369
     28 C           4.5011   -5.0994   18.9570 C.3     1  UNL1        0.2525
     29 O           4.7959   -4.5003   20.3002 O.3     1  UNL1       -0.4714
     30 N           4.2209   -0.9209   32.0861 N.3     1  UNL1       -0.2980
     31 H           5.2020   -1.0540   31.8410 H       1  UNL1        0.1232
     32 C           4.1962   -0.2909   33.4471 C.3     1  UNL1        0.0590
     33 C           4.8650   -0.9750   34.6025 C.3     1  UNL1        0.0478
     34 C           4.8403   -0.3450   35.9635 C.3     1  UNL1        0.1435
     35 O           4.1469    0.9691   36.1693 O.3     1  UNL1       -0.3537
     36 C           3.4782    1.6531   35.0140 C.3     1  UNL1        0.1435
     37 C           3.5028    1.0232   33.6529 C.3     1  UNL1        0.0478
@<TRIPOS>BOND
     1    28    29    1
     2    29    22    1
     3    22    23   ar
     4    23    24   ar
     5    24    25   ar
     6    25    17    1
     7    17    18   ar
     8    18    19   ar
     9    19    20   ar
    10    20    13    1
    11    13    14    2
    12    13    15   am
    13    15    16    1
    14     1    15    1
    15     1     2    1
    16     2     3    1
    17     3     4    1
    18     4     5   am
    19     5     6    2
    20     5     7   am
    21     7     8    1
    22     8     9    1
    23     9    10    1
    24    10    30    1
    25    30    32    1
    26    32    33    1
    27    33    34    1
    28    34    35    1
    29    35    36    1
    30    36    37    1
    31    10    11    1
    32     4    12    1
    33    20    21   ar
    34    25    26   ar
    35    26    27   ar
    36    27    22   ar
    37    21    17   ar
    38    12     1    1
    39    11     7    1
    40    37    32    1
    41    30    31    1
@<TRIPOS>MOLECULE
*****
 37 41 0 0 0
SMALL
GASTEIGER

@<TRIPOS>ATOM
      1 C          -0.6178    2.6542   25.3219 C.3     1  UNL1        0.0972
      2 C          -0.2575    1.2064   25.4766 C.3     1  UNL1        0.0431
      3 C           0.4151    1.0356   26.8065 C.3     1  UNL1        0.0968
      4 N           0.4706    2.3779   27.4736 N.am    1  UNL1       -0.2623
      5 C           1.0608    2.6689   28.8216 C.2     1  UNL1        0.3073
      6 O           1.0438    4.0682   29.3616 O.2     1  UNL1       -0.2523
      7 N           1.6679    1.5604   29.6296 N.am    1  UNL1       -0.2626
      8 C           1.7569    0.1195   29.2226 C.3     1  UNL1        0.0964
      9 C           2.4366   -0.6332   30.3279 C.3     1  UNL1        0.0390
     10 C           2.7676    0.3427   31.4179 C.3     1  UNL1        0.0758
     11 C           2.2925    1.6984   30.9863 C.3     1  UNL1        0.1106
     12 C          -0.1678    3.3783   26.5562 C.3     1  UNL1        0.1147
     13 C          -0.6975    3.1583   22.7744 C.2     1  UNL1        0.2551
     14 O          -1.3867    3.7739   21.5930 O.2     1  UNL1       -0.2694
     15 N          -1.3070    3.2699   24.1405 N.am    1  UNL1       -0.2738
     16 C          -2.6058    3.9972   24.3249 C.3     1  UNL1        0.1152
     17 C           2.2275    0.7089   22.0600 C.ar    1  UNL1        0.0296
     18 C           2.9725    1.9144   22.5517 C.ar    1  UNL1        0.0071
     19 C           1.9675    2.9787   22.8792 C.ar    1  UNL1        0.0115
     20 C           0.6013    2.4309   22.5899 C.ar    1  UNL1        0.0830
     21 S           0.7621    1.0281   22.0836 S.2     1  UNL1       -0.0824
     22 C           4.0661   -3.1822   20.7450 C.ar    1  UNL1        0.1387
     23 C           3.3040   -2.3430   19.7628 C.ar    1  UNL1        0.0369
     24 C           2.6911   -1.0460   20.2011 C.ar    1  UNL1        0.0036
     25 C           2.8404   -0.5882   21.6217 C.ar    1  UNL1        0.0062
     26 C           3.6025   -1.4274   22.6039 C.ar    1  UNL1        0.0036
     27 C           4.2153   -2.7244   22.1656 C.ar    1  UNL1        0.0369
     28 C           4.6192   -4.8875   18.8646 C.3     1  UNL1        0.2525
     29 O           4.6789   -4.4792   20.3067 O.3     1  UNL1       -0.4714
     30 N           3.4533    0.0195   32.7123 N.3     1  UNL1       -0.2980
     31 H           2.7765   -0.4829   33.2866 H       1  UNL1        0.1232
     32 C           4.7112   -0.7976   32.7110 C.3     1  UNL1        0.0590
     33 C           4.6340   -2.2932   32.6263 C.3     1  UNL1        0.0478
     34 C           5.8919   -3.1103   32.6250 C.3     1  UNL1        0.1435
     35 O           7.2271   -2.4317   32.7084 O.3     1  UNL1       -0.3537
     36 C           7.3043   -0.9362   32.7931 C.3     1  UNL1        0.1435
     37 C           6.0464   -0.1190   32.7944 C.3     1  UNL1        0.0478
@<TRIPOS>BOND
     1    28    29    1
     2    29    22    1
     3    22    23   ar
     4    23    24   ar
     5    24    25   ar
     6    25    17    1
     7    17    18   ar
     8    18    19   ar
     9    19    20   ar
    10    20    13    1
    11    13    14    2
    12    13    15   am
    13    15    16    1
    14     1    15    1
    15     1     2    1
    16     2     3    1
    17     3     4    1
    18     4     5   am
    19     5     6    2
    20     5     7   am
    21     7     8    1
    22     8     9    1
    23     9    10    1
    24    10    30    1
    25    30    32    1
    26    32    33    1
    27    33    34    1
    28    34    35    1
    29    35    36    1
    30    36    37    1
    31    10    11    1
    32     4    12    1
    33    20    21   ar
    34    25    26   ar
    35    26    27   ar
    36    27    22   ar
    37    21    17   ar
    38    12     1    1
    39    11     7    1
    40    37    32    1
    41    30    31    1
@<TRIPOS>MOLECULE
*****
 37 41 0 0 0
SMALL
GASTEIGER

@<TRIPOS>ATOM
      1 C           3.6931   -0.5357   19.4586 C.3     1  UNL1        0.0972
      2 C           3.1449   -1.3064   20.6229 C.3     1  UNL1        0.0431
      3 C           2.4358   -0.3407   21.5255 C.3     1  UNL1        0.0968
      4 N           2.5458    1.0268   20.9191 N.am    1  UNL1       -0.2623
      5 C           1.9783    2.2926   21.4899 C.2     1  UNL1        0.3073
      6 O           2.1694    3.5930   20.7670 O.2     1  UNL1       -0.2523
      7 N           1.2199    2.2581   22.7835 N.am    1  UNL1       -0.2626
      8 C           0.9499    1.0391   23.6149 C.3     1  UNL1        0.0964
      9 C           0.1613    1.4641   24.8181 C.3     1  UNL1        0.0390
     10 C          -0.0560    2.9457   24.7303 C.3     1  UNL1        0.0758
     11 C           0.5982    3.4364   23.4728 C.3     1  UNL1        0.1106
     12 C           3.3228    0.9064   19.6417 C.3     1  UNL1        0.1147
     13 C           5.7698   -1.8183   18.5686 C.2     1  UNL1        0.2551
     14 O           6.5511   -2.3893   17.4225 O.2     1  UNL1       -0.2694
     15 N           4.4744   -1.1067   18.3126 N.am    1  UNL1       -0.2738
     16 C           3.9604   -0.9661   16.9105 C.3     1  UNL1        0.1152
     17 C           6.8906   -2.9024   22.1230 C.ar    1  UNL1        0.0296
     18 C           7.2594   -1.4485   22.1336 C.ar    1  UNL1        0.0071
     19 C           6.8845   -0.8654   20.8035 C.ar    1  UNL1        0.0115
     20 C           6.2839   -1.9589   19.9707 C.ar    1  UNL1        0.0830
     21 S           6.2877   -3.2179   20.7863 S.2     1  UNL1       -0.0824
     22 C           7.4881   -5.8076   25.5073 C.ar    1  UNL1        0.1387
     23 C           6.6996   -4.5508   25.7280 C.ar    1  UNL1        0.0369
     24 C           6.5004   -3.5824   24.6000 C.ar    1  UNL1        0.0036
     25 C           7.0898   -3.8708   23.2511 C.ar    1  UNL1        0.0062
     26 C           7.8783   -5.1275   23.0304 C.ar    1  UNL1        0.0036
     27 C           8.0775   -6.0959   24.1584 C.ar    1  UNL1        0.0369
     28 C           8.2726   -8.1305   26.3664 C.3     1  UNL1        0.2525
     29 O           7.6872   -6.7760   26.6353 O.3     1  UNL1       -0.4714
     30 N          -0.7974    3.7885   25.7253 N.3     1  UNL1       -0.2980
     31 H          -0.4740    4.7474   25.5978 H       1  UNL1        0.1232
     32 C          -2.2966    3.8305   25.7032 C.3     1  UNL1        0.0590
     33 C          -3.0428    3.3464   24.4953 C.3     1  UNL1        0.0478
     34 C          -4.5420    3.3885   24.4733 C.3     1  UNL1        0.1435
     35 O          -5.2951    3.9146   25.6590 O.3     1  UNL1       -0.3537
     36 C          -4.5490    4.3987   26.8668 C.3     1  UNL1        0.1435
     37 C          -3.0497    4.3567   26.8889 C.3     1  UNL1        0.0478
@<TRIPOS>BOND
     1    28    29    1
     2    29    22    1
     3    22    23   ar
     4    23    24   ar
     5    24    25   ar
     6    25    17    1
     7    17    18   ar
     8    18    19   ar
     9    19    20   ar
    10    20    13    1
    11    13    14    2
    12    13    15   am
    13    15    16    1
    14     1    15    1
    15     1     2    1
    16     2     3    1
    17     3     4    1
    18     4     5   am
    19     5     6    2
    20     5     7   am
    21     7     8    1
    22     8     9    1
    23     9    10    1
    24    10    30    1
    25    30    32    1
    26    32    33    1
    27    33    34    1
    28    34    35    1
    29    35    36    1
    30    36    37    1
    31    10    11    1
    32     4    12    1
    33    20    21   ar
    34    25    26   ar
    35    26    27   ar
    36    27    22   ar
    37    21    17   ar
    38    12     1    1
    39    11     7    1
    40    37    32    1
    41    30    31    1
@<TRIPOS>MOLECULE
*****
 37 41 0 0 0
SMALL
GASTEIGER

@<TRIPOS>ATOM
      1 C           7.2655   -2.2431   21.1869 C.3     1  UNL1        0.0972
      2 C           7.1046   -3.4054   22.1212 C.3     1  UNL1        0.0431
      3 C           6.7222   -2.8678   23.4684 C.3     1  UNL1        0.0968
      4 N           6.6468   -1.3732   23.3666 N.am    1  UNL1       -0.2623
      5 C           6.2971   -0.4302   24.4794 C.2     1  UNL1        0.3073
      6 O           6.2615    1.0480   24.2266 O.2     1  UNL1       -0.2523
      7 N           5.9829   -0.9653   25.8450 N.am    1  UNL1       -0.2626
      8 C           5.9781   -2.4107   26.2459 C.3     1  UNL1        0.0964
      9 C           5.6106   -2.4876   27.6982 C.3     1  UNL1        0.0390
     10 C           5.3881   -1.0898   28.1948 C.3     1  UNL1        0.0758
     11 C           5.6182   -0.1489   27.0495 C.3     1  UNL1        0.1106
     12 C           6.9825   -0.9871   21.9566 C.3     1  UNL1        0.1147
     13 C           6.5935   -2.1557   18.6787 C.2     1  UNL1        0.2551
     14 O           6.9710   -2.2354   17.2292 O.2     1  UNL1       -0.2694
     15 N           7.6430   -2.3228   19.7373 N.am    1  UNL1       -0.2738
     16 C           9.0699   -2.5696   19.3464 C.3     1  UNL1        0.1152
     17 C           3.0509   -0.8021   19.5051 C.ar    1  UNL1        0.0296
     18 C           2.8903   -2.2561   19.8370 C.ar    1  UNL1        0.0071
     19 C           4.1978   -2.9401   19.5678 C.ar    1  UNL1        0.0115
     20 C           5.1665   -1.9089   19.0696 C.ar    1  UNL1        0.0830
     21 S           4.4576   -0.5875   19.0309 S.2     1  UNL1       -0.0824
     22 C          -0.1293    2.3609   19.8686 C.ar    1  UNL1        0.1387
     23 C           0.5595    2.1373   18.5550 C.ar    1  UNL1        0.0369
     24 C           1.6195    1.0830   18.4339 C.ar    1  UNL1        0.0036
     25 C           1.9908    0.2522   19.6263 C.ar    1  UNL1        0.0062
     26 C           1.3020    0.4758   20.9399 C.ar    1  UNL1        0.0036
     27 C           0.2419    1.5301   21.0610 C.ar    1  UNL1        0.0369
     28 C          -1.8354    3.9744   18.7569 C.3     1  UNL1        0.2525
     29 O          -1.1894    3.4152   19.9898 O.3     1  UNL1       -0.4714
     30 N           5.0032   -0.7012   29.5915 N.3     1  UNL1       -0.2980
     31 H           5.6510    0.0309   29.8825 H       1  UNL1        0.1232
     32 C           3.6204   -0.1934   29.8745 C.3     1  UNL1        0.0590
     33 C           2.4718   -0.6249   29.0117 C.3     1  UNL1        0.0478
     34 C           1.0890   -0.1171   29.2947 C.3     1  UNL1        0.1435
     35 O           0.8549    0.8222   30.4406 O.3     1  UNL1       -0.3537
     36 C           2.0035    1.2536   31.3034 C.3     1  UNL1        0.1435
     37 C           3.3863    0.7458   31.0204 C.3     1  UNL1        0.0478
@<TRIPOS>BOND
     1    28    29    1
     2    29    22    1
     3    22    23   ar
     4    23    24   ar
     5    24    25   ar
     6    25    17    1
     7    17    18   ar
     8    18    19   ar
     9    19    20   ar
    10    20    13    1
    11    13    14    2
    12    13    15   am
    13    15    16    1
    14     1    15    1
    15     1     2    1
    16     2     3    1
    17     3     4    1
    18     4     5   am
    19     5     6    2
    20     5     7   am
    21     7     8    1
    22     8     9    1
    23     9    10    1
    24    10    30    1
    25    30    32    1
    26    32    33    1
    27    33    34    1
    28    34    35    1
    29    35    36    1
    30    36    37    1
    31    10    11    1
    32     4    12    1
    33    20    21   ar
    34    25    26   ar
    35    26    27   ar
    36    27    22   ar
    37    21    17   ar
    38    12     1    1
    39    11     7    1
    40    37    32    1
    41    30    31    1
