@<TRIPOS>MOLECULE
*****
 53 58 0 0 0
SMALL
GASTEIGER

@<TRIPOS>ATOM
      1 C           0.5637    2.3600   20.7188 C.ar    1  UNL1        0.1452
      2 C           0.2835    1.1191   19.9241 C.ar    1  UNL1        0.0375
      3 C           1.1199   -0.1088   20.1308 C.ar    1  UNL1        0.0031
      4 C           2.2367   -0.0957   21.1321 C.ar    1  UNL1        0.0002
      5 C           2.5170    1.1452   21.9268 C.ar    1  UNL1        0.0030
      6 C           1.6805    2.3731   21.7202 C.ar    1  UNL1        0.0346
      7 C           3.0731   -1.3235   21.3388 C.ar    1  UNL1       -0.0000
      8 C           3.6516   -1.6181   22.6911 C.ar    1  UNL1       -0.0000
      9 C           4.4880   -2.8459   22.8978 C.ar    1  UNL1       -0.0001
     10 C           4.7461   -3.7792   21.7522 C.ar    1  UNL1        0.0039
     11 C           4.1677   -3.4847   20.3999 C.ar    1  UNL1        0.0714
     12 C           3.3312   -2.2568   20.1932 C.ar    1  UNL1        0.0039
     13 C           4.4258   -4.4179   19.2543 C.3     1  UNL1        0.4186
     14 F           4.6839   -5.3512   18.1087 F       1  UNL1       -0.1659
     15 F           3.4290   -5.3863   19.8187 F       1  UNL1       -0.1659
     16 F           5.4226   -3.4495   18.6899 F       1  UNL1       -0.1659
     17 C           1.9608    3.6140   22.5149 C.ar    1  UNL1        0.0057
     18 C           2.7769    4.7204   21.9151 C.ar    1  UNL1        0.0208
     19 C           3.0572    5.9613   22.7098 C.ar    1  UNL1        0.0985
     20 N           2.5214    6.0958   24.1043 N.ar    1  UNL1       -0.2468
     21 C           1.7053    4.9895   24.7042 C.ar    1  UNL1        0.0749
     22 C           1.4249    3.7485   23.9095 C.ar    1  UNL1        0.0162
     23 C           1.1694    5.1240   26.0987 C.3     1  UNL1        0.1151
     24 N          -0.3061    5.2722   26.3242 N.3     1  UNL1       -0.2924
     25 H          -0.7413    5.3206   25.4030 H       1  UNL1        0.1236
     26 C          -1.0542    4.2308   27.1025 C.3     1  UNL1        0.0688
     27 C          -1.1551    2.8298   26.5763 C.3     1  UNL1        0.0172
     28 C          -0.4451    1.7113   27.2799 C.3     1  UNL1        0.0041
     29 C           1.0284    1.5146   27.0793 C.3     1  UNL1        0.0172
     30 C           1.7383    0.3962   27.7829 C.3     1  UNL1        0.0686
     31 N           0.9748   -0.5255   28.6872 N.3     1  UNL1       -0.2975
     32 C          -0.4986   -0.3287   28.8878 C.3     1  UNL1        0.0686
     33 C          -1.2086    0.7897   28.1841 C.3     1  UNL1        0.0172
     34 H           1.4086   -0.4606   29.6081 H       1  UNL1        0.1232
     35 O          -0.2727    3.5879   20.5122 O.3     1  UNL1       -0.4528
     36 C          -2.8367    3.7876   20.1432 C.ar    1  UNL1        0.1042
     37 C          -4.2283    3.8495   20.6998 C.ar    1  UNL1        0.0335
     38 C          -4.4474    3.7736   22.1818 C.ar    1  UNL1        0.1261
     39 C          -3.2750    3.6358   23.1072 C.ar    1  UNL1        0.0234
     40 C          -1.8834    3.5739   22.5506 C.ar    1  UNL1        0.0396
     41 C          -1.6643    3.6498   21.0687 C.ar    1  UNL1        0.1549
     42 S          -5.8390    3.8356   22.7383 S.O2    1  UNL1        0.0751
     43 O          -5.3358    3.3196   24.0538 O.2     1  UNL1       -0.1499
     44 O          -6.3421    4.3515   21.4228 O.2     1  UNL1       -0.1499
     45 N          -7.2305    3.8975   23.2948 N.pl3   1  UNL1       -0.1925
     46 H          -7.8020    3.0959   23.2819 H       1  UNL1        0.1758
     47 C          -7.7514    5.1807   23.8711 C.ar    1  UNL1        0.1977
     48 N          -9.1914    5.5098   24.1317 N.ar    1  UNL1       -0.1997
     49 C          -9.2536    6.8926   24.7096 C.ar    1  UNL1        0.2082
     50 N          -7.8520    7.4182   24.8062 N.ar    1  UNL1       -0.1840
     51 S          -6.9236    6.3602   24.2879 S.2     1  UNL1        0.0508
     52 N          -2.3984    3.9394   17.1794 N.1     1  UNL1       -0.1907
     53 C          -2.6176    3.8635   18.6613 C.1     1  UNL1        0.1035
@<TRIPOS>BOND
     1    52    53    3
     2    53    36    1
     3    36    37   ar
     4    37    38   ar
     5    38    42    1
     6    42    43    2
     7    42    44    2
     8    42    45    1
     9    45    47    1
    10    47    48   ar
    11    48    49   ar
    12    49    50   ar
    13    50    51   ar
    14    38    39   ar
    15    39    40   ar
    16    40    41   ar
    17    41    35    1
    18    35     1    1
    19     1     2   ar
    20     2     3   ar
    21     3     4   ar
    22     4     7    1
    23     7     8   ar
    24     8     9   ar
    25     9    10   ar
    26    10    11   ar
    27    11    13    1
    28    13    14    1
    29    13    15    1
    30    13    16    1
    31    11    12   ar
    32     4     5   ar
    33     5     6   ar
    34     6    17    1
    35    17    18   ar
    36    18    19   ar
    37    19    20   ar
    38    20    21   ar
    39    21    23    1
    40    23    24    1
    41    24    26    1
    42    26    27    1
    43    27    28    1
    44    28    29    1
    45    29    30    1
    46    30    31    1
    47    31    32    1
    48    32    33    1
    49    21    22   ar
    50    41    36   ar
    51     6     1   ar
    52    22    17   ar
    53    51    47   ar
    54    12     7   ar
    55    33    28    1
    56    45    46    1
    57    24    25    1
    58    31    34    1
@<TRIPOS>MOLECULE
*****
 53 58 0 0 0
SMALL
GASTEIGER

@<TRIPOS>ATOM
      1 C           6.0445   -1.3161   23.4170 C.ar    1  UNL1        0.1452
      2 C           6.4293   -1.0067   24.8335 C.ar    1  UNL1        0.0375
      3 C           6.7480   -2.1218   25.7847 C.ar    1  UNL1        0.0031
      4 C           6.6819   -3.5463   25.3196 C.ar    1  UNL1        0.0002
      5 C           6.2971   -3.8558   23.9032 C.ar    1  UNL1        0.0030
      6 C           5.9784   -2.7406   22.9519 C.ar    1  UNL1        0.0346
      7 C           7.0005   -4.6615   26.2708 C.ar    1  UNL1       -0.0000
      8 C           7.4869   -5.9796   25.7454 C.ar    1  UNL1       -0.0000
      9 C           7.8055   -7.0947   26.6966 C.ar    1  UNL1       -0.0001
     10 C           7.6379   -6.8918   28.1733 C.ar    1  UNL1        0.0039
     11 C           7.1516   -5.5737   28.6988 C.ar    1  UNL1        0.0714
     12 C           6.8329   -4.4585   27.7476 C.ar    1  UNL1        0.0039
     13 C           6.9839   -5.3708   30.1755 C.3     1  UNL1        0.4186
     14 F           6.8163   -5.1678   31.6523 F       1  UNL1       -0.1659
     15 F           7.7753   -6.6179   30.4368 F       1  UNL1       -0.1659
     16 F           6.1925   -4.1236   29.9143 F       1  UNL1       -0.1659
     17 C           5.5937   -3.0500   21.5355 C.ar    1  UNL1        0.0057
     18 C           4.3881   -3.8970   21.2537 C.ar    1  UNL1        0.0208
     19 C           4.0033   -4.2064   19.8373 C.ar    1  UNL1        0.0985
     20 N           4.8241   -3.6689   18.7027 N.ar    1  UNL1       -0.2468
     21 C           6.0296   -2.8220   18.9844 C.ar    1  UNL1        0.0749
     22 C           6.4144   -2.5125   20.4008 C.ar    1  UNL1        0.0162
     23 C           6.8504   -2.2845   17.8497 C.3     1  UNL1        0.1151
     24 N           6.5239   -0.9463   17.2560 N.3     1  UNL1       -0.2924
     25 H           6.8805   -0.9532   16.3004 H       1  UNL1        0.1236
     26 C           5.0982   -0.4860   17.1827 C.3     1  UNL1        0.0688
     27 C           4.5789    0.5083   18.1786 C.3     1  UNL1        0.0172
     28 C           3.1768    0.3878   18.6975 C.3     1  UNL1        0.0041
     29 C           2.7827   -0.7999   19.5247 C.3     1  UNL1        0.0172
     30 C           1.3805   -0.9204   20.0437 C.3     1  UNL1        0.0686
     31 N           0.3724    0.1467   19.7355 N.3     1  UNL1       -0.2975
     32 C           0.7665    1.3343   18.9083 C.3     1  UNL1        0.0686
     33 C           2.1687    1.4549   18.3894 C.3     1  UNL1        0.0172
     34 H           0.0427    0.5077   20.6307 H       1  UNL1        0.1232
     35 O           5.7259   -0.2010   22.4657 O.3     1  UNL1       -0.4528
     36 C           4.2059    1.8236   21.8818 C.ar    1  UNL1        0.1042
     37 C           2.8745    2.5110   21.9510 C.ar    1  UNL1        0.0335
     38 C           1.7316    1.8612   22.6733 C.ar    1  UNL1        0.1261
     39 C           1.9201    0.5241   23.3264 C.ar    1  UNL1        0.0234
     40 C           3.2516   -0.1633   23.2572 C.ar    1  UNL1        0.0396
     41 C           4.3944    0.4864   22.5349 C.ar    1  UNL1        0.1549
     42 S           0.4002    2.5487   22.7425 S.O2    1  UNL1        0.0751
     43 O          -0.2677    1.3065   22.2316 O.2     1  UNL1       -0.1499
     44 O           1.0680    3.7908   23.2533 O.2     1  UNL1       -0.1499
     45 N          -0.9313    3.2361   22.8117 N.pl3   1  UNL1       -0.1925
     46 H          -1.3012    3.5059   23.6832 H       1  UNL1        0.1758
     47 C          -1.6990    3.5123   21.5529 C.ar    1  UNL1        0.1977
     48 N          -3.0911    3.0440   21.2485 N.ar    1  UNL1       -0.1997
     49 C          -3.4618    3.5477   19.8851 C.ar    1  UNL1        0.2082
     50 N          -2.2988    4.3273   19.3468 N.ar    1  UNL1       -0.1840
     51 S          -1.2093    4.3054   20.3776 S.2     1  UNL1        0.0508
     52 N           6.4916    3.1230   20.4373 N.1     1  UNL1       -0.1907
     53 C           5.3488    2.4733   21.1595 C.1     1  UNL1        0.1035
@<TRIPOS>BOND
     1    52    53    3
     2    53    36    1
     3    36    37   ar
     4    37    38   ar
     5    38    42    1
     6    42    43    2
     7    42    44    2
     8    42    45    1
     9    45    47    1
    10    47    48   ar
    11    48    49   ar
    12    49    50   ar
    13    50    51   ar
    14    38    39   ar
    15    39    40   ar
    16    40    41   ar
    17    41    35    1
    18    35     1    1
    19     1     2   ar
    20     2     3   ar
    21     3     4   ar
    22     4     7    1
    23     7     8   ar
    24     8     9   ar
    25     9    10   ar
    26    10    11   ar
    27    11    13    1
    28    13    14    1
    29    13    15    1
    30    13    16    1
    31    11    12   ar
    32     4     5   ar
    33     5     6   ar
    34     6    17    1
    35    17    18   ar
    36    18    19   ar
    37    19    20   ar
    38    20    21   ar
    39    21    23    1
    40    23    24    1
    41    24    26    1
    42    26    27    1
    43    27    28    1
    44    28    29    1
    45    29    30    1
    46    30    31    1
    47    31    32    1
    48    32    33    1
    49    21    22   ar
    50    41    36   ar
    51     6     1   ar
    52    22    17   ar
    53    51    47   ar
    54    12     7   ar
    55    33    28    1
    56    45    46    1
    57    24    25    1
    58    31    34    1
@<TRIPOS>MOLECULE
*****
 53 58 0 0 0
SMALL
GASTEIGER

@<TRIPOS>ATOM
      1 C           0.7250    1.7410   23.0290 C.ar    1  UNL1        0.1452
      2 C           1.6563    0.6382   23.4371 C.ar    1  UNL1        0.0375
      3 C           2.4290   -0.1150   22.3952 C.ar    1  UNL1        0.0031
      4 C           2.2704    0.2346   20.9452 C.ar    1  UNL1        0.0002
      5 C           1.3391    1.3373   20.5370 C.ar    1  UNL1        0.0030
      6 C           0.5664    2.0906   21.5790 C.ar    1  UNL1        0.0346
      7 C           3.0431   -0.5186   19.9033 C.ar    1  UNL1       -0.0000
      8 C           3.6627    0.2164   18.7517 C.ar    1  UNL1       -0.0000
      9 C           4.4354   -0.5368   17.7098 C.ar    1  UNL1       -0.0001
     10 C           4.5886   -2.0249   17.8193 C.ar    1  UNL1        0.0039
     11 C           3.9690   -2.7599   18.9708 C.ar    1  UNL1        0.0714
     12 C           3.1963   -2.0067   20.0128 C.ar    1  UNL1        0.0039
     13 C           4.1222   -4.2480   19.0804 C.3     1  UNL1        0.4186
     14 F           4.2753   -5.7361   19.1899 F       1  UNL1       -0.1659
     15 F           5.6016   -4.0822   19.2639 F       1  UNL1       -0.1659
     16 F           2.6427   -4.4138   18.8968 F       1  UNL1       -0.1659
     17 C          -0.3649    3.1933   21.1708 C.ar    1  UNL1        0.0057
     18 C           0.0824    4.6226   21.2555 C.ar    1  UNL1        0.0208
     19 C          -0.8489    5.7253   20.8473 C.ar    1  UNL1        0.0985
     20 N          -2.2275    5.3988   20.3545 N.ar    1  UNL1       -0.2468
     21 C          -2.6749    3.9696   20.2699 C.ar    1  UNL1        0.0749
     22 C          -1.7435    2.8668   20.6780 C.ar    1  UNL1        0.0162
     23 C          -4.0535    3.6432   19.7771 C.3     1  UNL1        0.1151
     24 N          -5.0422    2.9874   20.6948 N.3     1  UNL1       -0.2924
     25 H          -4.7054    2.0391   20.8614 H       1  UNL1        0.1236
     26 C          -5.3301    3.5872   22.0392 C.3     1  UNL1        0.0688
     27 C          -4.6882    3.0155   23.2685 C.3     1  UNL1        0.0172
     28 C          -4.8038    3.7360   24.5790 C.3     1  UNL1        0.0041
     29 C          -3.7724    3.5208   25.6467 C.3     1  UNL1        0.0172
     30 C          -3.8880    4.2412   26.9573 C.3     1  UNL1        0.0686
     31 N          -5.0351    5.1768   27.2002 N.3     1  UNL1       -0.2975
     32 C          -6.0664    5.3920   26.1325 C.3     1  UNL1        0.0686
     33 C          -5.9508    4.6716   24.8219 C.3     1  UNL1        0.0172
     34 H          -4.6312    6.0902   27.4078 H       1  UNL1        0.1232
     35 O          -0.0477    2.4942   24.0709 O.3     1  UNL1       -0.4528
     36 C           1.3556    3.0631   26.1821 C.ar    1  UNL1        0.1042
     37 C           1.6573    2.8543   27.6365 C.ar    1  UNL1        0.0335
     38 C           0.8572    1.8675   28.4342 C.ar    1  UNL1        0.1261
     39 C          -0.2445    1.0897   27.7775 C.ar    1  UNL1        0.0234
     40 C          -0.5461    1.2986   26.3231 C.ar    1  UNL1        0.0396
     41 C           0.2539    2.2853   25.5254 C.ar    1  UNL1        0.1549
     42 S           1.1588    1.6587   29.8887 S.O2    1  UNL1        0.0751
     43 O          -0.1102    0.8733   30.0391 O.2     1  UNL1       -0.1499
     44 O           2.4279    2.4440   29.7383 O.2     1  UNL1       -0.1499
     45 N           1.4605    1.4498   31.3431 N.pl3   1  UNL1       -0.1925
     46 H           1.7855    0.5754   31.6578 H       1  UNL1        0.1758
     47 C           1.2669    2.5732   32.3181 C.ar    1  UNL1        0.1977
     48 N           0.2936    3.7057   32.1765 N.ar    1  UNL1       -0.1997
     49 C           0.4379    4.5938   33.3767 C.ar    1  UNL1        0.2082
     50 N           1.5005    4.0101   34.2601 N.ar    1  UNL1       -0.1840
     51 S           2.0128    2.7614   33.6058 S.2     1  UNL1        0.0508
     52 N           2.9557    5.0365   24.5866 N.1     1  UNL1       -0.1907
     53 C           2.1557    4.0498   25.3844 C.1     1  UNL1        0.1035
@<TRIPOS>BOND
     1    52    53    3
     2    53    36    1
     3    36    37   ar
     4    37    38   ar
     5    38    42    1
     6    42    43    2
     7    42    44    2
     8    42    45    1
     9    45    47    1
    10    47    48   ar
    11    48    49   ar
    12    49    50   ar
    13    50    51   ar
    14    38    39   ar
    15    39    40   ar
    16    40    41   ar
    17    41    35    1
    18    35     1    1
    19     1     2   ar
    20     2     3   ar
    21     3     4   ar
    22     4     7    1
    23     7     8   ar
    24     8     9   ar
    25     9    10   ar
    26    10    11   ar
    27    11    13    1
    28    13    14    1
    29    13    15    1
    30    13    16    1
    31    11    12   ar
    32     4     5   ar
    33     5     6   ar
    34     6    17    1
    35    17    18   ar
    36    18    19   ar
    37    19    20   ar
    38    20    21   ar
    39    21    23    1
    40    23    24    1
    41    24    26    1
    42    26    27    1
    43    27    28    1
    44    28    29    1
    45    29    30    1
    46    30    31    1
    47    31    32    1
    48    32    33    1
    49    21    22   ar
    50    41    36   ar
    51     6     1   ar
    52    22    17   ar
    53    51    47   ar
    54    12     7   ar
    55    33    28    1
    56    45    46    1
    57    24    25    1
    58    31    34    1
@<TRIPOS>MOLECULE
*****
 53 58 0 0 0
SMALL
GASTEIGER

@<TRIPOS>ATOM
      1 C           5.3570   -0.8910   23.3956 C.ar    1  UNL1        0.1452
      2 C           5.5547   -0.4218   24.8066 C.ar    1  UNL1        0.0375
      3 C           5.9292   -1.4029   25.8777 C.ar    1  UNL1        0.0031
      4 C           6.1060   -2.8532   25.5379 C.ar    1  UNL1        0.0002
      5 C           5.9083   -3.3224   24.1270 C.ar    1  UNL1        0.0030
      6 C           5.5338   -2.3413   23.0558 C.ar    1  UNL1        0.0346
      7 C           6.4804   -3.8342   26.6090 C.ar    1  UNL1       -0.0000
      8 C           6.3094   -3.4689   28.0538 C.ar    1  UNL1       -0.0000
      9 C           6.6839   -4.4499   29.1249 C.ar    1  UNL1       -0.0001
     10 C           7.2294   -5.7963   28.7512 C.ar    1  UNL1        0.0039
     11 C           7.4004   -6.1617   27.3065 C.ar    1  UNL1        0.0714
     12 C           7.0259   -5.1806   26.2354 C.ar    1  UNL1        0.0039
     13 C           7.9459   -7.5081   26.9329 C.3     1  UNL1        0.4186
     14 F           8.4914   -8.8545   26.5593 F       1  UNL1       -0.1659
     15 F           9.2490   -7.1626   27.5906 F       1  UNL1       -0.1659
     16 F           6.6428   -7.8536   26.2753 F       1  UNL1       -0.1659
     17 C           5.3361   -2.8105   21.6449 C.ar    1  UNL1        0.0057
     18 C           4.2800   -3.8295   21.3344 C.ar    1  UNL1        0.0208
     19 C           4.0823   -4.2988   19.9235 C.ar    1  UNL1        0.0985
     20 N           4.9407   -3.7490   18.8230 N.ar    1  UNL1       -0.2468
     21 C           5.9967   -2.7301   19.1335 C.ar    1  UNL1        0.0749
     22 C           6.1945   -2.2608   20.5445 C.ar    1  UNL1        0.0162
     23 C           6.8551   -2.1804   18.0330 C.3     1  UNL1        0.1151
     24 N           6.3944   -0.9891   17.2465 N.3     1  UNL1       -0.2924
     25 H           6.6459   -1.1636   16.2735 H       1  UNL1        0.1236
     26 C           4.9463   -0.5984   17.2561 C.3     1  UNL1        0.0688
     27 C           4.4649    0.4739   18.1880 C.3     1  UNL1        0.0172
     28 C           3.0946    0.3835   18.7914 C.3     1  UNL1        0.0041
     29 C           2.1430    1.5364   18.6675 C.3     1  UNL1        0.0172
     30 C           0.7727    1.4460   19.2709 C.3     1  UNL1        0.0686
     31 N           0.3540    0.2027   19.9982 N.3     1  UNL1       -0.2975
     32 C           1.3056   -0.9502   20.1221 C.3     1  UNL1        0.0686
     33 C           2.6759   -0.8598   19.5187 C.3     1  UNL1        0.0172
     34 H          -0.4765   -0.1508   19.5232 H       1  UNL1        0.1232
     35 O           4.9826    0.0900   22.3245 O.3     1  UNL1       -0.4528
     36 C           3.7328    2.3363   21.9469 C.ar    1  UNL1        0.1042
     37 C           2.5016    3.1794   22.0993 C.ar    1  UNL1        0.0335
     38 C           1.2888    2.6192   22.7816 C.ar    1  UNL1        0.1261
     39 C           1.3073    1.2161   23.3115 C.ar    1  UNL1        0.0234
     40 C           2.5385    0.3730   23.1591 C.ar    1  UNL1        0.0396
     41 C           3.7513    0.9331   22.4769 C.ar    1  UNL1        0.1549
     42 S           0.0575    3.4623   22.9339 S.O2    1  UNL1        0.0751
     43 O           0.5318    4.3552   21.8258 O.2     1  UNL1       -0.1499
     44 O          -0.4167    2.5695   24.0420 O.2     1  UNL1       -0.1499
     45 N          -1.1737    4.3054   23.0862 N.pl3   1  UNL1       -0.1925
     46 H          -1.1082    5.2061   23.4783 H       1  UNL1        0.1758
     47 C          -2.5049    3.7761   22.6412 C.ar    1  UNL1        0.1977
     48 N          -3.7002    3.5463   23.5179 N.ar    1  UNL1       -0.1997
     49 C          -4.8084    3.0119   22.6599 C.ar    1  UNL1        0.2082
     50 N          -4.2981    2.9115   21.2529 N.ar    1  UNL1       -0.1840
     51 S          -2.8745    3.3838   21.2414 S.2     1  UNL1        0.0508
     52 N           6.1584    3.4564   20.5824 N.1     1  UNL1       -0.1907
     53 C           4.9456    2.8963   21.2647 C.1     1  UNL1        0.1035
@<TRIPOS>BOND
     1    52    53    3
     2    53    36    1
     3    36    37   ar
     4    37    38   ar
     5    38    42    1
     6    42    43    2
     7    42    44    2
     8    42    45    1
     9    45    47    1
    10    47    48   ar
    11    48    49   ar
    12    49    50   ar
    13    50    51   ar
    14    38    39   ar
    15    39    40   ar
    16    40    41   ar
    17    41    35    1
    18    35     1    1
    19     1     2   ar
    20     2     3   ar
    21     3     4   ar
    22     4     7    1
    23     7     8   ar
    24     8     9   ar
    25     9    10   ar
    26    10    11   ar
    27    11    13    1
    28    13    14    1
    29    13    15    1
    30    13    16    1
    31    11    12   ar
    32     4     5   ar
    33     5     6   ar
    34     6    17    1
    35    17    18   ar
    36    18    19   ar
    37    19    20   ar
    38    20    21   ar
    39    21    23    1
    40    23    24    1
    41    24    26    1
    42    26    27    1
    43    27    28    1
    44    28    29    1
    45    29    30    1
    46    30    31    1
    47    31    32    1
    48    32    33    1
    49    21    22   ar
    50    41    36   ar
    51     6     1   ar
    52    22    17   ar
    53    51    47   ar
    54    12     7   ar
    55    33    28    1
    56    45    46    1
    57    24    25    1
    58    31    34    1
@<TRIPOS>MOLECULE
*****
 53 58 0 0 0
SMALL
GASTEIGER

@<TRIPOS>ATOM
      1 C           5.9473   -0.9958   23.6164 C.ar    1  UNL1        0.1452
      2 C           6.2168   -0.5426   25.0206 C.ar    1  UNL1        0.0375
      3 C           6.4760   -1.5532   26.0983 C.ar    1  UNL1        0.0031
      4 C           6.4656   -3.0172   25.7717 C.ar    1  UNL1        0.0002
      5 C           6.1961   -3.4705   24.3675 C.ar    1  UNL1        0.0030
      6 C           5.9369   -2.4598   23.2898 C.ar    1  UNL1        0.0346
      7 C           6.7247   -4.0279   26.8493 C.ar    1  UNL1       -0.0000
      8 C           6.4706   -3.6754   28.2850 C.ar    1  UNL1       -0.0000
      9 C           6.7297   -4.6861   29.3627 C.ar    1  UNL1       -0.0001
     10 C           7.2430   -6.0493   29.0047 C.ar    1  UNL1        0.0039
     11 C           7.4972   -6.4018   27.5691 C.ar    1  UNL1        0.0714
     12 C           7.2380   -5.3911   26.4913 C.ar    1  UNL1        0.0039
     13 C           8.0105   -7.7650   27.2111 C.3     1  UNL1        0.4186
     14 F           8.5238   -9.1283   26.8531 F       1  UNL1       -0.1659
     15 F           6.9054   -7.9178   26.2083 F       1  UNL1       -0.1659
     16 F           9.1155   -7.6123   28.2138 F       1  UNL1       -0.1659
     17 C           5.6674   -2.9131   21.8856 C.ar    1  UNL1        0.0057
     18 C           4.5296   -3.8496   21.6051 C.ar    1  UNL1        0.0208
     19 C           4.2600   -4.3029   20.2009 C.ar    1  UNL1        0.0985
     20 N           5.1282   -3.8198   19.0771 N.ar    1  UNL1       -0.2468
     21 C           6.2660   -2.8834   19.3576 C.ar    1  UNL1        0.0749
     22 C           6.5356   -2.4301   20.7618 C.ar    1  UNL1        0.0162
     23 C           7.1342   -2.4003   18.2338 C.3     1  UNL1        0.1151
     24 N           6.6383   -1.3267   17.3111 N.3     1  UNL1       -0.2924
     25 H           5.6264   -1.4377   17.2472 H       1  UNL1        0.1236
     26 C           6.8964    0.1157   17.6315 C.3     1  UNL1        0.0688
     27 C           6.1566    0.7784   18.7555 C.3     1  UNL1        0.0172
     28 C           4.6987    1.0991   18.6077 C.3     1  UNL1        0.0041
     29 C           4.2317    2.5222   18.6909 C.3     1  UNL1        0.0172
     30 C           2.7739    2.8429   18.5431 C.3     1  UNL1        0.0686
     31 N           1.7831    1.7406   18.3122 N.3     1  UNL1       -0.2975
     32 C           2.2501    0.3176   18.2291 C.3     1  UNL1        0.0686
     33 C           3.7079   -0.0031   18.3769 C.3     1  UNL1        0.0172
     34 H           1.3120    1.9478   17.4315 H       1  UNL1        0.1232
     35 O           5.6882    0.0148   22.5387 O.3     1  UNL1       -0.4528
     36 C           4.0116    1.9950   22.4027 C.ar    1  UNL1        0.1042
     37 C           2.6201    2.5054   22.1721 C.ar    1  UNL1        0.0335
     38 C           1.5137    1.5462   21.8469 C.ar    1  UNL1        0.1261
     39 C           1.7987    0.0766   21.7523 C.ar    1  UNL1        0.0234
     40 C           3.1902   -0.4339   21.9829 C.ar    1  UNL1        0.0396
     41 C           4.2967    0.5253   22.3081 C.ar    1  UNL1        0.1549
     42 S           0.1222    2.0566   21.6163 S.O2    1  UNL1        0.0751
     43 O           0.4437    3.2903   22.4067 O.2     1  UNL1       -0.1499
     44 O          -0.1994    0.8230   20.8259 O.2     1  UNL1       -0.1499
     45 N          -1.2693    2.5671   21.3857 N.pl3   1  UNL1       -0.1925
     46 H          -1.9640    2.4289   22.0695 H       1  UNL1        0.1758
     47 C          -1.6024    3.2881   20.1132 C.ar    1  UNL1        0.1977
     48 N          -0.6762    3.5028   18.9530 N.ar    1  UNL1       -0.1997
     49 C          -1.4216    4.2683   17.9003 C.ar    1  UNL1        0.2082
     50 N          -2.8085    4.5269   18.4098 N.ar    1  UNL1       -0.1840
     51 S          -2.9203    3.9210   19.7774 S.2     1  UNL1        0.0508
     52 N           6.2245    3.9132   23.0531 N.1     1  UNL1       -0.1907
     53 C           5.1181    2.9541   22.7279 C.1     1  UNL1        0.1035
@<TRIPOS>BOND
     1    52    53    3
     2    53    36    1
     3    36    37   ar
     4    37    38   ar
     5    38    42    1
     6    42    43    2
     7    42    44    2
     8    42    45    1
     9    45    47    1
    10    47    48   ar
    11    48    49   ar
    12    49    50   ar
    13    50    51   ar
    14    38    39   ar
    15    39    40   ar
    16    40    41   ar
    17    41    35    1
    18    35     1    1
    19     1     2   ar
    20     2     3   ar
    21     3     4   ar
    22     4     7    1
    23     7     8   ar
    24     8     9   ar
    25     9    10   ar
    26    10    11   ar
    27    11    13    1
    28    13    14    1
    29    13    15    1
    30    13    16    1
    31    11    12   ar
    32     4     5   ar
    33     5     6   ar
    34     6    17    1
    35    17    18   ar
    36    18    19   ar
    37    19    20   ar
    38    20    21   ar
    39    21    23    1
    40    23    24    1
    41    24    26    1
    42    26    27    1
    43    27    28    1
    44    28    29    1
    45    29    30    1
    46    30    31    1
    47    31    32    1
    48    32    33    1
    49    21    22   ar
    50    41    36   ar
    51     6     1   ar
    52    22    17   ar
    53    51    47   ar
    54    12     7   ar
    55    33    28    1
    56    45    46    1
    57    24    25    1
    58    31    34    1
@<TRIPOS>MOLECULE
*****
 53 58 0 0 0
SMALL
GASTEIGER

@<TRIPOS>ATOM
      1 C           0.8776    2.6503   20.5426 C.ar    1  UNL1        0.1452
      2 C           1.2015    1.7389   19.3961 C.ar    1  UNL1        0.0375
      3 C           1.9435    0.4588   19.6421 C.ar    1  UNL1        0.0031
      4 C           2.3615    0.0899   21.0347 C.ar    1  UNL1        0.0002
      5 C           2.0376    1.0012   22.1812 C.ar    1  UNL1        0.0030
      6 C           1.2956    2.2814   21.9352 C.ar    1  UNL1        0.0346
      7 C           3.1035   -1.1903   21.2807 C.ar    1  UNL1       -0.0000
      8 C           3.5929   -1.5204   22.6597 C.ar    1  UNL1       -0.0000
      9 C           4.3349   -2.8006   22.9057 C.ar    1  UNL1       -0.0001
     10 C           4.5875   -3.7507   21.7728 C.ar    1  UNL1        0.0039
     11 C           4.0981   -3.4206   20.3939 C.ar    1  UNL1        0.0714
     12 C           3.3561   -2.1404   20.1478 C.ar    1  UNL1        0.0039
     13 C           4.3508   -4.3707   19.2610 C.3     1  UNL1        0.4186
     14 F           4.6034   -5.3208   18.1280 F       1  UNL1       -0.1659
     15 F           2.8851   -4.3799   18.9418 F       1  UNL1       -0.1659
     16 F           5.8164   -4.3616   19.5801 F       1  UNL1       -0.1659
     17 C           0.9716    3.1927   23.0817 C.ar    1  UNL1        0.0057
     18 C           1.9028    4.3147   23.4343 C.ar    1  UNL1        0.0208
     19 C           1.5789    5.2260   24.5808 C.ar    1  UNL1        0.0985
     20 N           0.3238    5.0154   25.3748 N.ar    1  UNL1       -0.2468
     21 C          -0.6074    3.8935   25.0223 C.ar    1  UNL1        0.0749
     22 C          -0.2835    2.9822   23.8757 C.ar    1  UNL1        0.0162
     23 C          -1.8625    3.6830   25.8162 C.3     1  UNL1        0.1151
     24 N          -1.8159    2.9129   27.1026 N.3     1  UNL1       -0.2924
     25 H          -2.7703    2.6125   27.3007 H       1  UNL1        0.1236
     26 C          -0.9464    1.6960   27.2172 C.3     1  UNL1        0.0688
     27 C           0.3679    1.7782   27.9353 C.3     1  UNL1        0.0172
     28 C           1.5336    0.9614   27.4621 C.3     1  UNL1        0.0041
     29 C           2.1811    1.2713   26.1449 C.3     1  UNL1        0.0172
     30 C           3.3468    0.4545   25.6716 C.3     1  UNL1        0.0686
     31 N           3.8650   -0.6722   26.5155 N.3     1  UNL1       -0.2975
     32 C           3.2175   -0.9821   27.8326 C.3     1  UNL1        0.0686
     33 C           2.0518   -0.1653   28.3059 C.3     1  UNL1        0.0172
     34 H           4.8451   -0.4677   26.7101 H       1  UNL1        0.1232
     35 O           0.1356    3.9305   20.2966 O.3     1  UNL1       -0.4528
     36 C          -1.8177    5.2283   21.4148 C.ar    1  UNL1        0.1042
     37 C          -3.2706    5.3338   21.7727 C.ar    1  UNL1        0.0335
     38 C          -4.2230    4.2470   21.3702 C.ar    1  UNL1        0.1261
     39 C          -3.7225    3.0548   20.6099 C.ar    1  UNL1        0.0234
     40 C          -2.2696    2.9493   20.2520 C.ar    1  UNL1        0.0396
     41 C          -1.3173    4.0360   20.6545 C.ar    1  UNL1        0.1549
     42 S          -5.6759    4.3525   21.7280 S.O2    1  UNL1        0.0751
     43 O          -5.5403    3.1613   22.6295 O.2     1  UNL1       -0.1499
     44 O          -5.8114    5.5437   20.8265 O.2     1  UNL1       -0.1499
     45 N          -7.1287    4.4580   22.0859 N.pl3   1  UNL1       -0.1925
     46 H          -7.8102    4.0528   21.5021 H       1  UNL1        0.1758
     47 C          -7.5434    5.1809   23.3331 C.ar    1  UNL1        0.1977
     48 N          -8.9379    5.2698   23.8784 N.ar    1  UNL1       -0.1997
     49 C          -8.8926    6.0856   25.1363 C.ar    1  UNL1        0.2082
     50 N          -7.4700    6.5010   25.3685 N.ar    1  UNL1       -0.1840
     51 S          -6.6362    5.9418   24.2540 S.2     1  UNL1        0.0508
     52 N           0.0870    7.4017   22.2197 N.1     1  UNL1       -0.1907
     53 C          -0.8654    6.3150   21.8173 C.1     1  UNL1        0.1035
@<TRIPOS>BOND
     1    52    53    3
     2    53    36    1
     3    36    37   ar
     4    37    38   ar
     5    38    42    1
     6    42    43    2
     7    42    44    2
     8    42    45    1
     9    45    47    1
    10    47    48   ar
    11    48    49   ar
    12    49    50   ar
    13    50    51   ar
    14    38    39   ar
    15    39    40   ar
    16    40    41   ar
    17    41    35    1
    18    35     1    1
    19     1     2   ar
    20     2     3   ar
    21     3     4   ar
    22     4     7    1
    23     7     8   ar
    24     8     9   ar
    25     9    10   ar
    26    10    11   ar
    27    11    13    1
    28    13    14    1
    29    13    15    1
    30    13    16    1
    31    11    12   ar
    32     4     5   ar
    33     5     6   ar
    34     6    17    1
    35    17    18   ar
    36    18    19   ar
    37    19    20   ar
    38    20    21   ar
    39    21    23    1
    40    23    24    1
    41    24    26    1
    42    26    27    1
    43    27    28    1
    44    28    29    1
    45    29    30    1
    46    30    31    1
    47    31    32    1
    48    32    33    1
    49    21    22   ar
    50    41    36   ar
    51     6     1   ar
    52    22    17   ar
    53    51    47   ar
    54    12     7   ar
    55    33    28    1
    56    45    46    1
    57    24    25    1
    58    31    34    1
@<TRIPOS>MOLECULE
*****
 53 58 0 0 0
SMALL
GASTEIGER

@<TRIPOS>ATOM
      1 C           1.0061    1.6711   25.5818 C.ar    1  UNL1        0.1452
      2 C           1.9425    0.5881   25.1343 C.ar    1  UNL1        0.0375
      3 C           2.1082    0.2966   23.6723 C.ar    1  UNL1        0.0031
      4 C           1.3375    1.0882   22.6577 C.ar    1  UNL1        0.0002
      5 C           0.4011    2.1712   23.1051 C.ar    1  UNL1        0.0030
      6 C           0.2354    2.4627   24.5672 C.ar    1  UNL1        0.0346
      7 C           1.5032    0.7968   21.1956 C.ar    1  UNL1       -0.0000
      8 C           0.7445    1.5990   20.1803 C.ar    1  UNL1       -0.0000
      9 C           0.9102    1.3075   18.7182 C.ar    1  UNL1       -0.0001
     10 C           1.8346    0.2139   18.2715 C.ar    1  UNL1        0.0039
     11 C           2.5933   -0.5882   19.2868 C.ar    1  UNL1        0.0714
     12 C           2.4276   -0.2968   20.7489 C.ar    1  UNL1        0.0039
     13 C           3.5176   -1.6818   18.8401 C.3     1  UNL1        0.4186
     14 F           4.4420   -2.7754   18.3933 F       1  UNL1       -0.1659
     15 F           3.4671   -2.2852   20.2124 F       1  UNL1       -0.1659
     16 F           3.5682   -1.0785   17.4677 F       1  UNL1       -0.1659
     17 C          -0.7010    3.5457   25.0146 C.ar    1  UNL1        0.0057
     18 C          -0.2186    4.9629   25.1083 C.ar    1  UNL1        0.0208
     19 C          -1.1550    6.0459   25.5558 C.ar    1  UNL1        0.0985
     20 N          -2.5739    5.7117   25.9095 N.ar    1  UNL1       -0.2468
     21 C          -3.0563    4.2946   25.8157 C.ar    1  UNL1        0.0749
     22 C          -2.1199    3.2115   25.3683 C.ar    1  UNL1        0.0162
     23 C          -4.4752    3.9604   26.1694 C.3     1  UNL1        0.1151
     24 N          -5.3999    3.4126   25.1231 N.3     1  UNL1       -0.2924
     25 H          -6.1359    2.9071   25.6161 H       1  UNL1        0.1236
     26 C          -6.0813    4.3424   24.1633 C.3     1  UNL1        0.0688
     27 C          -5.9672    4.1108   22.6858 C.3     1  UNL1        0.0172
     28 C          -4.6209    4.1336   22.0248 C.3     1  UNL1        0.0041
     29 C          -4.3243    3.1933   20.8943 C.3     1  UNL1        0.0172
     30 C          -2.9779    3.2162   20.2334 C.3     1  UNL1        0.0686
     31 N          -1.9282    4.1793   20.7029 N.3     1  UNL1       -0.2975
     32 C          -2.2248    5.1196   21.8333 C.3     1  UNL1        0.0686
     33 C          -3.5711    5.0967   22.4943 C.3     1  UNL1        0.0172
     34 H          -1.6763    4.7550   19.8995 H       1  UNL1        0.1232
     35 O           0.8404    1.9625   27.0438 O.3     1  UNL1       -0.4528
     36 C           1.1700    0.2233   28.9456 C.ar    1  UNL1        0.1042
     37 C           2.0569   -0.4509   29.9500 C.ar    1  UNL1        0.0335
     38 C           3.5012   -0.0601   30.0570 C.ar    1  UNL1        0.1261
     39 C           4.0585    1.0049   29.1596 C.ar    1  UNL1        0.0234
     40 C           3.1715    1.6791   28.1553 C.ar    1  UNL1        0.0396
     41 C           1.7273    1.2883   28.0482 C.ar    1  UNL1        0.1549
     42 S           4.3881   -0.7343   31.0614 S.O2    1  UNL1        0.0751
     43 O           3.1800   -1.2903   31.7551 O.2     1  UNL1       -0.1499
     44 O           5.5963   -0.1783   30.3677 O.2     1  UNL1       -0.1499
     45 N           5.2751   -1.4085   32.0658 N.pl3   1  UNL1       -0.1925
     46 H           5.1561   -1.2290   33.0264 H       1  UNL1        0.1758
     47 C           6.3433   -2.3562   31.6064 C.ar    1  UNL1        0.1977
     48 N           6.1607   -3.4898   30.6413 N.ar    1  UNL1       -0.1997
     49 C           7.4861   -4.1708   30.4700 C.ar    1  UNL1        0.2082
     50 N           8.4880   -3.4580   31.3292 N.ar    1  UNL1       -0.1840
     51 S           7.7817   -2.3365   32.0316 S.2     1  UNL1        0.0508
     52 N          -1.7185   -0.5582   28.7315 N.1     1  UNL1       -0.1907
     53 C          -0.2742   -0.1674   28.8385 C.1     1  UNL1        0.1035
@<TRIPOS>BOND
     1    52    53    3
     2    53    36    1
     3    36    37   ar
     4    37    38   ar
     5    38    42    1
     6    42    43    2
     7    42    44    2
     8    42    45    1
     9    45    47    1
    10    47    48   ar
    11    48    49   ar
    12    49    50   ar
    13    50    51   ar
    14    38    39   ar
    15    39    40   ar
    16    40    41   ar
    17    41    35    1
    18    35     1    1
    19     1     2   ar
    20     2     3   ar
    21     3     4   ar
    22     4     7    1
    23     7     8   ar
    24     8     9   ar
    25     9    10   ar
    26    10    11   ar
    27    11    13    1
    28    13    14    1
    29    13    15    1
    30    13    16    1
    31    11    12   ar
    32     4     5   ar
    33     5     6   ar
    34     6    17    1
    35    17    18   ar
    36    18    19   ar
    37    19    20   ar
    38    20    21   ar
    39    21    23    1
    40    23    24    1
    41    24    26    1
    42    26    27    1
    43    27    28    1
    44    28    29    1
    45    29    30    1
    46    30    31    1
    47    31    32    1
    48    32    33    1
    49    21    22   ar
    50    41    36   ar
    51     6     1   ar
    52    22    17   ar
    53    51    47   ar
    54    12     7   ar
    55    33    28    1
    56    45    46    1
    57    24    25    1
    58    31    34    1
@<TRIPOS>MOLECULE
*****
 53 58 0 0 0
SMALL
GASTEIGER

@<TRIPOS>ATOM
      1 C           6.5229   -1.3716   23.1576 C.ar    1  UNL1        0.1452
      2 C           6.4849   -1.4500   24.6551 C.ar    1  UNL1        0.0375
      3 C           6.8271   -2.7356   25.3478 C.ar    1  UNL1        0.0031
      4 C           7.2074   -3.9430   24.5430 C.ar    1  UNL1        0.0002
      5 C           7.2455   -3.8647   23.0456 C.ar    1  UNL1        0.0030
      6 C           6.9032   -2.5789   22.3528 C.ar    1  UNL1        0.0346
      7 C           7.5496   -5.2287   25.2357 C.ar    1  UNL1       -0.0000
      8 C           7.8485   -6.4582   24.4300 C.ar    1  UNL1       -0.0000
      9 C           8.1907   -7.7439   25.1227 C.ar    1  UNL1       -0.0001
     10 C           8.2341   -7.8002   26.6210 C.ar    1  UNL1        0.0039
     11 C           7.9352   -6.5707   27.4267 C.ar    1  UNL1        0.0714
     12 C           7.5930   -5.2849   26.7340 C.ar    1  UNL1        0.0039
     13 C           7.9786   -6.6270   28.9250 C.3     1  UNL1        0.4186
     14 F           8.0220   -6.6832   30.4233 F       1  UNL1       -0.1659
     15 F           9.1958   -7.5010   28.8569 F       1  UNL1       -0.1659
     16 F           6.7615   -5.7529   28.9930 F       1  UNL1       -0.1659
     17 C           6.9413   -2.5006   20.8554 C.ar    1  UNL1        0.0057
     18 C           8.2563   -2.3795   20.1439 C.ar    1  UNL1        0.0208
     19 C           8.2944   -2.3012   18.6464 C.ar    1  UNL1        0.0985
     20 N           7.0175   -2.3440   17.8604 N.ar    1  UNL1       -0.2468
     21 C           5.7026   -2.4651   18.5719 C.ar    1  UNL1        0.0749
     22 C           5.6645   -2.5434   20.0694 C.ar    1  UNL1        0.0162
     23 C           4.4257   -2.5079   17.7859 C.3     1  UNL1        0.1151
     24 N           4.0692   -1.3731   16.8720 N.3     1  UNL1       -0.2924
     25 H           3.0561   -1.3960   16.7556 H       1  UNL1        0.1236
     26 C           4.4303    0.0337   17.2469 C.3     1  UNL1        0.0688
     27 C           4.1337    0.5418   18.6267 C.3     1  UNL1        0.0172
     28 C           2.7265    0.5250   19.1458 C.3     1  UNL1        0.0041
     29 C           2.2248   -0.6614   19.9146 C.3     1  UNL1        0.0172
     30 C           0.8176   -0.6782   20.4336 C.3     1  UNL1        0.0686
     31 N          -0.0879    0.4913   20.1840 N.3     1  UNL1       -0.2975
     32 C           0.4138    1.6776   19.4152 C.3     1  UNL1        0.0686
     33 C           1.8210    1.6944   18.8961 C.3     1  UNL1        0.0172
     34 H          -0.3827    0.8358   21.0977 H       1  UNL1        0.1232
     35 O           6.1807   -0.0859   22.4649 O.3     1  UNL1       -0.4528
     36 C           4.5514    1.9122   22.1435 C.ar    1  UNL1        0.1042
     37 C           3.1932    2.5227   22.3237 C.ar    1  UNL1        0.0335
     38 C           2.1061    1.7458   23.0054 C.ar    1  UNL1        0.1261
     39 C           2.3772    0.3583   23.5068 C.ar    1  UNL1        0.0234
     40 C           3.7354   -0.2522   23.3267 C.ar    1  UNL1        0.0396
     41 C           4.8225    0.5247   22.6451 C.ar    1  UNL1        0.1549
     42 S           0.7478    2.3563   23.1855 S.O2    1  UNL1        0.0751
     43 O           0.3290    1.1796   24.0161 O.2     1  UNL1       -0.1499
     44 O           1.1666    3.5330   22.3549 O.2     1  UNL1       -0.1499
     45 N          -0.6104    2.9669   23.3657 N.pl3   1  UNL1       -0.1925
     46 H          -1.2293    3.0246   22.6022 H       1  UNL1        0.1758
     47 C          -1.0256    3.4895   24.7090 C.ar    1  UNL1        0.1977
     48 N          -0.1180    4.0947   25.7386 N.ar    1  UNL1       -0.1997
     49 C          -0.9527    4.4779   26.9245 C.ar    1  UNL1        0.2082
     50 N          -2.3763    4.1095   26.6279 N.ar    1  UNL1       -0.1840
     51 S          -2.4212    3.4986   25.2586 S.2     1  UNL1        0.0508
     52 N           6.7256    3.4659   20.7803 N.1     1  UNL1       -0.1907
     53 C           5.6385    2.6890   21.4619 C.1     1  UNL1        0.1035
@<TRIPOS>BOND
     1    52    53    3
     2    53    36    1
     3    36    37   ar
     4    37    38   ar
     5    38    42    1
     6    42    43    2
     7    42    44    2
     8    42    45    1
     9    45    47    1
    10    47    48   ar
    11    48    49   ar
    12    49    50   ar
    13    50    51   ar
    14    38    39   ar
    15    39    40   ar
    16    40    41   ar
    17    41    35    1
    18    35     1    1
    19     1     2   ar
    20     2     3   ar
    21     3     4   ar
    22     4     7    1
    23     7     8   ar
    24     8     9   ar
    25     9    10   ar
    26    10    11   ar
    27    11    13    1
    28    13    14    1
    29    13    15    1
    30    13    16    1
    31    11    12   ar
    32     4     5   ar
    33     5     6   ar
    34     6    17    1
    35    17    18   ar
    36    18    19   ar
    37    19    20   ar
    38    20    21   ar
    39    21    23    1
    40    23    24    1
    41    24    26    1
    42    26    27    1
    43    27    28    1
    44    28    29    1
    45    29    30    1
    46    30    31    1
    47    31    32    1
    48    32    33    1
    49    21    22   ar
    50    41    36   ar
    51     6     1   ar
    52    22    17   ar
    53    51    47   ar
    54    12     7   ar
    55    33    28    1
    56    45    46    1
    57    24    25    1
    58    31    34    1
@<TRIPOS>MOLECULE
*****
 53 58 0 0 0
SMALL
GASTEIGER

@<TRIPOS>ATOM
      1 C           2.8659    0.3826   25.7962 C.ar    1  UNL1        0.1452
      2 C           3.7192   -0.8479   25.8858 C.ar    1  UNL1        0.0375
      3 C           4.0505   -1.6228   24.6450 C.ar    1  UNL1        0.0031
      4 C           3.5286   -1.1674   23.3145 C.ar    1  UNL1        0.0002
      5 C           2.6754    0.0630   23.2248 C.ar    1  UNL1        0.0030
      6 C           2.3440    0.8380   24.4657 C.ar    1  UNL1        0.0346
      7 C           3.8600   -1.9423   22.0738 C.ar    1  UNL1       -0.0000
      8 C           4.3917   -3.3407   22.1824 C.ar    1  UNL1       -0.0000
      9 C           4.7231   -4.1157   20.9417 C.ar    1  UNL1       -0.0001
     10 C           4.5227   -3.4923   19.5921 C.ar    1  UNL1        0.0039
     11 C           3.9910   -2.0940   19.4834 C.ar    1  UNL1        0.0714
     12 C           3.6596   -1.3189   20.7242 C.ar    1  UNL1        0.0039
     13 C           3.7906   -1.4706   18.1339 C.3     1  UNL1        0.4186
     14 F           3.5902   -0.8472   16.7843 F       1  UNL1       -0.1659
     15 F           4.8808   -2.3347   17.5728 F       1  UNL1       -0.1659
     16 F           2.7005   -0.6064   18.6949 F       1  UNL1       -0.1659
     17 C           1.4908    2.0684   24.3760 C.ar    1  UNL1        0.0057
     18 C           2.0700    3.3457   23.8437 C.ar    1  UNL1        0.0208
     19 C           1.2168    4.5761   23.7540 C.ar    1  UNL1        0.0985
     20 N          -0.2157    4.5293   24.1965 N.ar    1  UNL1       -0.2468
     21 C          -0.7949    3.2522   24.7288 C.ar    1  UNL1        0.0749
     22 C           0.0583    2.0217   24.8185 C.ar    1  UNL1        0.0162
     23 C          -2.2274    3.2054   25.1713 C.3     1  UNL1        0.1151
     24 N          -2.6788    4.0309   26.3394 N.3     1  UNL1       -0.2924
     25 H          -1.8420    4.4510   26.7441 H       1  UNL1        0.1236
     26 C          -3.6659    5.1419   26.1359 C.3     1  UNL1        0.0688
     27 C          -5.1347    4.8771   26.2859 C.3     1  UNL1        0.0172
     28 C          -6.0168    4.8345   25.0735 C.3     1  UNL1        0.0041
     29 C          -7.3010    5.6094   25.0528 C.3     1  UNL1        0.0172
     30 C          -8.1832    5.5667   23.8403 C.3     1  UNL1        0.0686
     31 N          -7.7810    4.7493   22.6486 N.3     1  UNL1       -0.2975
     32 C          -6.4968    3.9745   22.6693 C.3     1  UNL1        0.0686
     33 C          -5.6147    4.0171   23.8818 C.3     1  UNL1        0.0172
     34 H          -7.7254    5.3903   21.8571 H       1  UNL1        0.1232
     35 O           2.5345    1.1576   27.0370 O.3     1  UNL1       -0.4528
     36 C           2.1918    0.0417   29.3581 C.ar    1  UNL1        0.1042
     37 C           2.7418   -0.3941   30.6838 C.ar    1  UNL1        0.0335
     38 C           4.1845   -0.1498   31.0142 C.ar    1  UNL1        0.1261
     39 C           5.0771    0.5302   30.0188 C.ar    1  UNL1        0.0234
     40 C           4.5271    0.9660   28.6931 C.ar    1  UNL1        0.0396
     41 C           3.0845    0.7218   28.3627 C.ar    1  UNL1        0.1549
     42 S           4.7345   -0.5857   32.3399 S.O2    1  UNL1        0.0751
     43 O           3.4931   -1.3894   32.5907 O.2     1  UNL1       -0.1499
     44 O           5.9759    0.2181   32.0891 O.2     1  UNL1       -0.1499
     45 N           5.2845   -1.0215   33.6657 N.pl3   1  UNL1       -0.1925
     46 H           5.7935   -1.8613   33.7354 H       1  UNL1        0.1758
     47 C           5.0590   -0.1776   34.8852 C.ar    1  UNL1        0.1977
     48 N           4.0535    0.9274   35.0192 N.ar    1  UNL1       -0.1997
     49 C           4.1725    1.4972   36.4016 C.ar    1  UNL1        0.2082
     50 N           5.2515    0.7443   37.1221 N.ar    1  UNL1       -0.1840
     51 S           5.7993   -0.2908   36.1849 S.2     1  UNL1        0.0508
     52 N          -0.6934   -0.4468   28.6973 N.1     1  UNL1       -0.1907
     53 C           0.7492   -0.2025   29.0277 C.1     1  UNL1        0.1035
@<TRIPOS>BOND
     1    52    53    3
     2    53    36    1
     3    36    37   ar
     4    37    38   ar
     5    38    42    1
     6    42    43    2
     7    42    44    2
     8    42    45    1
     9    45    47    1
    10    47    48   ar
    11    48    49   ar
    12    49    50   ar
    13    50    51   ar
    14    38    39   ar
    15    39    40   ar
    16    40    41   ar
    17    41    35    1
    18    35     1    1
    19     1     2   ar
    20     2     3   ar
    21     3     4   ar
    22     4     7    1
    23     7     8   ar
    24     8     9   ar
    25     9    10   ar
    26    10    11   ar
    27    11    13    1
    28    13    14    1
    29    13    15    1
    30    13    16    1
    31    11    12   ar
    32     4     5   ar
    33     5     6   ar
    34     6    17    1
    35    17    18   ar
    36    18    19   ar
    37    19    20   ar
    38    20    21   ar
    39    21    23    1
    40    23    24    1
    41    24    26    1
    42    26    27    1
    43    27    28    1
    44    28    29    1
    45    29    30    1
    46    30    31    1
    47    31    32    1
    48    32    33    1
    49    21    22   ar
    50    41    36   ar
    51     6     1   ar
    52    22    17   ar
    53    51    47   ar
    54    12     7   ar
    55    33    28    1
    56    45    46    1
    57    24    25    1
    58    31    34    1
