@<TRIPOS>MOLECULE
*****
 40 45 0 0 0
SMALL
GASTEIGER

@<TRIPOS>ATOM
      1 C           7.6527   -2.6688   20.8487 C.2     1  UNL1        0.2553
      2 O           8.9183   -2.0986   20.2800 O.2     1  UNL1       -0.2720
      3 N           7.6064   -3.1100   22.2816 N.am    1  UNL1       -0.2773
      4 C           8.8257   -2.9811   23.1458 C.3     1  UNL1        0.0952
      5 C           8.7793   -3.4223   24.5787 C.3     1  UNL1        0.0413
      6 C           7.5138   -3.9925   25.1474 C.3     1  UNL1        0.0765
      7 C           6.2945   -4.1214   24.2831 C.3     1  UNL1        0.0413
      8 C           6.3409   -3.6801   22.8502 C.3     1  UNL1        0.0952
      9 N           7.4675   -4.4337   26.5802 N.pl3   1  UNL1       -0.3054
     10 C           6.9711   -3.4122   27.5601 C.3     1  UNL1        0.1174
     11 C           6.8083   -3.5428   29.0455 C.ar    1  UNL1       -0.0060
     12 C           6.2786   -2.2773   29.6521 C.ar    1  UNL1       -0.0029
     13 C           6.0423   -2.1962   31.1311 C.ar    1  UNL1       -0.0003
     14 C           6.3358   -3.3805   32.0036 C.ar    1  UNL1       -0.0003
     15 C           6.8654   -4.6460   31.3970 C.ar    1  UNL1       -0.0042
     16 C           7.1017   -4.7271   29.9180 C.ar    1  UNL1       -0.0201
     17 C           7.6304   -6.0734   29.5204 C.3     1  UNL1        0.0536
     18 C           7.9962   -6.5679   28.1523 C.ar    1  UNL1       -0.0045
     19 C           8.4878   -7.9844   28.1948 C.ar    1  UNL1       -0.0027
     20 C           8.9068   -8.6712   26.9288 C.ar    1  UNL1       -0.0002
     21 C           8.8343   -7.9415   25.6204 C.ar    1  UNL1        0.0012
     22 C           8.3428   -6.5249   25.5778 C.ar    1  UNL1        0.0142
     23 C           7.9237   -5.8381   26.8438 C.ar    1  UNL1        0.0443
     24 N           4.3509   -1.0789   18.6773 N.3     1  UNL1       -0.2688
     25 C           4.3037   -2.5692   18.5142 C.3     1  UNL1        0.0756
     26 C           5.3449   -3.4286   19.1678 C.3     1  UNL1        0.0590
     27 C           6.4335   -2.7976   19.9844 C.3     1  UNL1        0.2042
     28 F           6.8097   -4.2432   20.1215 F       1  UNL1       -0.2306
     29 C           6.4807   -1.3073   20.1475 C.3     1  UNL1        0.0590
     30 C           5.4394   -0.4479   19.4940 C.3     1  UNL1        0.0756
     31 C           3.3096   -0.2196   18.0237 C.3     1  UNL1        0.0993
     32 N          -0.2555    3.4333   18.9965 N.pl3   1  UNL1       -0.3426
     33 C           0.3526    2.0971   19.3041 C.ar    1  UNL1        0.1251
     34 C           1.5270    1.6069   18.5101 C.ar    1  UNL1        0.0310
     35 C           2.1352    0.2706   18.8177 C.ar    1  UNL1       -0.0018
     36 C           1.5689   -0.5754   19.9193 C.ar    1  UNL1        0.0179
     37 C           0.3945   -0.0852   20.7134 C.ar    1  UNL1        0.1000
     38 N          -0.2137    1.2510   20.4058 N.ar    1  UNL1       -0.2296
     39 H           0.1161    3.9886   18.2734 H       1  UNL1        0.1437
     40 H          -1.0263    3.7550   19.5176 H       1  UNL1        0.1437
@<TRIPOS>BOND
     1    32    33    1
     2    33    34   ar
     3    34    35   ar
     4    35    31    1
     5    31    24    1
     6    24    25    1
     7    25    26    1
     8    26    27    1
     9    27    28    1
    10    27     1    1
    11     1     2    2
    12     1     3   am
    13     3     4    1
    14     4     5    1
    15     5     6    1
    16     6     9    1
    17     9    10    1
    18    10    11    1
    19    11    12   ar
    20    12    13   ar
    21    13    14   ar
    22    14    15   ar
    23    15    16   ar
    24    16    17    1
    25    17    18    1
    26    18    19   ar
    27    19    20   ar
    28    20    21   ar
    29    21    22   ar
    30    22    23   ar
    31     6     7    1
    32     7     8    1
    33    27    29    1
    34    29    30    1
    35    35    36   ar
    36    36    37   ar
    37    37    38   ar
    38    38    33   ar
    39    30    24    1
    40     8     3    1
    41    23     9    1
    42    16    11   ar
    43    23    18   ar
    44    32    39    1
    45    32    40    1
@<TRIPOS>MOLECULE
*****
 40 45 0 0 0
SMALL
GASTEIGER

@<TRIPOS>ATOM
      1 C           2.5596    0.3673   30.8112 C.2     1  UNL1        0.2553
      2 O           2.4404   -1.0796   31.1887 O.2     1  UNL1       -0.2720
      3 N           1.6996    0.9308   29.7191 N.am    1  UNL1       -0.2773
      4 C           0.7203    0.0475   29.0044 C.3     1  UNL1        0.0952
      5 C          -0.1397    0.6111   27.9122 C.3     1  UNL1        0.0413
      6 C          -0.0204    2.0580   27.5348 C.3     1  UNL1        0.0765
      7 C           0.9589    2.9413   28.2495 C.3     1  UNL1        0.0413
      8 C           1.8189    2.3777   29.3417 C.3     1  UNL1        0.0952
      9 N          -0.8804    2.6215   26.4427 N.pl3   1  UNL1       -0.3054
     10 C          -2.1673    3.2511   26.8870 C.3     1  UNL1        0.1174
     11 C          -3.2315    3.8956   26.0491 C.ar    1  UNL1       -0.0060
     12 C          -4.3625    4.4022   26.8941 C.ar    1  UNL1       -0.0029
     13 C          -5.5336    5.0829   26.2498 C.ar    1  UNL1       -0.0003
     14 C          -5.5736    5.2571   24.7605 C.ar    1  UNL1       -0.0003
     15 C          -4.4426    4.7505   23.9154 C.ar    1  UNL1       -0.0042
     16 C          -3.2715    4.0698   24.5598 C.ar    1  UNL1       -0.0201
     17 C          -2.2573    3.6424   23.5406 C.3     1  UNL1        0.0536
     18 C          -0.9525    2.9353   23.7589 C.ar    1  UNL1       -0.0045
     19 C          -0.2368    2.6930   22.4632 C.ar    1  UNL1       -0.0027
     20 C           1.0916    1.9964   22.4589 C.ar    1  UNL1       -0.0002
     21 C           1.7043    1.5421   23.7504 C.ar    1  UNL1        0.0012
     22 C           0.9886    1.7844   25.0463 C.ar    1  UNL1        0.0142
     23 C          -0.3398    2.4810   25.0505 C.ar    1  UNL1        0.0443
     24 N           3.7938    2.8047   34.0793 N.3     1  UNL1       -0.2688
     25 C           4.9180    2.8041   33.0863 C.3     1  UNL1        0.0756
     26 C           4.7906    2.0270   31.8096 C.3     1  UNL1        0.0590
     27 C           3.5389    1.2505   31.5260 C.3     1  UNL1        0.2042
     28 F           4.3230    0.9432   30.2847 F       1  UNL1       -0.2306
     29 C           2.4147    1.2511   32.5190 C.3     1  UNL1        0.0590
     30 C           2.5421    2.0282   33.7957 C.3     1  UNL1        0.0756
     31 C           3.9213    3.5818   35.3560 C.3     1  UNL1        0.0993
     32 N           0.3204    2.5946   38.9697 N.pl3   1  UNL1       -0.3426
     33 C           1.7269    2.4592   38.4664 C.ar    1  UNL1        0.1251
     34 C           2.1209    3.0882   37.1628 C.ar    1  UNL1        0.0310
     35 C           3.5274    2.9528   36.6595 C.ar    1  UNL1       -0.0018
     36 C           4.5400    2.1884   37.4597 C.ar    1  UNL1        0.0179
     37 C           4.1461    1.5594   38.7633 C.ar    1  UNL1        0.1000
     38 N           2.7396    1.6948   39.2666 N.ar    1  UNL1       -0.2296
     39 H          -0.3442    3.0963   38.4445 H       1  UNL1        0.1437
     40 H           0.0619    2.1818   39.8253 H       1  UNL1        0.1437
@<TRIPOS>BOND
     1    32    33    1
     2    33    34   ar
     3    34    35   ar
     4    35    31    1
     5    31    24    1
     6    24    25    1
     7    25    26    1
     8    26    27    1
     9    27    28    1
    10    27     1    1
    11     1     2    2
    12     1     3   am
    13     3     4    1
    14     4     5    1
    15     5     6    1
    16     6     9    1
    17     9    10    1
    18    10    11    1
    19    11    12   ar
    20    12    13   ar
    21    13    14   ar
    22    14    15   ar
    23    15    16   ar
    24    16    17    1
    25    17    18    1
    26    18    19   ar
    27    19    20   ar
    28    20    21   ar
    29    21    22   ar
    30    22    23   ar
    31     6     7    1
    32     7     8    1
    33    27    29    1
    34    29    30    1
    35    35    36   ar
    36    36    37   ar
    37    37    38   ar
    38    38    33   ar
    39    30    24    1
    40     8     3    1
    41    23     9    1
    42    16    11   ar
    43    23    18   ar
    44    32    39    1
    45    32    40    1
@<TRIPOS>MOLECULE
*****
 40 45 0 0 0
SMALL
GASTEIGER

@<TRIPOS>ATOM
      1 C           7.0429   -4.6670   31.2857 C.2     1  UNL1        0.2553
      2 O           6.9100   -5.9508   32.0501 O.2     1  UNL1       -0.2720
      3 N           6.2202   -3.4744   31.6738 N.am    1  UNL1       -0.2773
      4 C           5.2645   -3.5655   32.8264 C.3     1  UNL1        0.0952
      5 C           4.4418   -2.3727   33.2145 C.3     1  UNL1        0.0413
      6 C           4.5747   -1.0890   32.4501 C.3     1  UNL1        0.0765
      7 C           5.5305   -0.9979   31.2975 C.3     1  UNL1        0.0413
      8 C           6.3532   -2.1906   30.9094 C.3     1  UNL1        0.0952
      9 N           3.7521    0.1036   32.8382 N.pl3   1  UNL1       -0.3054
     10 C           4.0919    0.7266   34.1597 C.3     1  UNL1        0.1174
     11 C           3.4619    1.9154   34.8230 C.ar    1  UNL1       -0.0060
     12 C           4.1041    2.2089   36.1464 C.ar    1  UNL1       -0.0029
     13 C           3.6208    3.3618   36.9752 C.ar    1  UNL1       -0.0003
     14 C           2.4953    4.2213   36.4807 C.ar    1  UNL1       -0.0003
     15 C           1.8531    3.9279   35.1573 C.ar    1  UNL1       -0.0042
     16 C           2.3364    2.7749   34.3284 C.ar    1  UNL1       -0.0201
     17 C           1.5630    2.6578   33.0485 C.3     1  UNL1        0.0536
     18 C           1.7239    1.6524   31.9470 C.ar    1  UNL1       -0.0045
     19 C           0.7424    1.8921   30.8384 C.ar    1  UNL1       -0.0027
     20 C           0.7350    0.9951   29.6362 C.ar    1  UNL1       -0.0002
     21 C           1.7092   -0.1416   29.5426 C.ar    1  UNL1        0.0012
     22 C           2.6908   -0.3813   30.6513 C.ar    1  UNL1        0.0142
     23 C           2.6982    0.5157   31.8535 C.ar    1  UNL1        0.0443
     24 N           8.2643   -5.4950   27.2898 N.3     1  UNL1       -0.2688
     25 C           9.3484   -4.6684   27.9151 C.3     1  UNL1        0.0756
     26 C           9.2157   -4.2088   29.3368 C.3     1  UNL1        0.0590
     27 C           7.9987   -4.5760   30.1331 C.3     1  UNL1        0.2042
     28 F           8.7509   -3.7809   31.1588 F       1  UNL1       -0.2306
     29 C           6.9145   -5.4027   29.5077 C.3     1  UNL1        0.0590
     30 C           7.0473   -5.8622   28.0860 C.3     1  UNL1        0.0756
     31 C           8.3971   -5.9546   25.8681 C.3     1  UNL1        0.0993
     32 N           4.7722   -2.6169   24.2189 N.pl3   1  UNL1       -0.3426
     33 C           5.9584   -3.4905   23.9366 C.ar    1  UNL1        0.1251
     34 C           6.5847   -4.2857   25.0435 C.ar    1  UNL1        0.0310
     35 C           7.7710   -5.1593   24.7611 C.ar    1  UNL1       -0.0018
     36 C           8.3309   -5.2376   23.3718 C.ar    1  UNL1        0.0179
     37 C           7.7047   -4.4423   22.2648 C.ar    1  UNL1        0.1000
     38 N           6.5185   -3.5688   22.5472 N.ar    1  UNL1       -0.2296
     39 H           4.4047   -2.5656   25.1308 H       1  UNL1        0.1437
     40 H           4.3612   -2.0950   23.4924 H       1  UNL1        0.1437
@<TRIPOS>BOND
     1    32    33    1
     2    33    34   ar
     3    34    35   ar
     4    35    31    1
     5    31    24    1
     6    24    25    1
     7    25    26    1
     8    26    27    1
     9    27    28    1
    10    27     1    1
    11     1     2    2
    12     1     3   am
    13     3     4    1
    14     4     5    1
    15     5     6    1
    16     6     9    1
    17     9    10    1
    18    10    11    1
    19    11    12   ar
    20    12    13   ar
    21    13    14   ar
    22    14    15   ar
    23    15    16   ar
    24    16    17    1
    25    17    18    1
    26    18    19   ar
    27    19    20   ar
    28    20    21   ar
    29    21    22   ar
    30    22    23   ar
    31     6     7    1
    32     7     8    1
    33    27    29    1
    34    29    30    1
    35    35    36   ar
    36    36    37   ar
    37    37    38   ar
    38    38    33   ar
    39    30    24    1
    40     8     3    1
    41    23     9    1
    42    16    11   ar
    43    23    18   ar
    44    32    39    1
    45    32    40    1
@<TRIPOS>MOLECULE
*****
 40 45 0 0 0
SMALL
GASTEIGER

@<TRIPOS>ATOM
      1 C           5.1838   -2.7939   19.7737 C.2     1  UNL1        0.2553
      2 O           4.7995   -3.7686   18.7001 O.2     1  UNL1       -0.2720
      3 N           4.1695   -1.8253   20.3054 N.am    1  UNL1       -0.2773
      4 C           2.7707   -1.8312   19.7635 C.3     1  UNL1        0.0952
      5 C           1.7564   -0.8624   20.2952 C.3     1  UNL1        0.0413
      6 C           2.1407    0.1121   21.3687 C.3     1  UNL1        0.0765
      7 C           3.5395    0.1180   21.9106 C.3     1  UNL1        0.0413
      8 C           4.5538   -0.8507   21.3789 C.3     1  UNL1        0.0952
      9 N           1.1264    1.0808   21.9004 N.pl3   1  UNL1       -0.3054
     10 C           0.8789    1.0183   23.3785 C.3     1  UNL1        0.1174
     11 C          -0.0624    1.8434   24.2050 C.ar    1  UNL1       -0.0060
     12 C          -0.0022    1.4578   25.6533 C.ar    1  UNL1       -0.0029
     13 C          -0.8683    2.1637   26.6540 C.ar    1  UNL1       -0.0003
     14 C          -1.7947    3.2553   26.2064 C.ar    1  UNL1       -0.0003
     15 C          -1.8549    3.6409   24.7581 C.ar    1  UNL1       -0.0042
     16 C          -0.9888    2.9350   23.7574 C.ar    1  UNL1       -0.0201
     17 C          -1.2027    3.4709   22.3728 C.3     1  UNL1        0.0536
     18 C          -0.5430    3.0478   21.0938 C.ar    1  UNL1       -0.0045
     19 C          -1.0463    3.8454   19.9275 C.ar    1  UNL1       -0.0027
     20 C          -0.5131    3.5794   18.5509 C.ar    1  UNL1       -0.0002
     21 C           0.5234    2.5158   18.3407 C.ar    1  UNL1        0.0012
     22 C           1.0267    1.7181   19.5070 C.ar    1  UNL1        0.0142
     23 C           0.4936    1.9840   20.8836 C.ar    1  UNL1        0.0443
     24 N           8.1508   -3.8528   22.6408 N.3     1  UNL1       -0.2688
     25 C           8.8339   -3.0293   21.5895 C.3     1  UNL1        0.0756
     26 C           8.0498   -2.4970   20.4268 C.3     1  UNL1        0.0590
     27 C           6.5826   -2.7881   20.3156 C.3     1  UNL1        0.2042
     28 F           6.7798   -1.9667   19.0760 F       1  UNL1       -0.2306
     29 C           5.8995   -3.6116   21.3669 C.3     1  UNL1        0.0590
     30 C           6.6836   -4.1439   22.5295 C.3     1  UNL1        0.0756
     31 C           8.9351   -4.3851   23.8034 C.3     1  UNL1        0.0993
     32 N           5.8260   -5.6467   27.7710 N.pl3   1  UNL1       -0.3426
     33 C           6.7779   -6.0546   26.6859 C.ar    1  UNL1        0.1251
     34 C           7.3805   -5.0159   25.7872 C.ar    1  UNL1        0.0310
     35 C           8.3325   -5.4239   24.7020 C.ar    1  UNL1       -0.0018
     36 C           8.6817   -6.8706   24.5157 C.ar    1  UNL1        0.0179
     37 C           8.0790   -7.9095   25.4144 C.ar    1  UNL1        0.1000
     38 N           7.1271   -7.5015   26.4995 N.ar    1  UNL1       -0.2296
     39 H           5.5968   -4.6971   27.8933 H       1  UNL1        0.1437
     40 H           5.4305   -6.3285   28.3608 H       1  UNL1        0.1437
@<TRIPOS>BOND
     1    32    33    1
     2    33    34   ar
     3    34    35   ar
     4    35    31    1
     5    31    24    1
     6    24    25    1
     7    25    26    1
     8    26    27    1
     9    27    28    1
    10    27     1    1
    11     1     2    2
    12     1     3   am
    13     3     4    1
    14     4     5    1
    15     5     6    1
    16     6     9    1
    17     9    10    1
    18    10    11    1
    19    11    12   ar
    20    12    13   ar
    21    13    14   ar
    22    14    15   ar
    23    15    16   ar
    24    16    17    1
    25    17    18    1
    26    18    19   ar
    27    19    20   ar
    28    20    21   ar
    29    21    22   ar
    30    22    23   ar
    31     6     7    1
    32     7     8    1
    33    27    29    1
    34    29    30    1
    35    35    36   ar
    36    36    37   ar
    37    37    38   ar
    38    38    33   ar
    39    30    24    1
    40     8     3    1
    41    23     9    1
    42    16    11   ar
    43    23    18   ar
    44    32    39    1
    45    32    40    1
@<TRIPOS>MOLECULE
*****
 40 45 0 0 0
SMALL
GASTEIGER

@<TRIPOS>ATOM
      1 C          -2.0444    4.5760   20.3625 C.2     1  UNL1        0.2553
      2 O          -3.0185    4.9949   19.3014 O.2     1  UNL1       -0.2720
      3 N          -0.8710    3.7129   20.0048 N.am    1  UNL1       -0.2773
      4 C          -0.6716    3.2686   18.5861 C.3     1  UNL1        0.0952
      5 C           0.5019    2.4054   18.2284 C.3     1  UNL1        0.0413
      6 C           1.4760    1.9866   19.2895 C.3     1  UNL1        0.0765
      7 C           1.2766    2.4310   20.7082 C.3     1  UNL1        0.0413
      8 C           0.1031    3.2941   21.0659 C.3     1  UNL1        0.0952
      9 N           2.6494    1.1235   18.9318 N.pl3   1  UNL1       -0.3054
     10 C           2.4890   -0.3415   19.2111 C.3     1  UNL1        0.1174
     11 C           3.4676   -1.4524   18.9697 C.ar    1  UNL1       -0.0060
     12 C           2.9076   -2.7778   19.3932 C.ar    1  UNL1       -0.0029
     13 C           3.7284   -4.0234   19.2365 C.ar    1  UNL1       -0.0003
     14 C           5.1093   -3.9436   18.6561 C.ar    1  UNL1       -0.0003
     15 C           5.6693   -2.6182   18.2326 C.ar    1  UNL1       -0.0042
     16 C           4.8485   -1.3725   18.3893 C.ar    1  UNL1       -0.0201
     17 C           5.5918   -0.1621   17.9071 C.3     1  UNL1        0.0536
     18 C           5.1378    1.2674   17.8860 C.ar    1  UNL1       -0.0045
     19 C           6.1939    2.1696   17.3198 C.ar    1  UNL1       -0.0027
     20 C           5.9405    3.6439   17.2095 C.ar    1  UNL1       -0.0002
     21 C           4.6311    4.2160   17.6655 C.ar    1  UNL1        0.0012
     22 C           3.5750    3.3138   18.2318 C.ar    1  UNL1        0.0142
     23 C           3.8283    1.8395   18.3421 C.ar    1  UNL1        0.0443
     24 N          -3.8917    4.3375   24.1933 N.3     1  UNL1       -0.2688
     25 C          -2.8981    5.4594   24.2569 C.3     1  UNL1        0.0756
     26 C          -2.0742    5.8009   23.0509 C.3     1  UNL1        0.0590
     27 C          -2.2439    5.0204   21.7813 C.3     1  UNL1        0.2042
     28 F          -1.1810    5.9880   21.3521 F       1  UNL1       -0.2306
     29 C          -3.2375    3.8985   21.7177 C.3     1  UNL1        0.0590
     30 C          -4.0614    3.5570   22.9237 C.3     1  UNL1        0.0756
     31 C          -4.7155    3.9961   25.3995 C.3     1  UNL1        0.0993
     32 N          -6.9307    6.9221   29.0779 N.pl3   1  UNL1       -0.3426
     33 C          -6.9235    6.3780   27.6801 C.ar    1  UNL1        0.1251
     34 C          -5.8231    5.4591   27.2387 C.ar    1  UNL1        0.0310
     35 C          -5.8159    4.9149   25.8408 C.ar    1  UNL1       -0.0018
     36 C          -6.9089    5.2897   24.8845 C.ar    1  UNL1        0.0179
     37 C          -8.0094    6.2086   25.3259 C.ar    1  UNL1        0.1000
     38 N          -8.0166    6.7527   26.7236 N.ar    1  UNL1       -0.2296
     39 H          -6.2133    6.6762   29.7056 H       1  UNL1        0.1437
     40 H          -7.6529    7.5252   29.3676 H       1  UNL1        0.1437
@<TRIPOS>BOND
     1    32    33    1
     2    33    34   ar
     3    34    35   ar
     4    35    31    1
     5    31    24    1
     6    24    25    1
     7    25    26    1
     8    26    27    1
     9    27    28    1
    10    27     1    1
    11     1     2    2
    12     1     3   am
    13     3     4    1
    14     4     5    1
    15     5     6    1
    16     6     9    1
    17     9    10    1
    18    10    11    1
    19    11    12   ar
    20    12    13   ar
    21    13    14   ar
    22    14    15   ar
    23    15    16   ar
    24    16    17    1
    25    17    18    1
    26    18    19   ar
    27    19    20   ar
    28    20    21   ar
    29    21    22   ar
    30    22    23   ar
    31     6     7    1
    32     7     8    1
    33    27    29    1
    34    29    30    1
    35    35    36   ar
    36    36    37   ar
    37    37    38   ar
    38    38    33   ar
    39    30    24    1
    40     8     3    1
    41    23     9    1
    42    16    11   ar
    43    23    18   ar
    44    32    39    1
    45    32    40    1
@<TRIPOS>MOLECULE
*****
 40 45 0 0 0
SMALL
GASTEIGER

@<TRIPOS>ATOM
      1 C           3.2318    2.0125   18.6428 C.2     1  UNL1        0.2553
      2 O           3.9558    3.1524   17.9897 O.2     1  UNL1       -0.2720
      3 N           2.0939    2.2858   19.5810 N.am    1  UNL1       -0.2773
      4 C           1.6799    3.6992   19.8662 C.3     1  UNL1        0.0952
      5 C           0.5419    3.9725   20.8044 C.3     1  UNL1        0.0413
      6 C          -0.1821    2.8326   21.4575 C.3     1  UNL1        0.0765
      7 C           0.2319    1.4193   21.1723 C.3     1  UNL1        0.0413
      8 C           1.3699    1.1460   20.2340 C.3     1  UNL1        0.0952
      9 N          -1.3200    3.1060   22.3957 N.pl3   1  UNL1       -0.3054
     10 C          -2.6405    3.4018   21.7485 C.3     1  UNL1        0.1174
     11 C          -3.9542    3.7121   22.4028 C.ar    1  UNL1       -0.0060
     12 C          -5.0310    3.9473   21.3855 C.ar    1  UNL1       -0.0029
     13 C          -6.4255    4.2736   21.8314 C.ar    1  UNL1       -0.0003
     14 C          -6.7431    4.3647   23.2946 C.ar    1  UNL1       -0.0003
     15 C          -5.6662    4.1295   24.3119 C.ar    1  UNL1       -0.0042
     16 C          -4.2717    3.8032   23.8660 C.ar    1  UNL1       -0.0201
     17 C          -3.3541    3.6065   25.0362 C.3     1  UNL1        0.0536
     18 C          -1.8923    3.2702   25.0323 C.ar    1  UNL1       -0.0045
     19 C          -1.3509    3.1628   26.4270 C.ar    1  UNL1       -0.0027
     20 C           0.0957    2.8327   26.6467 C.ar    1  UNL1       -0.0002
     21 C           1.0010    2.6099   25.4716 C.ar    1  UNL1        0.0012
     22 C           0.4596    2.7173   24.0768 C.ar    1  UNL1        0.0142
     23 C          -0.9871    3.0474   23.8571 C.ar    1  UNL1        0.0443
     24 N           5.9315   -1.2743   18.8723 N.3     1  UNL1       -0.2688
     25 C           4.7383   -1.7431   18.0937 C.3     1  UNL1        0.0756
     26 C           3.5954   -0.8064   17.8363 C.3     1  UNL1        0.0590
     27 C           3.6458    0.5992   18.3575 C.3     1  UNL1        0.2042
     28 F           2.3087    0.6213   17.6780 F       1  UNL1       -0.2306
     29 C           4.8391    1.0680   19.1362 C.3     1  UNL1        0.0590
     30 C           5.9820    0.1313   19.3936 C.3     1  UNL1        0.0756
     31 C           7.0744   -2.2112   19.1296 C.3     1  UNL1        0.0993
     32 N           9.3434   -5.8388   22.0778 N.pl3   1  UNL1       -0.3426
     33 C           8.2071   -4.8921   21.8276 C.ar    1  UNL1        0.1251
     34 C           8.2089   -4.0250   20.6037 C.ar    1  UNL1        0.0310
     35 C           7.0725   -3.0783   20.3535 C.ar    1  UNL1       -0.0018
     36 C           5.9344   -2.9988   21.3273 C.ar    1  UNL1        0.0179
     37 C           5.9325   -3.8660   22.5513 C.ar    1  UNL1        0.1000
     38 N           7.0688   -4.8126   22.8014 N.ar    1  UNL1       -0.2296
     39 H          10.0904   -5.8909   21.4387 H       1  UNL1        0.1437
     40 H           9.3422   -6.4079   22.8811 H       1  UNL1        0.1437
@<TRIPOS>BOND
     1    32    33    1
     2    33    34   ar
     3    34    35   ar
     4    35    31    1
     5    31    24    1
     6    24    25    1
     7    25    26    1
     8    26    27    1
     9    27    28    1
    10    27     1    1
    11     1     2    2
    12     1     3   am
    13     3     4    1
    14     4     5    1
    15     5     6    1
    16     6     9    1
    17     9    10    1
    18    10    11    1
    19    11    12   ar
    20    12    13   ar
    21    13    14   ar
    22    14    15   ar
    23    15    16   ar
    24    16    17    1
    25    17    18    1
    26    18    19   ar
    27    19    20   ar
    28    20    21   ar
    29    21    22   ar
    30    22    23   ar
    31     6     7    1
    32     7     8    1
    33    27    29    1
    34    29    30    1
    35    35    36   ar
    36    36    37   ar
    37    37    38   ar
    38    38    33   ar
    39    30    24    1
    40     8     3    1
    41    23     9    1
    42    16    11   ar
    43    23    18   ar
    44    32    39    1
    45    32    40    1
@<TRIPOS>MOLECULE
*****
 40 45 0 0 0
SMALL
GASTEIGER

@<TRIPOS>ATOM
      1 C           0.8077    1.2936   29.3719 C.2     1  UNL1        0.2553
      2 O          -0.4931    0.9648   30.0429 O.2     1  UNL1       -0.2720
      3 N           0.9007    1.2923   27.8749 N.am    1  UNL1       -0.2773
      4 C          -0.3070    0.9623   27.0486 C.3     1  UNL1        0.0952
      5 C          -0.2139    0.9610   25.5515 C.3     1  UNL1        0.0413
      6 C           1.0868    1.2898   24.8806 C.3     1  UNL1        0.0765
      7 C           2.2945    1.6198   25.7069 C.3     1  UNL1        0.0413
      8 C           2.2014    1.6211   27.2040 C.3     1  UNL1        0.0952
      9 N           1.1799    1.2885   23.3836 N.pl3   1  UNL1       -0.3054
     10 C           0.3221    2.2961   22.6773 C.3     1  UNL1        0.1174
     11 C           0.1910    2.5439   21.2037 C.ar    1  UNL1       -0.0060
     12 C          -0.7809    3.6503   20.9184 C.ar    1  UNL1       -0.0029
     13 C          -1.0584    4.0579   19.5018 C.ar    1  UNL1       -0.0003
     14 C          -0.3641    3.3592   18.3705 C.ar    1  UNL1       -0.0003
     15 C           0.6077    2.2529   18.6558 C.ar    1  UNL1       -0.0042
     16 C           0.8853    1.8452   20.0724 C.ar    1  UNL1       -0.0201
     17 C           1.8822    0.7262   20.1354 C.3     1  UNL1        0.0536
     18 C           2.4310    0.0294   21.3451 C.ar    1  UNL1       -0.0045
     19 C           3.4111   -1.0403   20.9640 C.ar    1  UNL1       -0.0027
     20 C           4.0785   -1.8597   22.0284 C.ar    1  UNL1       -0.0002
     21 C           3.7660   -1.6095   23.4739 C.ar    1  UNL1        0.0012
     22 C           2.7859   -0.5397   23.8551 C.ar    1  UNL1        0.0142
     23 C           2.1184    0.2797   22.7907 C.ar    1  UNL1        0.0443
     24 N           4.2376    0.2486   31.6715 N.3     1  UNL1       -0.2688
     25 C           4.1622    1.7466   31.6562 C.3     1  UNL1        0.0756
     26 C           3.0510    2.4341   30.9195 C.3     1  UNL1        0.0590
     27 C           2.0153    1.6236   30.1983 C.3     1  UNL1        0.2042
     28 F           1.5204    3.0070   29.8959 F       1  UNL1       -0.2306
     29 C           2.0907    0.1256   30.2136 C.3     1  UNL1        0.0590
     30 C           3.2019   -0.5619   30.9502 C.3     1  UNL1        0.0756
     31 C           5.3488   -0.4388   32.4082 C.3     1  UNL1        0.0993
     32 N           6.5361   -5.4969   32.4823 N.pl3   1  UNL1       -0.3426
     33 C           6.6318   -4.1496   31.8301 C.ar    1  UNL1        0.1251
     34 C           5.9425   -2.9679   32.4452 C.ar    1  UNL1        0.0310
     35 C           6.0382   -1.6204   31.7930 C.ar    1  UNL1       -0.0018
     36 C           6.8233   -1.4547   30.5257 C.ar    1  UNL1        0.0179
     37 C           7.5127   -2.6364   29.9105 C.ar    1  UNL1        0.1000
     38 N           7.4170   -3.9838   30.5627 N.ar    1  UNL1       -0.2296
     39 H           6.0208   -5.6057   33.3141 H       1  UNL1        0.1437
     40 H           6.9886   -6.2725   32.0786 H       1  UNL1        0.1437
@<TRIPOS>BOND
     1    32    33    1
     2    33    34   ar
     3    34    35   ar
     4    35    31    1
     5    31    24    1
     6    24    25    1
     7    25    26    1
     8    26    27    1
     9    27    28    1
    10    27     1    1
    11     1     2    2
    12     1     3   am
    13     3     4    1
    14     4     5    1
    15     5     6    1
    16     6     9    1
    17     9    10    1
    18    10    11    1
    19    11    12   ar
    20    12    13   ar
    21    13    14   ar
    22    14    15   ar
    23    15    16   ar
    24    16    17    1
    25    17    18    1
    26    18    19   ar
    27    19    20   ar
    28    20    21   ar
    29    21    22   ar
    30    22    23   ar
    31     6     7    1
    32     7     8    1
    33    27    29    1
    34    29    30    1
    35    35    36   ar
    36    36    37   ar
    37    37    38   ar
    38    38    33   ar
    39    30    24    1
    40     8     3    1
    41    23     9    1
    42    16    11   ar
    43    23    18   ar
    44    32    39    1
    45    32    40    1
@<TRIPOS>MOLECULE
*****
 40 45 0 0 0
SMALL
GASTEIGER

@<TRIPOS>ATOM
      1 C           0.9737    1.6283   27.9809 C.2     1  UNL1        0.2553
      2 O          -0.4819    1.7619   28.3183 O.2     1  UNL1       -0.2720
      3 N           1.3914    1.3023   26.5777 N.am    1  UNL1       -0.2773
      4 C           0.3536    1.1098   25.5118 C.3     1  UNL1        0.0952
      5 C           0.7714    0.7838   24.1085 C.3     1  UNL1        0.0413
      6 C           2.2268    0.6502   23.7711 C.3     1  UNL1        0.0765
      7 C           3.2646    0.8427   24.8370 C.3     1  UNL1        0.0413
      8 C           2.8468    1.1687   26.2403 C.3     1  UNL1        0.0952
      9 N           2.6446    0.3242   22.3679 N.pl3   1  UNL1       -0.3054
     10 C           3.1706   -1.0638   22.1512 C.3     1  UNL1        0.1174
     11 C           3.6630   -1.6895   20.8800 C.ar    1  UNL1       -0.0060
     12 C           4.1036   -3.1061   21.1013 C.ar    1  UNL1       -0.0029
     13 C           4.6323   -3.9150   19.9541 C.ar    1  UNL1       -0.0003
     14 C           4.7203   -3.3074   18.5855 C.ar    1  UNL1       -0.0003
     15 C           4.2797   -1.8908   18.3642 C.ar    1  UNL1       -0.0042
     16 C           3.7510   -1.0819   19.5114 C.ar    1  UNL1       -0.0201
     17 C           3.3683    0.3017   19.0761 C.3     1  UNL1        0.0536
     18 C           2.8032    1.4192   19.9017 C.ar    1  UNL1       -0.0045
     19 C           2.5606    2.6451   19.0721 C.ar    1  UNL1       -0.0027
     20 C           1.9960    3.8811   19.7075 C.ar    1  UNL1       -0.0002
     21 C           1.6739    3.8911   21.1724 C.ar    1  UNL1        0.0012
     22 C           1.9164    2.6651   22.0020 C.ar    1  UNL1        0.0142
     23 C           2.4811    1.4292   21.3667 C.ar    1  UNL1        0.0443
     24 N           3.3854    0.2779   31.2219 N.3     1  UNL1       -0.2688
     25 C           3.7308    1.7193   30.9918 C.3     1  UNL1        0.0756
     26 C           3.0438    2.4908   29.9042 C.3     1  UNL1        0.0590
     27 C           2.0113    1.8208   29.0469 C.3     1  UNL1        0.2042
     28 F           1.9964    3.1954   28.4465 F       1  UNL1       -0.2306
     29 C           1.6659    0.3794   29.2770 C.3     1  UNL1        0.0590
     30 C           2.3529   -0.3921   30.3645 C.3     1  UNL1        0.0756
     31 C           4.0724   -0.4936   32.3095 C.3     1  UNL1        0.0993
     32 N           6.4882   -5.0876   32.5507 N.pl3   1  UNL1       -0.3426
     33 C           6.4617   -3.6557   32.1048 C.ar    1  UNL1        0.1251
     34 C           5.2803   -2.7906   32.4301 C.ar    1  UNL1        0.0310
     35 C           5.2538   -1.3586   31.9842 C.ar    1  UNL1       -0.0018
     36 C           6.4087   -0.7918   31.2129 C.ar    1  UNL1        0.0179
     37 C           7.5902   -1.6569   30.8875 C.ar    1  UNL1        0.1000
     38 N           7.6167   -3.0888   31.3334 N.ar    1  UNL1       -0.2296
     39 H           5.7302   -5.4597   33.0569 H       1  UNL1        0.1437
     40 H           7.2636   -5.6554   32.3371 H       1  UNL1        0.1437
@<TRIPOS>BOND
     1    32    33    1
     2    33    34   ar
     3    34    35   ar
     4    35    31    1
     5    31    24    1
     6    24    25    1
     7    25    26    1
     8    26    27    1
     9    27    28    1
    10    27     1    1
    11     1     2    2
    12     1     3   am
    13     3     4    1
    14     4     5    1
    15     5     6    1
    16     6     9    1
    17     9    10    1
    18    10    11    1
    19    11    12   ar
    20    12    13   ar
    21    13    14   ar
    22    14    15   ar
    23    15    16   ar
    24    16    17    1
    25    17    18    1
    26    18    19   ar
    27    19    20   ar
    28    20    21   ar
    29    21    22   ar
    30    22    23   ar
    31     6     7    1
    32     7     8    1
    33    27    29    1
    34    29    30    1
    35    35    36   ar
    36    36    37   ar
    37    37    38   ar
    38    38    33   ar
    39    30    24    1
    40     8     3    1
    41    23     9    1
    42    16    11   ar
    43    23    18   ar
    44    32    39    1
    45    32    40    1
@<TRIPOS>MOLECULE
*****
 40 45 0 0 0
SMALL
GASTEIGER

@<TRIPOS>ATOM
      1 C           0.7638    1.3216   29.3887 C.2     1  UNL1        0.2553
      2 O          -0.5444    0.9187   30.0022 O.2     1  UNL1       -0.2720
      3 N           0.8850    1.4527   27.8994 N.am    1  UNL1       -0.2773
      4 C          -0.3021    1.1808   27.0235 C.3     1  UNL1        0.0952
      5 C          -0.1808    1.3118   25.5342 C.3     1  UNL1        0.0413
      6 C           1.1273    1.7148   24.9207 C.3     1  UNL1        0.0765
      7 C           2.3144    1.9867   25.7965 C.3     1  UNL1        0.0413
      8 C           2.1931    1.8556   27.2859 C.3     1  UNL1        0.0952
      9 N           1.2485    1.8458   23.4314 N.pl3   1  UNL1       -0.3054
     10 C           1.8743    0.6804   22.7242 C.3     1  UNL1        0.1174
     11 C           2.1340    0.5062   21.2571 C.ar    1  UNL1       -0.0060
     12 C           2.7813   -0.8157   20.9683 C.ar    1  UNL1       -0.0029
     13 C           3.1265   -1.1894   19.5573 C.ar    1  UNL1       -0.0003
     14 C           2.8245   -0.2411   18.4350 C.ar    1  UNL1       -0.0003
     15 C           2.1773    1.0809   18.7238 C.ar    1  UNL1       -0.0042
     16 C           1.8320    1.4545   20.1349 C.ar    1  UNL1       -0.0201
     17 C           1.1957    2.8112   20.2026 C.3     1  UNL1        0.0536
     18 C           0.7042    3.5547   21.4091 C.ar    1  UNL1       -0.0045
     19 C           0.1319    4.8897   21.0347 C.ar    1  UNL1       -0.0027
     20 C          -0.4169    5.7950   22.0973 C.ar    1  UNL1       -0.0002
     21 C          -0.3935    5.3654   23.5342 C.ar    1  UNL1        0.0012
     22 C           0.1789    4.0304   23.9086 C.ar    1  UNL1        0.0142
     23 C           0.7277    3.1250   22.8460 C.ar    1  UNL1        0.0443
     24 N           4.1039    0.1159   31.7413 N.3     1  UNL1       -0.2688
     25 C           4.0537    1.6142   31.7902 C.3     1  UNL1        0.0756
     26 C           2.9771    2.3531   31.0518 C.3     1  UNL1        0.0590
     27 C           1.9508    1.5935   30.2646 C.3     1  UNL1        0.2042
     28 F           1.4883    2.9975   30.0093 F       1  UNL1       -0.2306
     29 C           2.0010    0.0952   30.2157 C.3     1  UNL1        0.0590
     30 C           3.0776   -0.6437   30.9541 C.3     1  UNL1        0.0756
     31 C           5.1805   -0.6229   32.4797 C.3     1  UNL1        0.0993
     32 N           6.6538   -5.6030   32.3152 N.pl3   1  UNL1       -0.3426
     33 C           6.6624   -4.2255   31.7216 C.ar    1  UNL1        0.1251
     34 C           5.9171   -3.1129   32.3974 C.ar    1  UNL1        0.0310
     35 C           5.9257   -1.7354   31.8038 C.ar    1  UNL1       -0.0018
     36 C           6.6795   -1.4704   30.5344 C.ar    1  UNL1        0.0179
     37 C           7.4248   -2.5831   29.8585 C.ar    1  UNL1        0.1000
     38 N           7.4162   -3.9605   30.4521 N.ar    1  UNL1       -0.2296
     39 H           6.1590   -5.7769   33.1484 H       1  UNL1        0.1437
     40 H           7.1429   -6.3332   31.8716 H       1  UNL1        0.1437
@<TRIPOS>BOND
     1    32    33    1
     2    33    34   ar
     3    34    35   ar
     4    35    31    1
     5    31    24    1
     6    24    25    1
     7    25    26    1
     8    26    27    1
     9    27    28    1
    10    27     1    1
    11     1     2    2
    12     1     3   am
    13     3     4    1
    14     4     5    1
    15     5     6    1
    16     6     9    1
    17     9    10    1
    18    10    11    1
    19    11    12   ar
    20    12    13   ar
    21    13    14   ar
    22    14    15   ar
    23    15    16   ar
    24    16    17    1
    25    17    18    1
    26    18    19   ar
    27    19    20   ar
    28    20    21   ar
    29    21    22   ar
    30    22    23   ar
    31     6     7    1
    32     7     8    1
    33    27    29    1
    34    29    30    1
    35    35    36   ar
    36    36    37   ar
    37    37    38   ar
    38    38    33   ar
    39    30    24    1
    40     8     3    1
    41    23     9    1
    42    16    11   ar
    43    23    18   ar
    44    32    39    1
    45    32    40    1
