@<TRIPOS>MOLECULE
*****
 33 37 0 0 0
SMALL
GASTEIGER

@<TRIPOS>ATOM
      1 C           1.7842    2.8990   25.5652 C.ar    1  UNL1        0.2224
      2 N           2.9529    1.9792   25.7605 N.ar    1  UNL1       -0.1127
      3 N           3.0310    1.0697   24.5703 N.ar    1  UNL1       -0.1273
      4 C           1.9104    1.4274   23.6394 C.ar    1  UNL1        0.1704
      5 N           1.1400    2.5579   24.2544 N.ar    1  UNL1       -0.2796
      6 C          -0.0659    3.2696   23.7162 C.3     1  UNL1        0.1574
      7 C          -0.7990    3.0266   22.4303 C.3     1  UNL1        0.2299
      8 O          -0.5073    2.0117   21.3650 O.3     1  UNL1       -0.4733
      9 C           0.5895    0.9893   21.3223 C.ar    1  UNL1        0.1415
     10 C           0.5232    0.1665   20.0699 C.ar    1  UNL1        0.0370
     11 C           1.5330   -0.9164   19.8298 C.ar    1  UNL1        0.0031
     12 C           2.6090   -1.1765   20.8420 C.ar    1  UNL1        0.0004
     13 C           2.6752   -0.3536   22.0944 C.ar    1  UNL1        0.0061
     14 C           1.6655    0.7292   22.3345 C.ar    1  UNL1        0.0699
     15 C           3.6188   -2.2594   20.6018 C.ar    1  UNL1        0.0031
     16 C           3.5356   -3.1011   19.3630 C.ar    1  UNL1        0.0207
     17 C           4.5454   -4.1840   19.1227 C.ar    1  UNL1        0.0989
     18 N           5.6383   -4.4253   20.1214 N.ar    1  UNL1       -0.2423
     19 C           5.7215   -3.5835   21.3602 C.ar    1  UNL1        0.0989
     20 C           4.7117   -2.5007   21.6004 C.ar    1  UNL1        0.0207
     21 N           1.3381    3.9716   26.5143 N.pl3   1  UNL1       -0.2825
     22 H           1.1818    4.8862   26.1852 H       1  UNL1        0.1551
     23 C           0.3223    2.0141   29.8137 C.ar    1  UNL1        0.1480
     24 C           0.7147    3.0087   30.8656 C.ar    1  UNL1        0.0373
     25 C           1.3150    4.3244   30.4671 C.ar    1  UNL1        0.0044
     26 C           1.5228    4.6453   29.0167 C.ar    1  UNL1        0.0149
     27 C           1.1303    3.6506   27.9647 C.ar    1  UNL1        0.0535
     28 C           0.5301    2.3350   28.3632 C.ar    1  UNL1        0.0518
     29 O          -0.2780    0.6984   30.2122 O.3     1  UNL1       -0.4044
     30 F          -1.4830   -1.0931   28.1292 F       1  UNL1       -0.1328
     31 C          -0.8804   -0.1973   29.1708 C.3     1  UNL1        0.5753
     32 F          -2.2424    0.3407   29.4958 F       1  UNL1       -0.1328
     33 F           0.4815   -0.7354   28.8456 F       1  UNL1       -0.1328
@<TRIPOS>BOND
     1    30    31    1
     2    31    32    1
     3    31    33    1
     4    31    29    1
     5    29    23    1
     6    23    24   ar
     7    24    25   ar
     8    25    26   ar
     9    26    27   ar
    10    27    21    1
    11    21     1    1
    12     1     2   ar
    13     2     3   ar
    14     3     4   ar
    15     4     5   ar
    16     5     6    1
    17     6     7    1
    18     7     8    1
    19     8     9    1
    20     9    10   ar
    21    10    11   ar
    22    11    12   ar
    23    12    15    1
    24    15    16   ar
    25    16    17   ar
    26    17    18   ar
    27    18    19   ar
    28    19    20   ar
    29    12    13   ar
    30    13    14   ar
    31    27    28   ar
    32    28    23   ar
    33     5     1   ar
    34    14     9   ar
    35    14     4    1
    36    20    15   ar
    37    21    22    1
@<TRIPOS>MOLECULE
*****
 33 37 0 0 0
SMALL
GASTEIGER

@<TRIPOS>ATOM
      1 C           6.1973   -2.9377   25.1687 C.ar    1  UNL1        0.2224
      2 N           5.8007   -1.6772   25.8785 N.ar    1  UNL1       -0.1127
      3 N           5.9068   -1.9232   27.3543 N.ar    1  UNL1       -0.1273
      4 C           6.3690   -3.3358   27.5567 C.ar    1  UNL1        0.1704
      5 N           6.5485   -3.9628   26.2059 N.ar    1  UNL1       -0.2796
      6 C           6.9948   -5.3557   25.8732 C.3     1  UNL1        0.1574
      7 C           7.3719   -6.4656   26.8091 C.3     1  UNL1        0.2299
      8 O           7.3957   -6.4567   28.3089 O.3     1  UNL1       -0.4733
      9 C           7.0484   -5.3358   29.2432 C.ar    1  UNL1        0.1415
     10 C           7.2077   -5.7479   30.6766 C.ar    1  UNL1        0.0370
     11 C           6.9101   -4.7710   31.7753 C.ar    1  UNL1        0.0031
     12 C           6.4532   -3.3821   31.4405 C.ar    1  UNL1        0.0004
     13 C           6.2939   -2.9700   30.0071 C.ar    1  UNL1        0.0061
     14 C           6.5915   -3.9468   28.9084 C.ar    1  UNL1        0.0699
     15 C           6.1556   -2.4052   32.5393 C.ar    1  UNL1        0.0031
     16 C           7.2153   -1.4488   32.9999 C.ar    1  UNL1        0.0207
     17 C           6.9177   -0.4719   34.0987 C.ar    1  UNL1        0.0989
     18 N           5.5603   -0.4515   34.7368 N.ar    1  UNL1       -0.2423
     19 C           4.5006   -1.4079   34.2761 C.ar    1  UNL1        0.0989
     20 C           4.7982   -2.3847   33.1773 C.ar    1  UNL1        0.0207
     21 N           6.2358   -3.1380   23.6826 N.pl3   1  UNL1       -0.2825
     22 H           6.9780   -3.6381   23.2724 H       1  UNL1        0.1551
     23 C           3.9039   -2.4751   20.5406 C.ar    1  UNL1        0.1480
     24 C           2.9592   -1.4527   21.0993 C.ar    1  UNL1        0.0373
     25 C           3.1068   -0.9920   22.5192 C.ar    1  UNL1        0.0044
     26 C           4.1990   -1.5538   23.3803 C.ar    1  UNL1        0.0149
     27 C           5.1437   -2.5762   22.8215 C.ar    1  UNL1        0.0535
     28 C           4.9961   -3.0369   21.4016 C.ar    1  UNL1        0.0518
     29 O           3.7563   -2.9358   19.1207 O.3     1  UNL1       -0.4044
     30 F           4.7637   -5.6427   18.3095 F       1  UNL1       -0.1328
     31 C           4.2600   -4.2892   18.7151 C.3     1  UNL1        0.5753
     32 F           3.0592   -4.9263   19.3493 F       1  UNL1       -0.1328
     33 F           5.4609   -3.6522   18.0809 F       1  UNL1       -0.1328
@<TRIPOS>BOND
     1    30    31    1
     2    31    32    1
     3    31    33    1
     4    31    29    1
     5    29    23    1
     6    23    24   ar
     7    24    25   ar
     8    25    26   ar
     9    26    27   ar
    10    27    21    1
    11    21     1    1
    12     1     2   ar
    13     2     3   ar
    14     3     4   ar
    15     4     5   ar
    16     5     6    1
    17     6     7    1
    18     7     8    1
    19     8     9    1
    20     9    10   ar
    21    10    11   ar
    22    11    12   ar
    23    12    15    1
    24    15    16   ar
    25    16    17   ar
    26    17    18   ar
    27    18    19   ar
    28    19    20   ar
    29    12    13   ar
    30    13    14   ar
    31    27    28   ar
    32    28    23   ar
    33     5     1   ar
    34    14     9   ar
    35    14     4    1
    36    20    15   ar
    37    21    22    1
@<TRIPOS>MOLECULE
*****
 33 37 0 0 0
SMALL
GASTEIGER

@<TRIPOS>ATOM
      1 C           1.6963    0.5111   21.2142 C.ar    1  UNL1        0.2224
      2 N           2.5454   -0.2148   22.2152 N.ar    1  UNL1       -0.1127
      3 N           2.1004    0.1982   23.5869 N.ar    1  UNL1       -0.1273
      4 C           0.9762    1.1794   23.4335 C.ar    1  UNL1        0.1704
      5 N           0.7265    1.3727   21.9671 N.ar    1  UNL1       -0.2796
      6 C          -0.2900    2.2508   21.2994 C.3     1  UNL1        0.1574
      7 C          -1.3077    3.1523   21.9330 C.3     1  UNL1        0.2299
      8 O          -1.5604    3.3984   23.3909 O.3     1  UNL1       -0.4733
      9 C          -0.8577    2.8038   24.5754 C.ar    1  UNL1        0.1415
     10 C          -1.4235    3.3210   25.8647 C.ar    1  UNL1        0.0370
     11 C          -0.8604    2.8506   27.1729 C.ar    1  UNL1        0.0031
     12 C           0.2685    1.8630   27.1919 C.ar    1  UNL1        0.0004
     13 C           0.8343    1.3459   25.9026 C.ar    1  UNL1        0.0061
     14 C           0.2711    1.8162   24.5943 C.ar    1  UNL1        0.0699
     15 C           0.8316    1.3927   28.5003 C.ar    1  UNL1        0.0031
     16 C           1.4746    0.0410   28.5975 C.ar    1  UNL1        0.0207
     17 C           2.0377   -0.4294   29.9058 C.ar    1  UNL1        0.0989
     18 N           1.9578    0.4520   31.1169 N.ar    1  UNL1       -0.2423
     19 C           1.3148    1.8038   31.0197 C.ar    1  UNL1        0.0989
     20 C           0.7517    2.2741   29.7114 C.ar    1  UNL1        0.0207
     21 N           1.7991    0.3957   19.7222 N.pl3   1  UNL1       -0.2825
     22 H           1.0863    0.7614   19.1499 H       1  UNL1        0.1551
     23 C           4.6589   -2.2645   19.0190 C.ar    1  UNL1        0.1480
     24 C           5.3650   -1.6225   17.8619 C.ar    1  UNL1        0.0373
     25 C           4.8825   -0.3076   17.3248 C.ar    1  UNL1        0.0044
     26 C           3.6938    0.3650   17.9449 C.ar    1  UNL1        0.0149
     27 C           2.9877   -0.2770   19.1021 C.ar    1  UNL1        0.0535
     28 C           3.4703   -1.5919   19.6391 C.ar    1  UNL1        0.0518
     29 O           5.1415   -3.5794   19.5561 O.3     1  UNL1       -0.4044
     30 F           3.2007   -5.8253   19.9912 F       1  UNL1       -0.1328
     31 C           4.1711   -4.7023   19.7736 C.3     1  UNL1        0.5753
     32 F           4.1555   -4.4042   21.2437 F       1  UNL1       -0.1328
     33 F           4.1866   -5.0005   18.3037 F       1  UNL1       -0.1328
@<TRIPOS>BOND
     1    30    31    1
     2    31    32    1
     3    31    33    1
     4    31    29    1
     5    29    23    1
     6    23    24   ar
     7    24    25   ar
     8    25    26   ar
     9    26    27   ar
    10    27    21    1
    11    21     1    1
    12     1     2   ar
    13     2     3   ar
    14     3     4   ar
    15     4     5   ar
    16     5     6    1
    17     6     7    1
    18     7     8    1
    19     8     9    1
    20     9    10   ar
    21    10    11   ar
    22    11    12   ar
    23    12    15    1
    24    15    16   ar
    25    16    17   ar
    26    17    18   ar
    27    18    19   ar
    28    19    20   ar
    29    12    13   ar
    30    13    14   ar
    31    27    28   ar
    32    28    23   ar
    33     5     1   ar
    34    14     9   ar
    35    14     4    1
    36    20    15   ar
    37    21    22    1
@<TRIPOS>MOLECULE
*****
 33 37 0 0 0
SMALL
GASTEIGER

@<TRIPOS>ATOM
      1 C           6.9049   -4.3111   24.7855 C.ar    1  UNL1        0.2224
      2 N           6.3479   -2.9781   25.1889 N.ar    1  UNL1       -0.1127
      3 N           6.2993   -2.9302   26.6873 N.ar    1  UNL1       -0.1273
      4 C           6.8263   -4.2338   27.2100 C.ar    1  UNL1        0.1704
      5 N           7.2005   -5.0871   26.0345 N.ar    1  UNL1       -0.2796
      6 C           7.7721   -6.4740   26.0300 C.3     1  UNL1        0.1574
      7 C           8.1105   -7.3500   27.1996 C.3     1  UNL1        0.2299
      8 O           7.9609   -7.0554   28.6628 O.3     1  UNL1       -0.4733
      9 C           7.4361   -5.8121   29.3177 C.ar    1  UNL1        0.1415
     10 C           7.4559   -5.9302   30.8129 C.ar    1  UNL1        0.0370
     11 C           6.9708   -4.7924   31.6615 C.ar    1  UNL1        0.0031
     12 C           6.4658   -3.5367   31.0149 C.ar    1  UNL1        0.0004
     13 C           6.4460   -3.4186   29.5197 C.ar    1  UNL1        0.0061
     14 C           6.9311   -4.5564   28.6711 C.ar    1  UNL1        0.0699
     15 C           5.9807   -2.3989   31.8636 C.ar    1  UNL1        0.0031
     16 C           5.0185   -2.6568   32.9850 C.ar    1  UNL1        0.0207
     17 C           4.5333   -1.5191   33.8337 C.ar    1  UNL1        0.0989
     18 N           5.0105   -0.1234   33.5609 N.ar    1  UNL1       -0.2423
     19 C           5.9728    0.1345   32.4395 C.ar    1  UNL1        0.0989
     20 C           6.4579   -1.0032   31.5909 C.ar    1  UNL1        0.0207
     21 N           7.1271   -4.7849   23.3797 N.pl3   1  UNL1       -0.2825
     22 H           7.2582   -5.7436   23.1983 H       1  UNL1        0.1551
     23 C           6.1170   -2.8655   20.0562 C.ar    1  UNL1        0.1480
     24 C           7.1947   -1.8241   19.9916 C.ar    1  UNL1        0.0373
     25 C           8.2498   -1.7697   21.0564 C.ar    1  UNL1        0.0044
     26 C           8.2273   -2.7566   22.1857 C.ar    1  UNL1        0.0149
     27 C           7.1497   -3.7980   22.2503 C.ar    1  UNL1        0.0535
     28 C           6.0945   -3.8524   21.1855 C.ar    1  UNL1        0.0518
     29 O           5.0619   -2.9200   18.9914 O.3     1  UNL1       -0.4044
     30 F           2.8154   -4.8967   19.2054 F       1  UNL1       -0.1328
     31 C           3.9387   -3.9083   19.0984 C.3     1  UNL1        0.5753
     32 F           3.1426   -2.9174   19.8949 F       1  UNL1       -0.1328
     33 F           4.7347   -4.8993   18.3019 F       1  UNL1       -0.1328
@<TRIPOS>BOND
     1    30    31    1
     2    31    32    1
     3    31    33    1
     4    31    29    1
     5    29    23    1
     6    23    24   ar
     7    24    25   ar
     8    25    26   ar
     9    26    27   ar
    10    27    21    1
    11    21     1    1
    12     1     2   ar
    13     2     3   ar
    14     3     4   ar
    15     4     5   ar
    16     5     6    1
    17     6     7    1
    18     7     8    1
    19     8     9    1
    20     9    10   ar
    21    10    11   ar
    22    11    12   ar
    23    12    15    1
    24    15    16   ar
    25    16    17   ar
    26    17    18   ar
    27    18    19   ar
    28    19    20   ar
    29    12    13   ar
    30    13    14   ar
    31    27    28   ar
    32    28    23   ar
    33     5     1   ar
    34    14     9   ar
    35    14     4    1
    36    20    15   ar
    37    21    22    1
@<TRIPOS>MOLECULE
*****
 33 37 0 0 0
SMALL
GASTEIGER

@<TRIPOS>ATOM
      1 C           2.7015    2.2726   21.3650 C.ar    1  UNL1        0.2224
      2 N           1.4918    2.9963   20.8522 N.ar    1  UNL1       -0.1127
      3 N           0.4993    3.0923   21.9728 N.ar    1  UNL1       -0.1273
      4 C           1.0957    2.4280   23.1783 C.ar    1  UNL1        0.1704
      5 N           2.4567    1.9214   22.8025 N.ar    1  UNL1       -0.2796
      6 C           3.4497    1.1881   23.6547 C.3     1  UNL1        0.1574
      7 C           3.3271    0.7802   25.0930 C.3     1  UNL1        0.2299
      8 O           2.1810    1.0050   26.0343 O.3     1  UNL1       -0.4733
      9 C           0.8746    1.6931   25.7700 C.ar    1  UNL1        0.1415
     10 C           0.0027    1.7013   26.9904 C.ar    1  UNL1        0.0370
     11 C          -1.3523    2.3428   26.9398 C.ar    1  UNL1        0.0031
     12 C          -1.8353    2.9760   25.6687 C.ar    1  UNL1        0.0004
     13 C          -0.9634    2.9678   24.4483 C.ar    1  UNL1        0.0061
     14 C           0.3916    2.3264   24.4989 C.ar    1  UNL1        0.0699
     15 C          -3.1903    3.6175   25.6182 C.ar    1  UNL1        0.0031
     16 C          -4.0232    3.5141   24.3749 C.ar    1  UNL1        0.0207
     17 C          -5.3782    4.1555   24.3244 C.ar    1  UNL1        0.0989
     18 N          -5.9003    4.9004   25.5171 N.ar    1  UNL1       -0.2423
     19 C          -5.0674    5.0038   26.7604 C.ar    1  UNL1        0.0989
     20 C          -3.7124    4.3624   26.8109 C.ar    1  UNL1        0.0207
     21 N           3.9387    1.9558   20.5783 N.pl3   1  UNL1       -0.2825
     22 H           4.7314    2.5349   20.6532 H       1  UNL1        0.1551
     23 C           3.8786   -1.8199   19.3577 C.ar    1  UNL1        0.1480
     24 C           4.0272   -1.6412   17.8758 C.ar    1  UNL1        0.0373
     25 C           4.1464   -0.2634   17.2948 C.ar    1  UNL1        0.0044
     26 C           4.1169    0.9356   18.1956 C.ar    1  UNL1        0.0149
     27 C           3.9682    0.7569   19.6775 C.ar    1  UNL1        0.0535
     28 C           3.8491   -0.6209   20.2585 C.ar    1  UNL1        0.0518
     29 O           3.7595   -3.1977   19.9387 O.3     1  UNL1       -0.4044
     30 F           4.7077   -5.5736   18.3716 F       1  UNL1       -0.1328
     31 C           4.2336   -4.3856   19.1552 C.3     1  UNL1        0.5753
     32 F           5.6509   -4.0664   19.5286 F       1  UNL1       -0.1328
     33 F           2.8163   -4.7050   18.7817 F       1  UNL1       -0.1328
@<TRIPOS>BOND
     1    30    31    1
     2    31    32    1
     3    31    33    1
     4    31    29    1
     5    29    23    1
     6    23    24   ar
     7    24    25   ar
     8    25    26   ar
     9    26    27   ar
    10    27    21    1
    11    21     1    1
    12     1     2   ar
    13     2     3   ar
    14     3     4   ar
    15     4     5   ar
    16     5     6    1
    17     6     7    1
    18     7     8    1
    19     8     9    1
    20     9    10   ar
    21    10    11   ar
    22    11    12   ar
    23    12    15    1
    24    15    16   ar
    25    16    17   ar
    26    17    18   ar
    27    18    19   ar
    28    19    20   ar
    29    12    13   ar
    30    13    14   ar
    31    27    28   ar
    32    28    23   ar
    33     5     1   ar
    34    14     9   ar
    35    14     4    1
    36    20    15   ar
    37    21    22    1
@<TRIPOS>MOLECULE
*****
 33 37 0 0 0
SMALL
GASTEIGER

@<TRIPOS>ATOM
      1 C           1.4926    2.1223   22.1047 C.ar    1  UNL1        0.2224
      2 N           0.4013    2.4230   21.1205 N.ar    1  UNL1       -0.1127
      3 N          -0.8221    2.8207   21.8920 N.ar    1  UNL1       -0.1273
      4 C          -0.4869    2.7657   23.3530 C.ar    1  UNL1        0.1704
      5 N           0.9436    2.3341   23.4844 N.ar    1  UNL1       -0.2796
      6 C           1.7477    2.1294   24.7341 C.3     1  UNL1        0.1574
      7 C           1.3198    2.3059   26.1610 C.3     1  UNL1        0.2299
      8 O          -0.0178    2.7305   26.6904 O.3     1  UNL1       -0.4733
      9 C          -1.2580    3.0836   25.9240 C.ar    1  UNL1        0.1415
     10 C          -2.3830    3.4561   26.8435 C.ar    1  UNL1        0.0370
     11 C          -3.7168    3.8443   26.2776 C.ar    1  UNL1        0.0031
     12 C          -3.9256    3.8599   24.7923 C.ar    1  UNL1        0.0004
     13 C          -2.8005    3.4874   23.8728 C.ar    1  UNL1        0.0061
     14 C          -1.4667    3.0993   24.4387 C.ar    1  UNL1        0.0699
     15 C          -5.2595    4.2481   24.2264 C.ar    1  UNL1        0.0031
     16 C          -5.6046    3.8955   22.8099 C.ar    1  UNL1        0.0207
     17 C          -6.9385    4.2837   22.2441 C.ar    1  UNL1        0.0989
     18 N          -7.9272    5.0244   23.0948 N.ar    1  UNL1       -0.2423
     19 C          -7.5821    5.3770   24.5114 C.ar    1  UNL1        0.0989
     20 C          -6.2482    4.9888   25.0772 C.ar    1  UNL1        0.0207
     21 N           2.8878    1.6863   21.7682 N.pl3   1  UNL1       -0.2825
     22 H           3.6532    2.0625   22.2600 H       1  UNL1        0.1551
     23 C           3.5173   -1.7812   19.9434 C.ar    1  UNL1        0.1480
     24 C           3.5751   -1.3412   18.5106 C.ar    1  UNL1        0.0373
     25 C           3.4038    0.1081   18.1637 C.ar    1  UNL1        0.0044
     26 C           3.1747    1.1172   19.2495 C.ar    1  UNL1        0.0149
     27 C           3.1169    0.6772   20.6823 C.ar    1  UNL1        0.0535
     28 C           3.2882   -0.7721   21.0293 C.ar    1  UNL1        0.0518
     29 O           3.6886   -3.2305   20.2904 O.3     1  UNL1       -0.4044
     30 F           4.6531   -5.1667   18.2116 F       1  UNL1       -0.1328
     31 C           4.1708   -4.1986   19.2510 C.3     1  UNL1        0.5753
     32 F           5.5905   -3.8332   19.5693 F       1  UNL1       -0.1328
     33 F           2.7513   -4.5640   18.9327 F       1  UNL1       -0.1328
@<TRIPOS>BOND
     1    30    31    1
     2    31    32    1
     3    31    33    1
     4    31    29    1
     5    29    23    1
     6    23    24   ar
     7    24    25   ar
     8    25    26   ar
     9    26    27   ar
    10    27    21    1
    11    21     1    1
    12     1     2   ar
    13     2     3   ar
    14     3     4   ar
    15     4     5   ar
    16     5     6    1
    17     6     7    1
    18     7     8    1
    19     8     9    1
    20     9    10   ar
    21    10    11   ar
    22    11    12   ar
    23    12    15    1
    24    15    16   ar
    25    16    17   ar
    26    17    18   ar
    27    18    19   ar
    28    19    20   ar
    29    12    13   ar
    30    13    14   ar
    31    27    28   ar
    32    28    23   ar
    33     5     1   ar
    34    14     9   ar
    35    14     4    1
    36    20    15   ar
    37    21    22    1
@<TRIPOS>MOLECULE
*****
 33 37 0 0 0
SMALL
GASTEIGER

@<TRIPOS>ATOM
      1 C           3.3596   -0.4916   22.8919 C.ar    1  UNL1        0.2224
      2 N           2.3603    0.1501   21.9756 N.ar    1  UNL1       -0.1127
      3 N           1.3340    0.8436   22.8217 N.ar    1  UNL1       -0.1273
      4 C           1.6991    0.6304   24.2610 C.ar    1  UNL1        0.1704
      5 N           2.9510   -0.1948   24.3042 N.ar    1  UNL1       -0.2796
      6 C           3.7135   -0.6749   25.5034 C.3     1  UNL1        0.1574
      7 C           3.4126   -0.4484   26.9554 C.3     1  UNL1        0.2299
      8 O           2.2748    0.3142   27.5667 O.3     1  UNL1       -0.4733
      9 C           1.1568    1.0386   26.8772 C.ar    1  UNL1        0.1415
     10 C           0.2235    1.6734   27.8651 C.ar    1  UNL1        0.0370
     11 C          -0.9659    2.4490   27.3818 C.ar    1  UNL1        0.0031
     12 C          -1.2221    2.5897   25.9105 C.ar    1  UNL1        0.0004
     13 C          -0.2889    1.9549   24.9226 C.ar    1  UNL1        0.0061
     14 C           0.9006    1.1793   25.4060 C.ar    1  UNL1        0.0699
     15 C          -2.4117    3.3653   25.4272 C.ar    1  UNL1        0.0031
     16 C          -2.5271    3.7360   23.9784 C.ar    1  UNL1        0.0207
     17 C          -3.7166    4.5116   23.4950 C.ar    1  UNL1        0.0989
     18 N          -4.7907    4.9164   24.4606 N.ar    1  UNL1       -0.2423
     19 C          -4.6753    4.5457   25.9096 C.ar    1  UNL1        0.0989
     20 C          -3.4858    3.7701   26.3928 C.ar    1  UNL1        0.0207
     21 N           4.5573   -1.2900   22.4699 N.pl3   1  UNL1       -0.2825
     22 H           5.3887   -1.2454   22.9952 H       1  UNL1        0.1551
     23 C           4.6185   -2.4197   18.6660 C.ar    1  UNL1        0.1480
     24 C           4.3502   -3.8892   18.8023 C.ar    1  UNL1        0.0373
     25 C           4.1509   -4.4923   20.1612 C.ar    1  UNL1        0.0044
     26 C           4.2199   -3.6259   21.3837 C.ar    1  UNL1        0.0149
     27 C           4.4883   -2.1564   21.2474 C.ar    1  UNL1        0.0535
     28 C           4.6876   -1.5533   19.8884 C.ar    1  UNL1        0.0518
     29 O           4.8178   -1.8167   17.3070 O.3     1  UNL1       -0.4044
     30 F           5.3191    1.1284   17.0317 F       1  UNL1       -0.1328
     31 C           5.0685   -0.3442   17.1693 C.3     1  UNL1        0.5753
     32 F           3.5896   -0.0958   17.1338 F       1  UNL1       -0.1328
     33 F           6.5473   -0.5925   17.2049 F       1  UNL1       -0.1328
@<TRIPOS>BOND
     1    30    31    1
     2    31    32    1
     3    31    33    1
     4    31    29    1
     5    29    23    1
     6    23    24   ar
     7    24    25   ar
     8    25    26   ar
     9    26    27   ar
    10    27    21    1
    11    21     1    1
    12     1     2   ar
    13     2     3   ar
    14     3     4   ar
    15     4     5   ar
    16     5     6    1
    17     6     7    1
    18     7     8    1
    19     8     9    1
    20     9    10   ar
    21    10    11   ar
    22    11    12   ar
    23    12    15    1
    24    15    16   ar
    25    16    17   ar
    26    17    18   ar
    27    18    19   ar
    28    19    20   ar
    29    12    13   ar
    30    13    14   ar
    31    27    28   ar
    32    28    23   ar
    33     5     1   ar
    34    14     9   ar
    35    14     4    1
    36    20    15   ar
    37    21    22    1
@<TRIPOS>MOLECULE
*****
 33 37 0 0 0
SMALL
GASTEIGER

@<TRIPOS>ATOM
      1 C           2.4037    1.0644   22.4630 C.ar    1  UNL1        0.2224
      2 N           1.2748    1.0831   23.4504 N.ar    1  UNL1       -0.1127
      3 N           0.0926    1.7290   22.7908 N.ar    1  UNL1       -0.1273
      4 C           0.4909    2.1096   21.3956 C.ar    1  UNL1        0.1704
      5 N           1.9193    1.6988   21.1931 N.ar    1  UNL1       -0.2796
      6 C           2.7744    1.8599   19.9712 C.3     1  UNL1        0.1574
      7 C           2.4124    2.4715   18.6502 C.3     1  UNL1        0.2299
      8 O           1.1059    3.0730   18.2249 O.3     1  UNL1       -0.4733
      9 C          -0.1614    3.2116   19.0154 C.ar    1  UNL1        0.1415
     10 C          -1.2393    3.8757   18.2109 C.ar    1  UNL1        0.0370
     11 C          -2.5908    4.1109   18.8175 C.ar    1  UNL1        0.0031
     12 C          -2.8645    3.6821   20.2286 C.ar    1  UNL1        0.0004
     13 C          -1.7866    3.0180   21.0331 C.ar    1  UNL1        0.0061
     14 C          -0.4351    2.7828   20.4265 C.ar    1  UNL1        0.0699
     15 C          -4.2161    3.9173   20.8352 C.ar    1  UNL1        0.0031
     16 C          -4.4807    3.5158   22.2560 C.ar    1  UNL1        0.0207
     17 C          -5.8323    3.7511   22.8626 C.ar    1  UNL1        0.0989
     18 N          -6.9193    4.3878   22.0483 N.ar    1  UNL1       -0.2423
     19 C          -6.6546    4.7893   20.6274 C.ar    1  UNL1        0.0989
     20 C          -5.3031    4.5541   20.0209 C.ar    1  UNL1        0.0207
     21 N           3.7762    0.5089   22.7033 N.pl3   1  UNL1       -0.2825
     22 H           4.4915    1.0938   23.0430 H       1  UNL1        0.1551
     23 C           3.9413   -2.9887   20.8353 C.ar    1  UNL1        0.1480
     24 C           4.6241   -3.8315   21.8713 C.ar    1  UNL1        0.0373
     25 C           5.0244   -3.2274   23.1847 C.ar    1  UNL1        0.0044
     26 C           4.7417   -1.7807   23.4620 C.ar    1  UNL1        0.0149
     27 C           4.0589   -0.9379   22.4260 C.ar    1  UNL1        0.0535
     28 C           3.6586   -1.5419   21.1126 C.ar    1  UNL1        0.0518
     29 O           3.5410   -3.5928   19.5219 O.3     1  UNL1       -0.4044
     30 F           4.9534   -6.0350   18.5015 F       1  UNL1       -0.1328
     31 C           4.2472   -4.8138   19.0117 C.3     1  UNL1        0.5753
     32 F           3.2452   -5.6850   19.7097 F       1  UNL1       -0.1328
     33 F           5.2492   -3.9428   18.3137 F       1  UNL1       -0.1328
@<TRIPOS>BOND
     1    30    31    1
     2    31    32    1
     3    31    33    1
     4    31    29    1
     5    29    23    1
     6    23    24   ar
     7    24    25   ar
     8    25    26   ar
     9    26    27   ar
    10    27    21    1
    11    21     1    1
    12     1     2   ar
    13     2     3   ar
    14     3     4   ar
    15     4     5   ar
    16     5     6    1
    17     6     7    1
    18     7     8    1
    19     8     9    1
    20     9    10   ar
    21    10    11   ar
    22    11    12   ar
    23    12    15    1
    24    15    16   ar
    25    16    17   ar
    26    17    18   ar
    27    18    19   ar
    28    19    20   ar
    29    12    13   ar
    30    13    14   ar
    31    27    28   ar
    32    28    23   ar
    33     5     1   ar
    34    14     9   ar
    35    14     4    1
    36    20    15   ar
    37    21    22    1
@<TRIPOS>MOLECULE
*****
 33 37 0 0 0
SMALL
GASTEIGER

@<TRIPOS>ATOM
      1 C           1.1477    1.9264   20.3717 C.ar    1  UNL1        0.2224
      2 N           0.6522    1.8060   21.7823 N.ar    1  UNL1       -0.1127
      3 N          -0.7184    2.4122   21.8455 N.ar    1  UNL1       -0.1273
      4 C          -1.0699    2.9072   20.4738 C.ar    1  UNL1        0.1704
      5 N           0.0834    2.6069   19.5630 N.ar    1  UNL1       -0.2796
      6 C           0.2205    2.9029   18.0989 C.3     1  UNL1        0.1574
      7 C          -0.7618    3.5722   17.1840 C.3     1  UNL1        0.2299
      8 O          -2.1239    4.1109   17.5074 O.3     1  UNL1       -0.4733
      9 C          -2.8401    4.1133   18.8253 C.ar    1  UNL1        0.1415
     10 C          -4.1919    4.7537   18.7134 C.ar    1  UNL1        0.0370
     11 C          -5.0745    4.8584   19.9216 C.ar    1  UNL1        0.0031
     12 C          -4.6055    4.3227   21.2418 C.ar    1  UNL1        0.0004
     13 C          -3.2537    3.6823   21.3538 C.ar    1  UNL1        0.0061
     14 C          -2.3711    3.5775   20.1456 C.ar    1  UNL1        0.0699
     15 C          -5.4882    4.4275   22.4501 C.ar    1  UNL1        0.0031
     16 C          -6.9787    4.4736   22.2883 C.ar    1  UNL1        0.0207
     17 C          -7.8615    4.5784   23.4965 C.ar    1  UNL1        0.0989
     18 N          -7.2536    4.6370   24.8666 N.ar    1  UNL1       -0.2423
     19 C          -5.7630    4.5909   25.0284 C.ar    1  UNL1        0.0989
     20 C          -4.8804    4.4861   23.8202 C.ar    1  UNL1        0.0207
     21 N           2.4747    1.4498   19.8597 N.pl3   1  UNL1       -0.2825
     22 H           2.9890    2.0071   19.2319 H       1  UNL1        0.1551
     23 C           3.3025   -2.4308   19.9292 C.ar    1  UNL1        0.1480
     24 C           4.1045   -2.5270   21.1931 C.ar    1  UNL1        0.0373
     25 C           4.3633   -1.2975   22.0126 C.ar    1  UNL1        0.0044
     26 C           3.8200    0.0280   21.5681 C.ar    1  UNL1        0.0149
     27 C           3.0180    0.1242   20.3042 C.ar    1  UNL1        0.0535
     28 C           2.7592   -1.1053   19.4847 C.ar    1  UNL1        0.0518
     29 O           3.0438   -3.6604   19.1098 O.3     1  UNL1       -0.4044
     30 F           5.1726   -5.7565   18.8369 F       1  UNL1       -0.1328
     31 C           4.1081   -4.7084   18.9733 C.3     1  UNL1        0.5753
     32 F           4.9274   -3.7679   18.1401 F       1  UNL1       -0.1328
     33 F           3.2889   -5.6490   19.8066 F       1  UNL1       -0.1328
@<TRIPOS>BOND
     1    30    31    1
     2    31    32    1
     3    31    33    1
     4    31    29    1
     5    29    23    1
     6    23    24   ar
     7    24    25   ar
     8    25    26   ar
     9    26    27   ar
    10    27    21    1
    11    21     1    1
    12     1     2   ar
    13     2     3   ar
    14     3     4   ar
    15     4     5   ar
    16     5     6    1
    17     6     7    1
    18     7     8    1
    19     8     9    1
    20     9    10   ar
    21    10    11   ar
    22    11    12   ar
    23    12    15    1
    24    15    16   ar
    25    16    17   ar
    26    17    18   ar
    27    18    19   ar
    28    19    20   ar
    29    12    13   ar
    30    13    14   ar
    31    27    28   ar
    32    28    23   ar
    33     5     1   ar
    34    14     9   ar
    35    14     4    1
    36    20    15   ar
    37    21    22    1
