@<TRIPOS>MOLECULE
*****
 13 13 0 0 0
SMALL
GASTEIGER

@<TRIPOS>ATOM
      1 C         -11.7023  -18.2649   21.9348 C.ar    1  UNL1        0.0505
      2 C         -12.2051  -17.9191   23.3051 C.ar    1  UNL1        0.0178
      3 C         -11.7086  -18.6782   24.4998 C.ar    1  UNL1        0.0379
      4 C         -10.7093  -19.7830   24.3242 C.ar    1  UNL1        0.1338
      5 O         -10.2128  -20.5420   25.5190 O.3     1  UNL1       -0.5055
      6 C         -10.2065  -20.1287   22.9540 C.ar    1  UNL1        0.0379
      7 C         -10.7030  -19.3697   21.7593 C.ar    1  UNL1        0.0178
      8 H         -10.5269  -20.3260   26.3749 H       1  UNL1        0.2922
      9 C         -11.9111  -15.5819   19.0180 C.3     1  UNL1        0.0949
     10 C         -11.4146  -16.3410   20.2127 C.2     1  UNL1        0.2266
     11 O         -10.1339  -15.9351   20.8800 O.2     1  UNL1       -0.2748
     12 N         -12.1987  -17.5058   20.7401 N.am    1  UNL1       -0.2839
     13 H         -13.0393  -17.7722   20.3021 H       1  UNL1        0.1549
@<TRIPOS>BOND
     1     9    10    1
     2    10    11    2
     3    10    12   am
     4    12     1    1
     5     1     2   ar
     6     2     3   ar
     7     3     4   ar
     8     4     5    1
     9     4     6   ar
    10     6     7   ar
    11     7     1   ar
    12    12    13    1
    13     5     8    1
@<TRIPOS>MOLECULE
*****
 13 13 0 0 0
SMALL
GASTEIGER

@<TRIPOS>ATOM
      1 C          -5.2434  -19.7329   21.6590 C.ar    1  UNL1        0.0505
      2 C          -4.8393  -20.0565   20.2512 C.ar    1  UNL1        0.0178
      3 C          -3.4376  -19.7841   19.7918 C.ar    1  UNL1        0.0379
      4 C          -2.4400  -19.1881   20.7402 C.ar    1  UNL1        0.1338
      5 O          -1.0383  -18.9157   20.2809 O.3     1  UNL1       -0.5055
      6 C          -2.8441  -18.8645   22.1480 C.ar    1  UNL1        0.0379
      7 C          -4.2458  -19.1369   22.6074 C.ar    1  UNL1        0.0178
      8 H          -0.7859  -19.1179   19.4015 H       1  UNL1        0.2922
      9 C          -9.1321  -19.2780   22.3079 C.3     1  UNL1        0.0949
     10 C          -7.7304  -19.0056   21.8485 C.2     1  UNL1        0.2266
     11 O          -7.4140  -17.7335   21.1193 O.2     1  UNL1       -0.2748
     12 N          -6.6451  -20.0052   22.1183 N.am    1  UNL1       -0.2839
     13 H          -6.8528  -20.8401   22.5969 H       1  UNL1        0.1549
@<TRIPOS>BOND
     1     9    10    1
     2    10    11    2
     3    10    12   am
     4    12     1    1
     5     1     2   ar
     6     2     3   ar
     7     3     4   ar
     8     4     5    1
     9     4     6   ar
    10     6     7   ar
    11     7     1   ar
    12    12    13    1
    13     5     8    1
@<TRIPOS>MOLECULE
*****
 13 13 0 0 0
SMALL
GASTEIGER

@<TRIPOS>ATOM
      1 C          -4.1280  -19.2992   21.3230 C.ar    1  UNL1        0.0505
      2 C          -3.0155  -18.6185   22.0639 C.ar    1  UNL1        0.0178
      3 C          -1.8006  -18.1447   21.3227 C.ar    1  UNL1        0.0379
      4 C          -1.6980  -18.3516   19.8406 C.ar    1  UNL1        0.1338
      5 O          -0.4831  -17.8778   19.0994 O.3     1  UNL1       -0.5055
      6 C          -2.8105  -19.0324   19.0997 C.ar    1  UNL1        0.0379
      7 C          -4.0255  -19.5062   19.8409 C.ar    1  UNL1        0.0178
      8 H           0.2118  -17.4525   19.5623 H       1  UNL1        0.2922
      9 C          -7.9029  -19.6608   22.4931 C.3     1  UNL1        0.0949
     10 C          -6.6879  -19.1870   21.7519 C.2     1  UNL1        0.2266
     11 O          -6.8180  -18.1271   20.6985 O.2     1  UNL1       -0.2748
     12 N          -5.3429  -19.7731   22.0642 N.am    1  UNL1       -0.2839
     13 H          -5.2576  -20.4687   22.7556 H       1  UNL1        0.1549
@<TRIPOS>BOND
     1     9    10    1
     2    10    11    2
     3    10    12   am
     4    12     1    1
     5     1     2   ar
     6     2     3   ar
     7     3     4   ar
     8     4     5    1
     9     4     6   ar
    10     6     7   ar
    11     7     1   ar
    12    12    13    1
    13     5     8    1
@<TRIPOS>MOLECULE
*****
 13 13 0 0 0
SMALL
GASTEIGER

@<TRIPOS>ATOM
      1 C         -12.4105   -6.8967   19.0025 C.ar    1  UNL1        0.0505
      2 C         -12.9683   -5.5460   19.3403 C.ar    1  UNL1        0.0178
      3 C         -12.0763   -4.3402   19.3222 C.ar    1  UNL1        0.0379
      4 C         -10.6264   -4.4852   18.9663 C.ar    1  UNL1        0.1338
      5 O          -9.7343   -3.2794   18.9482 O.3     1  UNL1       -0.5055
      6 C         -10.0686   -5.8360   18.6284 C.ar    1  UNL1        0.0379
      7 C         -10.9606   -7.0417   18.6465 C.ar    1  UNL1        0.0178
      8 H         -10.0828   -2.4356   19.1593 H       1  UNL1        0.2922
      9 C         -15.0735   -9.6088   17.8608 C.3     1  UNL1        0.0949
     10 C         -14.1814   -8.4030   17.8427 C.2     1  UNL1        0.2266
     11 O         -14.1682   -7.4977   16.6467 O.2     1  UNL1       -0.2748
     12 N         -13.3026   -8.1025   19.0205 N.am    1  UNL1       -0.2839
     13 H         -13.3113   -8.6967   19.8055 H       1  UNL1        0.1549
@<TRIPOS>BOND
     1     9    10    1
     2    10    11    2
     3    10    12   am
     4    12     1    1
     5     1     2   ar
     6     2     3   ar
     7     3     4   ar
     8     4     5    1
     9     4     6   ar
    10     6     7   ar
    11     7     1   ar
    12    12    13    1
    13     5     8    1
@<TRIPOS>MOLECULE
*****
 13 13 0 0 0
SMALL
GASTEIGER

@<TRIPOS>ATOM
      1 C          -3.4663  -17.4574   22.6731 C.ar    1  UNL1        0.0505
      2 C          -3.9065  -18.6375   21.8586 C.ar    1  UNL1        0.0178
      3 C          -3.2445  -18.9310   20.5450 C.ar    1  UNL1        0.0379
      4 C          -2.1422  -18.0445   20.0459 C.ar    1  UNL1        0.1338
      5 O          -1.4802  -18.3381   18.7323 O.3     1  UNL1       -0.5055
      6 C          -1.7020  -16.8644   20.8605 C.ar    1  UNL1        0.0379
      7 C          -2.3640  -16.5709   22.1741 C.ar    1  UNL1        0.0178
      8 H          -1.7552  -19.0753   18.2235 H       1  UNL1        0.2922
      9 C          -5.5446  -15.5877   25.4900 C.3     1  UNL1        0.0949
     10 C          -4.8826  -15.8812   24.1764 C.2     1  UNL1        0.2266
     11 O          -4.9749  -14.8922   23.0524 O.2     1  UNL1       -0.2748
     12 N          -4.1283  -17.1638   23.9867 N.am    1  UNL1       -0.2839
     13 H          -4.0677  -17.8130   24.7244 H       1  UNL1        0.1549
@<TRIPOS>BOND
     1     9    10    1
     2    10    11    2
     3    10    12   am
     4    12     1    1
     5     1     2   ar
     6     2     3   ar
     7     3     4   ar
     8     4     5    1
     9     4     6   ar
    10     6     7   ar
    11     7     1   ar
    12    12    13    1
    13     5     8    1
@<TRIPOS>MOLECULE
*****
 13 13 0 0 0
SMALL
GASTEIGER

@<TRIPOS>ATOM
      1 C          -9.3794  -18.1249   21.4057 C.ar    1  UNL1        0.0505
      2 C          -9.6302  -16.7005   21.8032 C.ar    1  UNL1        0.0178
      3 C         -10.6947  -15.9042   21.1084 C.ar    1  UNL1        0.0379
      4 C         -11.5084  -16.5324   20.0160 C.ar    1  UNL1        0.1338
      5 O         -12.5729  -15.7361   19.3212 O.3     1  UNL1       -0.5055
      6 C         -11.2575  -17.9568   19.6185 C.ar    1  UNL1        0.0379
      7 C         -10.1930  -18.7530   20.3133 C.ar    1  UNL1        0.0178
      8 H         -12.7296  -14.8463   19.5695 H       1  UNL1        0.2922
      9 C          -5.9030  -19.8851   22.1579 C.3     1  UNL1        0.0949
     10 C          -6.9675  -19.0889   21.4631 C.2     1  UNL1        0.2266
     11 O          -6.6845  -18.4603   20.1308 O.2     1  UNL1       -0.2748
     12 N          -8.3149  -18.9211   22.1005 N.am    1  UNL1       -0.2839
     13 H          -8.5006  -19.3336   22.9749 H       1  UNL1        0.1549
@<TRIPOS>BOND
     1     9    10    1
     2    10    11    2
     3    10    12   am
     4    12     1    1
     5     1     2   ar
     6     2     3   ar
     7     3     4   ar
     8     4     5    1
     9     4     6   ar
    10     6     7   ar
    11     7     1   ar
    12    12    13    1
    13     5     8    1
@<TRIPOS>MOLECULE
*****
 13 13 0 0 0
SMALL
GASTEIGER

@<TRIPOS>ATOM
      1 C          -8.7964  -16.9480   23.3062 C.ar    1  UNL1        0.0505
      2 C          -9.3145  -16.1955   24.4958 C.ar    1  UNL1        0.0178
      3 C          -8.3762  -15.3776   25.3328 C.ar    1  UNL1        0.0379
      4 C          -6.9198  -15.3122   24.9802 C.ar    1  UNL1        0.1338
      5 O          -5.9814  -14.4943   25.8173 O.3     1  UNL1       -0.5055
      6 C          -6.4016  -16.0647   23.7906 C.ar    1  UNL1        0.0379
      7 C          -7.3399  -16.8826   22.9536 C.ar    1  UNL1        0.0178
      8 H          -6.3051  -14.0243   26.5604 H       1  UNL1        0.2922
      9 C         -11.3133  -17.9811   20.4169 C.3     1  UNL1        0.0949
     10 C         -10.3750  -17.1632   21.2540 C.2     1  UNL1        0.2266
     11 O         -10.0770  -15.7426   20.8758 O.2     1  UNL1       -0.2748
     12 N          -9.7347  -17.7659   22.4691 N.am    1  UNL1       -0.2839
     13 H          -9.9302  -18.6984   22.7174 H       1  UNL1        0.1549
@<TRIPOS>BOND
     1     9    10    1
     2    10    11    2
     3    10    12   am
     4    12     1    1
     5     1     2   ar
     6     2     3   ar
     7     3     4   ar
     8     4     5    1
     9     4     6   ar
    10     6     7   ar
    11     7     1   ar
    12    12    13    1
    13     5     8    1
@<TRIPOS>MOLECULE
*****
 13 13 0 0 0
SMALL
GASTEIGER

@<TRIPOS>ATOM
      1 C         -11.2128   -4.6654   19.0263 C.ar    1  UNL1        0.0505
      2 C         -12.2094   -5.7795   18.9017 C.ar    1  UNL1        0.0178
      3 C         -11.7487   -7.1613   18.5435 C.ar    1  UNL1        0.0379
      4 C         -10.2914   -7.4291   18.3099 C.ar    1  UNL1        0.1338
      5 O          -9.8307   -8.8109   17.9517 O.3     1  UNL1       -0.5055
      6 C          -9.2948   -6.3150   18.4345 C.ar    1  UNL1        0.0379
      7 C          -9.7556   -4.9331   18.7927 C.ar    1  UNL1        0.0178
      8 H         -10.4533   -9.5068   17.8738 H       1  UNL1        0.2922
      9 C         -12.3410   -0.8776   18.6666 C.3     1  UNL1        0.0949
     10 C         -11.8803   -2.2594   18.3084 C.2     1  UNL1        0.2266
     11 O         -11.6263   -2.6170   16.8739 O.2     1  UNL1       -0.2748
     12 N         -11.6735   -3.2836   19.3846 N.am    1  UNL1       -0.2839
     13 H         -11.8402   -3.0489   20.3260 H       1  UNL1        0.1549
@<TRIPOS>BOND
     1     9    10    1
     2    10    11    2
     3    10    12   am
     4    12     1    1
     5     1     2   ar
     6     2     3   ar
     7     3     4   ar
     8     4     5    1
     9     4     6   ar
    10     6     7   ar
    11     7     1   ar
    12    12    13    1
    13     5     8    1
@<TRIPOS>MOLECULE
*****
 13 13 0 0 0
SMALL
GASTEIGER

@<TRIPOS>ATOM
      1 C          -9.9310  -18.3653   23.6172 C.ar    1  UNL1        0.0505
      2 C          -9.1204  -17.1056   23.5404 C.ar    1  UNL1        0.0178
      3 C          -7.7682  -17.1223   22.8912 C.ar    1  UNL1        0.0379
      4 C          -7.2267  -18.3987   22.3190 C.ar    1  UNL1        0.1338
      5 O          -5.8745  -18.4154   21.6698 O.3     1  UNL1       -0.5055
      6 C          -8.0374  -19.6584   22.3958 C.ar    1  UNL1        0.0379
      7 C          -9.3895  -19.6417   23.0450 C.ar    1  UNL1        0.0178
      8 H          -5.3681  -17.6285   21.6218 H       1  UNL1        0.2922
      9 C         -13.8615  -18.0838   24.0880 C.3     1  UNL1        0.0949
     10 C         -12.5094  -18.1005   23.4389 C.2     1  UNL1        0.2266
     11 O         -12.3835  -17.8692   21.9621 O.2     1  UNL1       -0.2748
     12 N         -11.2832  -18.3486   24.2664 N.am    1  UNL1       -0.2839
     13 H         -11.3658  -18.5004   25.2356 H       1  UNL1        0.1549
@<TRIPOS>BOND
     1     9    10    1
     2    10    11    2
     3    10    12   am
     4    12     1    1
     5     1     2   ar
     6     2     3   ar
     7     3     4   ar
     8     4     5    1
     9     4     6   ar
    10     6     7   ar
    11     7     1   ar
    12    12    13    1
    13     5     8    1
