@<TRIPOS>MOLECULE
*****
 39 44 0 0 0
SMALL
GASTEIGER

@<TRIPOS>ATOM
      1 C           5.0196   -1.4549   18.2159 C.ar    1  UNL1        0.1205
      2 N           6.5128   -1.5823   18.1528 N.ar    1  UNL1       -0.2313
      3 C           6.9611   -2.3762   19.3440 C.ar    1  UNL1        0.0943
      4 C           8.3196   -2.8152   19.8040 C.ar    1  UNL1       -0.0026
      5 C           9.5358   -2.4519   19.0048 C.3     1  UNL1        0.0327
      6 C           8.4619   -3.6175   21.0634 C.ar    1  UNL1        0.0003
      7 C           7.2457   -3.9808   21.8626 C.ar    1  UNL1        0.0354
      8 C           5.8872   -3.5418   21.4026 C.ar    1  UNL1        0.0217
      9 C           5.7449   -2.7395   20.1432 C.ar    1  UNL1        0.0786
     10 N           4.5450   -2.1701   19.4461 N.ar    1  UNL1       -0.3107
     11 C           7.3880   -4.7832   23.1220 C.ar    1  UNL1        0.1439
     12 N           7.9755   -6.1592   23.2292 N.ar    1  UNL1       -0.2268
     13 C           7.9184   -6.5768   24.6687 C.ar    1  UNL1        0.0987
     14 C           8.3531   -7.8306   25.3681 C.ar    1  UNL1        0.0206
     15 C           8.1649   -7.9664   26.8501 C.ar    1  UNL1        0.0016
     16 C           7.5421   -6.8485   27.6326 C.ar    1  UNL1        0.0016
     17 C           7.1075   -5.5948   26.9333 C.ar    1  UNL1        0.0188
     18 C           7.2956   -5.4589   25.4513 C.ar    1  UNL1        0.0789
     19 N           6.9678   -4.3504   24.4954 N.ar    1  UNL1       -0.3094
     20 C           6.3315   -3.0393   24.8505 C.3     1  UNL1        0.1319
     21 C           4.1531   -0.7382   17.2232 C.3     1  UNL1        0.0640
     22 C           3.9795    1.4408   18.6273 C.3     1  UNL1        0.0005
     23 C           3.3846    0.4804   17.6405 C.3     1  UNL1        0.0079
     24 C           3.1205   -2.2942   19.8995 C.3     1  UNL1        0.1339
     25 C           2.5329   -1.2632   20.8168 C.ar    1  UNL1        0.0004
     26 C           1.2742   -0.5449   20.4295 C.ar    1  UNL1       -0.0024
     27 C           0.6864    0.4861   21.3468 C.ar    1  UNL1       -0.0003
     28 C           1.3574    0.7990   22.6514 C.ar    1  UNL1        0.0000
     29 C           2.6160    0.0808   23.0387 C.ar    1  UNL1       -0.0003
     30 C           3.2038   -0.9503   22.1214 C.ar    1  UNL1       -0.0024
     31 C           0.7697    1.8301   23.5687 C.ar    1  UNL1        0.0011
     32 C          -0.0363    1.4025   24.7594 C.ar    1  UNL1        0.0000
     33 C          -0.6241    2.4335   25.6767 C.ar    1  UNL1        0.0000
     34 C          -0.4058    3.8922   25.4033 C.ar    1  UNL1        0.0000
     35 C           0.4001    4.3198   24.2127 C.ar    1  UNL1        0.0011
     36 C           0.9879    3.2887   23.2954 C.ar    1  UNL1        0.0140
     37 C           1.7938    3.7162   22.1047 C.2     1  UNL1        0.0729
     38 O           1.1105    4.0054   20.8011 O.co2   1  UNL1       -0.5446
     39 O           3.2832    3.8545   22.2178 O.co2   1  UNL1       -0.5446
@<TRIPOS>UNITY_ATOM_ATTR
38 1
charge -1
@<TRIPOS>BOND
     1    22    23    1
     2    23    21    1
     3    21     1    1
     4     1     2   ar
     5     2     3   ar
     6     3     4   ar
     7     4     5    1
     8     4     6   ar
     9     6     7   ar
    10     7    11    1
    11    11    12   ar
    12    12    13   ar
    13    13    14   ar
    14    14    15   ar
    15    15    16   ar
    16    16    17   ar
    17    17    18   ar
    18    18    19   ar
    19    19    20    1
    20     7     8   ar
    21     8     9   ar
    22     9    10   ar
    23    10    24    1
    24    24    25    1
    25    25    26   ar
    26    26    27   ar
    27    27    28   ar
    28    28    31    1
    29    31    32   ar
    30    32    33   ar
    31    33    34   ar
    32    34    35   ar
    33    35    36   ar
    34    36    37    1
    35    37    38   ar
    36    37    39   ar
    37    28    29   ar
    38    29    30   ar
    39    10     1   ar
    40    30    25   ar
    41     9     3   ar
    42    36    31   ar
    43    19    11   ar
    44    18    13   ar
@<TRIPOS>MOLECULE
*****
 39 44 0 0 0
SMALL
GASTEIGER

@<TRIPOS>ATOM
      1 C          -1.8478    3.7790   19.4714 C.ar    1  UNL1        0.1205
      2 N          -3.1562    3.7306   20.2034 N.ar    1  UNL1       -0.2313
      3 C          -2.8633    3.5840   21.6672 C.ar    1  UNL1        0.0943
      4 C          -3.7604    3.4835   22.8651 C.ar    1  UNL1       -0.0026
      5 C          -5.2498    3.5258   22.6924 C.3     1  UNL1        0.0327
      6 C          -3.1681    3.3407   24.2358 C.ar    1  UNL1        0.0003
      7 C          -1.6786    3.2985   24.4085 C.ar    1  UNL1        0.0354
      8 C          -0.7815    3.3989   23.2105 C.ar    1  UNL1        0.0217
      9 C          -1.3739    3.5417   21.8399 C.ar    1  UNL1        0.0786
     10 N          -0.7463    3.6622   20.4828 N.ar    1  UNL1       -0.3107
     11 C          -1.0863    3.1557   25.7792 C.ar    1  UNL1        0.1439
     12 N          -0.9191    1.8728   26.5382 N.ar    1  UNL1       -0.2268
     13 C          -0.2867    2.1950   27.8596 C.ar    1  UNL1        0.0987
     14 C           0.1144    1.3303   29.0179 C.ar    1  UNL1        0.0206
     15 C           0.7393    1.9478   30.2338 C.ar    1  UNL1        0.0016
     16 C           0.9629    3.4299   30.2914 C.ar    1  UNL1        0.0016
     17 C           0.5618    4.2946   29.1332 C.ar    1  UNL1        0.0188
     18 C          -0.0630    3.6772   27.9173 C.ar    1  UNL1        0.0789
     19 N          -0.5572    4.2709   26.6316 N.ar    1  UNL1       -0.3094
     20 C          -0.5274    5.7245   26.2628 C.3     1  UNL1        0.1319
     21 C          -1.6719    3.9194   17.9884 C.3     1  UNL1        0.0640
     22 C          -3.6856    3.5110   16.3984 C.3     1  UNL1        0.0005
     23 C          -2.7926    4.4551   17.1476 C.3     1  UNL1        0.0079
     24 C           0.7246    3.6654   20.1888 C.3     1  UNL1        0.1339
     25 C           1.4709    2.3687   20.0818 C.ar    1  UNL1        0.0004
     26 C           2.8784    2.2692   20.5910 C.ar    1  UNL1       -0.0024
     27 C           3.6248    0.9725   20.4840 C.ar    1  UNL1       -0.0003
     28 C           2.9637   -0.2247   19.8679 C.ar    1  UNL1        0.0000
     29 C           1.5563   -0.1252   19.3588 C.ar    1  UNL1       -0.0003
     30 C           0.8099    1.1715   19.4657 C.ar    1  UNL1       -0.0024
     31 C           3.7101   -1.5214   19.7609 C.ar    1  UNL1        0.0011
     32 C           3.6730   -2.5039   20.8939 C.ar    1  UNL1        0.0000
     33 C           4.4194   -3.8006   20.7869 C.ar    1  UNL1        0.0000
     34 C           5.2029   -4.1148   19.5469 C.ar    1  UNL1        0.0000
     35 C           5.2399   -3.1325   18.4140 C.ar    1  UNL1        0.0011
     36 C           4.4935   -1.8358   18.5210 C.ar    1  UNL1        0.0140
     37 C           4.5305   -0.8534   17.3881 C.2     1  UNL1        0.0729
     38 O           3.6555   -1.0598   16.1874 O.co2   1  UNL1       -0.5446
     39 O           5.4426    0.3355   17.4559 O.co2   1  UNL1       -0.5446
@<TRIPOS>UNITY_ATOM_ATTR
38 1
charge -1
@<TRIPOS>BOND
     1    22    23    1
     2    23    21    1
     3    21     1    1
     4     1     2   ar
     5     2     3   ar
     6     3     4   ar
     7     4     5    1
     8     4     6   ar
     9     6     7   ar
    10     7    11    1
    11    11    12   ar
    12    12    13   ar
    13    13    14   ar
    14    14    15   ar
    15    15    16   ar
    16    16    17   ar
    17    17    18   ar
    18    18    19   ar
    19    19    20    1
    20     7     8   ar
    21     8     9   ar
    22     9    10   ar
    23    10    24    1
    24    24    25    1
    25    25    26   ar
    26    26    27   ar
    27    27    28   ar
    28    28    31    1
    29    31    32   ar
    30    32    33   ar
    31    33    34   ar
    32    34    35   ar
    33    35    36   ar
    34    36    37    1
    35    37    38   ar
    36    37    39   ar
    37    28    29   ar
    38    29    30   ar
    39    10     1   ar
    40    30    25   ar
    41     9     3   ar
    42    36    31   ar
    43    19    11   ar
    44    18    13   ar
@<TRIPOS>MOLECULE
*****
 39 44 0 0 0
SMALL
GASTEIGER

@<TRIPOS>ATOM
      1 C           7.6746   -3.9849   22.1280 C.ar    1  UNL1        0.1205
      2 N           6.8707   -4.6648   21.0596 N.ar    1  UNL1       -0.2313
      3 C           5.7274   -3.7643   20.6960 C.ar    1  UNL1        0.0943
      4 C           4.6104   -3.9105   19.7057 C.ar    1  UNL1       -0.0026
      5 C           4.5130   -5.1469   18.8620 C.3     1  UNL1        0.0327
      6 C           3.5907   -2.8202   19.5591 C.ar    1  UNL1        0.0003
      7 C           3.6881   -1.5838   20.4027 C.ar    1  UNL1        0.0354
      8 C           4.8051   -1.4377   21.3930 C.ar    1  UNL1        0.0217
      9 C           5.8248   -2.5279   21.5397 C.ar    1  UNL1        0.0786
     10 N           7.0282   -2.6643   22.4247 N.ar    1  UNL1       -0.3107
     11 C           2.6683   -0.4935   20.2561 C.ar    1  UNL1        0.1439
     12 N           1.7422   -0.0024   21.3290 N.ar    1  UNL1       -0.2268
     13 C           0.8972    1.0917   20.7467 C.ar    1  UNL1        0.0987
     14 C          -0.1879    1.9434   21.3361 C.ar    1  UNL1        0.0206
     15 C          -0.8690    2.9801   20.4926 C.ar    1  UNL1        0.0016
     16 C          -0.4652    3.1650   19.0599 C.ar    1  UNL1        0.0016
     17 C           0.6199    2.3133   18.4706 C.ar    1  UNL1        0.0188
     18 C           1.3010    1.2767   19.3140 C.ar    1  UNL1        0.0789
     19 N           2.3956    0.2970   19.0108 N.ar    1  UNL1       -0.3094
     20 C           3.0948    0.1360   17.6935 C.3     1  UNL1        0.1319
     21 C           8.9083   -4.5300   22.7844 C.3     1  UNL1        0.0640
     22 C           7.5294   -5.5530   24.7342 C.3     1  UNL1        0.0005
     23 C           8.7864   -5.5057   23.9171 C.3     1  UNL1        0.0079
     24 C           7.5021   -1.6568   23.4299 C.3     1  UNL1        0.1339
     25 C           7.3893   -1.9504   24.8965 C.ar    1  UNL1        0.0004
     26 C           6.0380   -2.0421   25.5413 C.ar    1  UNL1       -0.0024
     27 C           5.9251   -2.3356   27.0079 C.ar    1  UNL1       -0.0003
     28 C           7.1636   -2.5375   27.8298 C.ar    1  UNL1        0.0000
     29 C           8.5148   -2.4458   27.1851 C.ar    1  UNL1       -0.0003
     30 C           8.6277   -2.1522   25.7184 C.ar    1  UNL1       -0.0024
     31 C           7.0507   -2.8311   29.2965 C.ar    1  UNL1        0.0011
     32 C           7.0516   -1.7061   30.2888 C.ar    1  UNL1        0.0000
     33 C           6.9387   -1.9997   31.7555 C.ar    1  UNL1        0.0000
     34 C           6.8250   -3.4182   32.2298 C.ar    1  UNL1        0.0000
     35 C           6.8241   -4.5431   31.2375 C.ar    1  UNL1        0.0011
     36 C           6.9370   -4.2496   29.7709 C.ar    1  UNL1        0.0140
     37 C           6.9361   -5.3744   28.7786 C.2     1  UNL1        0.0729
     38 O           8.1915   -6.1570   28.5308 O.co2   1  UNL1       -0.5446
     39 O           5.6797   -5.7166   28.0340 O.co2   1  UNL1       -0.5446
@<TRIPOS>UNITY_ATOM_ATTR
38 1
charge -1
@<TRIPOS>BOND
     1    22    23    1
     2    23    21    1
     3    21     1    1
     4     1     2   ar
     5     2     3   ar
     6     3     4   ar
     7     4     5    1
     8     4     6   ar
     9     6     7   ar
    10     7    11    1
    11    11    12   ar
    12    12    13   ar
    13    13    14   ar
    14    14    15   ar
    15    15    16   ar
    16    16    17   ar
    17    17    18   ar
    18    18    19   ar
    19    19    20    1
    20     7     8   ar
    21     8     9   ar
    22     9    10   ar
    23    10    24    1
    24    24    25    1
    25    25    26   ar
    26    26    27   ar
    27    27    28   ar
    28    28    31    1
    29    31    32   ar
    30    32    33   ar
    31    33    34   ar
    32    34    35   ar
    33    35    36   ar
    34    36    37    1
    35    37    38   ar
    36    37    39   ar
    37    28    29   ar
    38    29    30   ar
    39    10     1   ar
    40    30    25   ar
    41     9     3   ar
    42    36    31   ar
    43    19    11   ar
    44    18    13   ar
@<TRIPOS>MOLECULE
*****
 39 44 0 0 0
SMALL
GASTEIGER

@<TRIPOS>ATOM
      1 C          -2.4701    3.9391   19.6664 C.ar    1  UNL1        0.1205
      2 N          -3.6908    3.9615   20.5378 N.ar    1  UNL1       -0.2313
      3 C          -3.2522    3.7434   21.9556 C.ar    1  UNL1        0.0943
      4 C          -4.0185    3.6676   23.2429 C.ar    1  UNL1       -0.0026
      5 C          -5.5102    3.8248   23.2381 C.3     1  UNL1        0.0327
      6 C          -3.2930    3.4346   24.5349 C.ar    1  UNL1        0.0003
      7 C          -1.8013    3.2774   24.5396 C.ar    1  UNL1        0.0354
      8 C          -1.0350    3.3531   23.2524 C.ar    1  UNL1        0.0217
      9 C          -1.7605    3.5862   21.9604 C.ar    1  UNL1        0.0786
     10 N          -1.2772    3.7071   20.5455 N.ar    1  UNL1       -0.3107
     11 C          -1.0758    3.0443   25.8318 C.ar    1  UNL1        0.1439
     12 N          -0.5855    1.7216   26.3415 N.ar    1  UNL1       -0.2268
     13 C           0.0800    1.9529   27.6657 C.ar    1  UNL1        0.0987
     14 C           0.7478    1.0183   28.6303 C.ar    1  UNL1        0.0206
     15 C           1.3366    1.5494   29.9037 C.ar    1  UNL1        0.0016
     16 C           1.2575    3.0152   30.2123 C.ar    1  UNL1        0.0016
     17 C           0.5898    3.9498   29.2477 C.ar    1  UNL1        0.0188
     18 C           0.0010    3.4187   27.9744 C.ar    1  UNL1        0.0789
     19 N          -0.7133    4.0932   26.8410 N.ar    1  UNL1       -0.3094
     20 C          -1.0127    5.5592   26.7353 C.3     1  UNL1        0.1319
     21 C          -2.4466    4.1174   18.1772 C.3     1  UNL1        0.0640
     22 C          -3.6112    3.3509   15.9849 C.3     1  UNL1        0.0005
     23 C          -3.6969    3.9043   17.3764 C.3     1  UNL1        0.0079
     24 C           0.1489    3.6127   20.0899 C.3     1  UNL1        0.1339
     25 C           0.9001    2.3231   20.2392 C.ar    1  UNL1        0.0004
     26 C           2.3991    2.3173   20.1815 C.ar    1  UNL1       -0.0024
     27 C           3.1504    1.0277   20.3309 C.ar    1  UNL1       -0.0003
     28 C           2.4028   -0.2562   20.5379 C.ar    1  UNL1        0.0000
     29 C           0.9040   -0.2504   20.5956 C.ar    1  UNL1       -0.0003
     30 C           0.1526    1.0392   20.4462 C.ar    1  UNL1       -0.0024
     31 C           3.1542   -1.5458   20.6872 C.ar    1  UNL1        0.0011
     32 C           3.1654   -2.5416   19.5653 C.ar    1  UNL1        0.0000
     33 C           3.9168   -3.8312   19.7146 C.ar    1  UNL1        0.0000
     34 C           4.6569   -4.1251   20.9858 C.ar    1  UNL1        0.0000
     35 C           4.6457   -3.1294   22.1076 C.ar    1  UNL1        0.0011
     36 C           3.8943   -1.8398   21.9583 C.ar    1  UNL1        0.0140
     37 C           3.8831   -0.8441   23.0801 C.2     1  UNL1        0.0729
     38 O           2.7000   -0.7624   23.9986 O.co2   1  UNL1       -0.5446
     39 O           5.0549    0.0699   23.2833 O.co2   1  UNL1       -0.5446
@<TRIPOS>UNITY_ATOM_ATTR
38 1
charge -1
@<TRIPOS>BOND
     1    22    23    1
     2    23    21    1
     3    21     1    1
     4     1     2   ar
     5     2     3   ar
     6     3     4   ar
     7     4     5    1
     8     4     6   ar
     9     6     7   ar
    10     7    11    1
    11    11    12   ar
    12    12    13   ar
    13    13    14   ar
    14    14    15   ar
    15    15    16   ar
    16    16    17   ar
    17    17    18   ar
    18    18    19   ar
    19    19    20    1
    20     7     8   ar
    21     8     9   ar
    22     9    10   ar
    23    10    24    1
    24    24    25    1
    25    25    26   ar
    26    26    27   ar
    27    27    28   ar
    28    28    31    1
    29    31    32   ar
    30    32    33   ar
    31    33    34   ar
    32    34    35   ar
    33    35    36   ar
    34    36    37    1
    35    37    38   ar
    36    37    39   ar
    37    28    29   ar
    38    29    30   ar
    39    10     1   ar
    40    30    25   ar
    41     9     3   ar
    42    36    31   ar
    43    19    11   ar
    44    18    13   ar
@<TRIPOS>MOLECULE
*****
 39 44 0 0 0
SMALL
GASTEIGER

@<TRIPOS>ATOM
      1 C           7.9956   -4.2581   28.9321 C.ar    1  UNL1        0.1205
      2 N           8.1491   -5.6020   28.2837 N.ar    1  UNL1       -0.2313
      3 C           7.9044   -5.4378   26.8129 C.ar    1  UNL1        0.0943
      4 C           7.9198   -6.4176   25.6774 C.ar    1  UNL1       -0.0026
      5 C           8.2246   -7.8630   25.9380 C.3     1  UNL1        0.0327
      6 C           7.6303   -5.9521   24.2812 C.ar    1  UNL1        0.0003
      7 C           7.3255   -4.5067   24.0205 C.ar    1  UNL1        0.0354
      8 C           7.3102   -3.5268   25.1561 C.ar    1  UNL1        0.0217
      9 C           7.5996   -3.9924   26.5523 C.ar    1  UNL1        0.0786
     10 N           7.6560   -3.2633   27.8620 N.ar    1  UNL1       -0.3107
     11 C           7.0361   -4.0411   22.6242 C.ar    1  UNL1        0.1439
     12 N           5.7601   -4.2630   21.8676 N.ar    1  UNL1       -0.2268
     13 C           5.9072   -3.6310   20.5152 C.ar    1  UNL1        0.0987
     14 C           4.9731   -3.5341   19.3456 C.ar    1  UNL1        0.0206
     15 C           5.4060   -2.8247   18.0968 C.ar    1  UNL1        0.0016
     16 C           6.7729   -2.2122   18.0177 C.ar    1  UNL1        0.0016
     17 C           7.7070   -2.3091   19.1873 C.ar    1  UNL1        0.0188
     18 C           7.2742   -3.0185   20.4360 C.ar    1  UNL1        0.0789
     19 N           7.9719   -3.2720   21.7395 N.ar    1  UNL1       -0.3094
     20 C           9.3613   -2.8333   22.0957 C.3     1  UNL1        0.1319
     21 C           8.1538   -3.9612   30.3939 C.3     1  UNL1        0.0640
     22 C           6.0937   -2.8653   31.5361 C.3     1  UNL1        0.0005
     23 C           6.9716   -4.0606   31.3117 C.3     1  UNL1        0.0079
     24 C           7.4150   -1.7969   28.0659 C.3     1  UNL1        0.1339
     25 C           6.0988   -1.1919   27.6768 C.ar    1  UNL1        0.0004
     26 C           4.8433   -2.0082   27.7632 C.ar    1  UNL1       -0.0024
     27 C           3.5270   -1.4032   27.3741 C.ar    1  UNL1       -0.0003
     28 C           3.4662    0.0182   26.8985 C.ar    1  UNL1        0.0000
     29 C           4.7217    0.8344   26.8121 C.ar    1  UNL1       -0.0003
     30 C           6.0379    0.2294   27.2012 C.ar    1  UNL1       -0.0024
     31 C           2.1499    0.6231   26.5094 C.ar    1  UNL1        0.0011
     32 C           1.7971    0.7830   25.0602 C.ar    1  UNL1        0.0000
     33 C           0.4808    1.3879   24.6711 C.ar    1  UNL1        0.0000
     34 C          -0.4826    1.8331   25.7313 C.ar    1  UNL1        0.0000
     35 C          -0.1298    1.6732   27.1804 C.ar    1  UNL1        0.0011
     36 C           1.1865    1.0683   27.5695 C.ar    1  UNL1        0.0140
     37 C           1.5394    0.9084   29.0185 C.2     1  UNL1        0.0729
     38 O           2.4410    1.9047   29.6853 O.co2   1  UNL1       -0.5446
     39 O           0.9907   -0.2478   29.8009 O.co2   1  UNL1       -0.5446
@<TRIPOS>UNITY_ATOM_ATTR
38 1
charge -1
@<TRIPOS>BOND
     1    22    23    1
     2    23    21    1
     3    21     1    1
     4     1     2   ar
     5     2     3   ar
     6     3     4   ar
     7     4     5    1
     8     4     6   ar
     9     6     7   ar
    10     7    11    1
    11    11    12   ar
    12    12    13   ar
    13    13    14   ar
    14    14    15   ar
    15    15    16   ar
    16    16    17   ar
    17    17    18   ar
    18    18    19   ar
    19    19    20    1
    20     7     8   ar
    21     8     9   ar
    22     9    10   ar
    23    10    24    1
    24    24    25    1
    25    25    26   ar
    26    26    27   ar
    27    27    28   ar
    28    28    31    1
    29    31    32   ar
    30    32    33   ar
    31    33    34   ar
    32    34    35   ar
    33    35    36   ar
    34    36    37    1
    35    37    38   ar
    36    37    39   ar
    37    28    29   ar
    38    29    30   ar
    39    10     1   ar
    40    30    25   ar
    41     9     3   ar
    42    36    31   ar
    43    19    11   ar
    44    18    13   ar
@<TRIPOS>MOLECULE
*****
 39 44 0 0 0
SMALL
GASTEIGER

@<TRIPOS>ATOM
      1 C           8.0776   -3.8171   27.3098 C.ar    1  UNL1        0.1205
      2 N           7.8979   -4.7235   28.4914 N.ar    1  UNL1       -0.2313
      3 C           7.2378   -3.9356   29.5839 C.ar    1  UNL1        0.0943
      4 C           6.8152   -4.3069   30.9743 C.ar    1  UNL1       -0.0026
      5 C           7.0435   -5.7002   31.4808 C.3     1  UNL1        0.0327
      6 C           6.1642   -3.2848   31.8584 C.ar    1  UNL1        0.0003
      7 C           5.9359   -1.8915   31.3520 C.ar    1  UNL1        0.0354
      8 C           6.3585   -1.5202   29.9615 C.ar    1  UNL1        0.0217
      9 C           7.0095   -2.5422   29.0775 C.ar    1  UNL1        0.0786
     10 N           7.5285   -2.4690   27.6720 N.ar    1  UNL1       -0.3107
     11 C           5.2849   -0.8694   32.2361 C.ar    1  UNL1        0.1439
     12 N           5.8944   -0.2406   33.4539 N.ar    1  UNL1       -0.2268
     13 C           4.8962    0.7207   34.0281 C.ar    1  UNL1        0.0987
     14 C           4.9456    1.6231   35.2252 C.ar    1  UNL1        0.0206
     15 C           3.7686    2.4909   35.5594 C.ar    1  UNL1        0.0016
     16 C           2.5422    2.4562   34.6964 C.ar    1  UNL1        0.0016
     17 C           2.4928    1.5538   33.4992 C.ar    1  UNL1        0.0188
     18 C           3.6698    0.6860   33.1651 C.ar    1  UNL1        0.0789
     19 N           3.9100   -0.2967   32.0576 N.ar    1  UNL1       -0.3094
     20 C           2.9448   -0.6455   30.9637 C.3     1  UNL1        0.1319
     21 C           8.6974   -4.1928   25.9965 C.3     1  UNL1        0.0640
     22 C           7.5373   -4.0586   23.6758 C.3     1  UNL1        0.0005
     23 C           7.8592   -4.8243   24.9248 C.3     1  UNL1        0.0079
     24 C           7.5029   -1.2600   26.7846 C.3     1  UNL1        0.1339
     25 C           6.5330   -1.1881   25.6427 C.ar    1  UNL1        0.0004
     26 C           6.8932   -0.4304   24.3992 C.ar    1  UNL1       -0.0024
     27 C           5.9233   -0.3585   23.2572 C.ar    1  UNL1       -0.0003
     28 C           4.5931   -1.0444   23.3587 C.ar    1  UNL1        0.0000
     29 C           4.2329   -1.8020   24.6021 C.ar    1  UNL1       -0.0003
     30 C           5.2028   -1.8739   25.7441 C.ar    1  UNL1       -0.0024
     31 C           3.6232   -0.9725   22.2167 C.ar    1  UNL1        0.0011
     32 C           2.5455    0.0710   22.2126 C.ar    1  UNL1        0.0000
     33 C           1.5756    0.1429   21.0706 C.ar    1  UNL1        0.0000
     34 C           1.6834   -0.8287   19.9328 C.ar    1  UNL1        0.0000
     35 C           2.7610   -1.8721   19.9370 C.ar    1  UNL1        0.0011
     36 C           3.7309   -1.9440   21.0790 C.ar    1  UNL1        0.0140
     37 C           4.8085   -2.9873   21.0832 C.2     1  UNL1        0.0729
     38 O           6.1331   -2.7002   20.4405 O.co2   1  UNL1       -0.5446
     39 O           4.5615   -4.3179   21.7302 O.co2   1  UNL1       -0.5446
@<TRIPOS>UNITY_ATOM_ATTR
38 1
charge -1
@<TRIPOS>BOND
     1    22    23    1
     2    23    21    1
     3    21     1    1
     4     1     2   ar
     5     2     3   ar
     6     3     4   ar
     7     4     5    1
     8     4     6   ar
     9     6     7   ar
    10     7    11    1
    11    11    12   ar
    12    12    13   ar
    13    13    14   ar
    14    14    15   ar
    15    15    16   ar
    16    16    17   ar
    17    17    18   ar
    18    18    19   ar
    19    19    20    1
    20     7     8   ar
    21     8     9   ar
    22     9    10   ar
    23    10    24    1
    24    24    25    1
    25    25    26   ar
    26    26    27   ar
    27    27    28   ar
    28    28    31    1
    29    31    32   ar
    30    32    33   ar
    31    33    34   ar
    32    34    35   ar
    33    35    36   ar
    34    36    37    1
    35    37    38   ar
    36    37    39   ar
    37    28    29   ar
    38    29    30   ar
    39    10     1   ar
    40    30    25   ar
    41     9     3   ar
    42    36    31   ar
    43    19    11   ar
    44    18    13   ar
@<TRIPOS>MOLECULE
*****
 39 44 0 0 0
SMALL
GASTEIGER

@<TRIPOS>ATOM
      1 C           2.6615    0.7393   18.2722 C.ar    1  UNL1        0.1205
      2 N           2.4275    2.1941   17.9918 N.ar    1  UNL1       -0.2313
      3 C           1.4186    2.7002   18.9797 C.ar    1  UNL1        0.0943
      4 C           0.8043    4.0534   19.1831 C.ar    1  UNL1       -0.0026
      5 C           1.1939    5.1955   18.2922 C.3     1  UNL1        0.0327
      6 C          -0.1995    4.2645   20.2775 C.ar    1  UNL1        0.0003
      7 C          -0.5891    3.1224   21.1684 C.ar    1  UNL1        0.0354
      8 C           0.0252    1.7692   20.9651 C.ar    1  UNL1        0.0217
      9 C           1.0290    1.5581   19.8707 C.ar    1  UNL1        0.0786
     10 N           1.7972    0.3462   19.4334 N.ar    1  UNL1       -0.3107
     11 C          -1.5930    3.3336   22.2628 C.ar    1  UNL1        0.1439
     12 N          -1.2891    3.4559   23.7266 N.ar    1  UNL1       -0.2268
     13 C          -2.5853    3.6574   24.4540 C.ar    1  UNL1        0.0987
     14 C          -2.9022    3.8392   25.9088 C.ar    1  UNL1        0.0206
     15 C          -4.3242    4.0232   26.3494 C.ar    1  UNL1        0.0016
     16 C          -5.4293    4.0254   25.3352 C.ar    1  UNL1        0.0016
     17 C          -5.1124    3.8436   23.8803 C.ar    1  UNL1        0.0188
     18 C          -3.6905    3.6597   23.4397 C.ar    1  UNL1        0.0789
     19 N          -3.0772    3.4595   22.0855 N.ar    1  UNL1       -0.3094
     20 C          -3.8180    3.3964   20.7828 C.3     1  UNL1        0.1319
     21 C           3.5958   -0.1639   17.5229 C.3     1  UNL1        0.0640
     22 C           5.5631    0.3519   19.1395 C.3     1  UNL1        0.0005
     23 C           5.0685   -0.1194   17.8041 C.3     1  UNL1        0.0079
     24 C           1.7153   -1.0191   20.0492 C.3     1  UNL1        0.1339
     25 C           2.9336   -1.6365   20.6693 C.ar    1  UNL1        0.0004
     26 C           3.5149   -1.0526   21.9228 C.ar    1  UNL1       -0.0024
     27 C           4.7332   -1.6700   22.5430 C.ar    1  UNL1       -0.0003
     28 C           5.3703   -2.8713   21.9095 C.ar    1  UNL1        0.0000
     29 C           4.7890   -3.4551   20.6561 C.ar    1  UNL1       -0.0003
     30 C           3.5707   -2.8377   20.0359 C.ar    1  UNL1       -0.0024
     31 C           6.5886   -3.4886   22.5297 C.ar    1  UNL1        0.0011
     32 C           6.4447   -4.4338   23.6856 C.ar    1  UNL1        0.0000
     33 C           7.6631   -5.0512   24.3057 C.ar    1  UNL1        0.0000
     34 C           9.0252   -4.7233   23.7699 C.ar    1  UNL1        0.0000
     35 C           9.1691   -3.7781   22.6141 C.ar    1  UNL1        0.0011
     36 C           7.9508   -3.1608   21.9940 C.ar    1  UNL1        0.0140
     37 C           8.0946   -2.2156   20.8382 C.2     1  UNL1        0.0729
     38 O           8.3127   -0.7528   21.0882 O.co2   1  UNL1       -0.5446
     39 O           8.0203   -2.7333   19.4323 O.co2   1  UNL1       -0.5446
@<TRIPOS>UNITY_ATOM_ATTR
38 1
charge -1
@<TRIPOS>BOND
     1    22    23    1
     2    23    21    1
     3    21     1    1
     4     1     2   ar
     5     2     3   ar
     6     3     4   ar
     7     4     5    1
     8     4     6   ar
     9     6     7   ar
    10     7    11    1
    11    11    12   ar
    12    12    13   ar
    13    13    14   ar
    14    14    15   ar
    15    15    16   ar
    16    16    17   ar
    17    17    18   ar
    18    18    19   ar
    19    19    20    1
    20     7     8   ar
    21     8     9   ar
    22     9    10   ar
    23    10    24    1
    24    24    25    1
    25    25    26   ar
    26    26    27   ar
    27    27    28   ar
    28    28    31    1
    29    31    32   ar
    30    32    33   ar
    31    33    34   ar
    32    34    35   ar
    33    35    36   ar
    34    36    37    1
    35    37    38   ar
    36    37    39   ar
    37    28    29   ar
    38    29    30   ar
    39    10     1   ar
    40    30    25   ar
    41     9     3   ar
    42    36    31   ar
    43    19    11   ar
    44    18    13   ar
@<TRIPOS>MOLECULE
*****
 39 44 0 0 0
SMALL
GASTEIGER

@<TRIPOS>ATOM
      1 C          -1.0106    2.7015   25.2481 C.ar    1  UNL1        0.1205
      2 N          -1.5220    2.0888   26.5182 N.ar    1  UNL1       -0.2313
      3 C          -0.3990    1.3173   27.1457 C.ar    1  UNL1        0.0943
      4 C          -0.3183    0.5087   28.4064 C.ar    1  UNL1       -0.0026
      5 C          -1.5237    0.3727   29.2887 C.3     1  UNL1        0.0327
      6 C           0.9679   -0.1640   28.7849 C.ar    1  UNL1        0.0003
      7 C           2.1733   -0.0281   27.9026 C.ar    1  UNL1        0.0354
      8 C           2.0926    0.7806   26.6419 C.ar    1  UNL1        0.0217
      9 C           0.8065    1.4533   26.2634 C.ar    1  UNL1        0.0786
     10 N           0.4284    2.3087   25.0907 N.ar    1  UNL1       -0.3107
     11 C           3.4595   -0.7008   28.2811 C.ar    1  UNL1        0.1439
     12 N           4.1308   -1.8088   27.5251 N.ar    1  UNL1       -0.2268
     13 C           5.3863   -2.1764   28.2588 C.ar    1  UNL1        0.0987
     14 C           6.4478   -3.1994   27.9819 C.ar    1  UNL1        0.0206
     15 C           7.6140   -3.3416   28.9145 C.ar    1  UNL1        0.0016
     16 C           7.7187   -2.4607   30.1241 C.ar    1  UNL1        0.0016
     17 C           6.6572   -1.4377   30.4011 C.ar    1  UNL1        0.0188
     18 C           5.4911   -1.2955   29.4685 C.ar    1  UNL1        0.0789
     19 N           4.3002   -0.3836   29.4822 N.ar    1  UNL1       -0.3094
     20 C           4.0024    0.6620   30.5157 C.3     1  UNL1        0.1319
     21 C          -1.7998    3.5568   24.3017 C.3     1  UNL1        0.0640
     22 C          -4.3361    3.2115   23.8570 C.3     1  UNL1        0.0005
     23 C          -3.2296    3.8914   24.6076 C.3     1  UNL1        0.0079
     24 C           1.3310    2.7023   23.9591 C.3     1  UNL1        0.1339
     25 C           1.9214    1.6489   23.0694 C.ar    1  UNL1        0.0004
     26 C           1.0468    0.9078   22.1020 C.ar    1  UNL1       -0.0024
     27 C           1.6372   -0.1457   21.2122 C.ar    1  UNL1       -0.0003
     28 C           3.1023   -0.4580   21.2898 C.ar    1  UNL1        0.0000
     29 C           3.9769    0.2831   22.2571 C.ar    1  UNL1       -0.0003
     30 C           3.3865    1.3365   23.1469 C.ar    1  UNL1       -0.0024
     31 C           3.6926   -1.5114   20.4000 C.ar    1  UNL1        0.0011
     32 C           3.9110   -2.8998   20.9243 C.ar    1  UNL1        0.0000
     33 C           4.5014   -3.9533   20.0345 C.ar    1  UNL1        0.0000
     34 C           4.8733   -3.6183   18.6205 C.ar    1  UNL1        0.0000
     35 C           4.6550   -2.2300   18.0962 C.ar    1  UNL1        0.0011
     36 C           4.0646   -1.1766   18.9860 C.ar    1  UNL1        0.0140
     37 C           3.8462    0.2118   18.4618 C.2     1  UNL1        0.0729
     38 O           2.5255    0.5860   17.8570 O.co2   1  UNL1       -0.5446
     39 O           4.9485    1.2259   18.5425 O.co2   1  UNL1       -0.5446
@<TRIPOS>UNITY_ATOM_ATTR
38 1
charge -1
@<TRIPOS>BOND
     1    22    23    1
     2    23    21    1
     3    21     1    1
     4     1     2   ar
     5     2     3   ar
     6     3     4   ar
     7     4     5    1
     8     4     6   ar
     9     6     7   ar
    10     7    11    1
    11    11    12   ar
    12    12    13   ar
    13    13    14   ar
    14    14    15   ar
    15    15    16   ar
    16    16    17   ar
    17    17    18   ar
    18    18    19   ar
    19    19    20    1
    20     7     8   ar
    21     8     9   ar
    22     9    10   ar
    23    10    24    1
    24    24    25    1
    25    25    26   ar
    26    26    27   ar
    27    27    28   ar
    28    28    31    1
    29    31    32   ar
    30    32    33   ar
    31    33    34   ar
    32    34    35   ar
    33    35    36   ar
    34    36    37    1
    35    37    38   ar
    36    37    39   ar
    37    28    29   ar
    38    29    30   ar
    39    10     1   ar
    40    30    25   ar
    41     9     3   ar
    42    36    31   ar
    43    19    11   ar
    44    18    13   ar
@<TRIPOS>MOLECULE
*****
 39 44 0 0 0
SMALL
GASTEIGER

@<TRIPOS>ATOM
      1 C           8.8257   -5.9948   26.6329 C.ar    1  UNL1        0.1205
      2 N           8.3677   -6.2712   28.0343 N.ar    1  UNL1       -0.2313
      3 C           7.7397   -5.0196   28.5720 C.ar    1  UNL1        0.0943
      4 C           7.1133   -4.7003   29.8970 C.ar    1  UNL1       -0.0026
      5 C           7.0434   -5.7502   30.9660 C.3     1  UNL1        0.0327
      6 C           6.5568   -3.3311   30.1530 C.ar    1  UNL1        0.0003
      7 C           6.6267   -2.2812   29.0840 C.ar    1  UNL1        0.0354
      8 C           7.2531   -2.6005   27.7590 C.ar    1  UNL1        0.0217
      9 C           7.8096   -3.9697   27.5030 C.ar    1  UNL1        0.0786
     10 N           8.4808   -4.5724   26.3046 N.ar    1  UNL1       -0.3107
     11 C           6.0701   -0.9120   29.3400 C.ar    1  UNL1        0.1439
     12 N           6.7182    0.1641   30.1597 N.ar    1  UNL1       -0.2268
     13 C           5.8164    1.3627   30.1476 C.ar    1  UNL1        0.0987
     14 C           5.9372    2.7161   30.7829 C.ar    1  UNL1        0.0206
     15 C           4.8524    3.7342   30.5909 C.ar    1  UNL1        0.0016
     16 C           3.6469    3.3989   29.7636 C.ar    1  UNL1        0.0016
     17 C           3.5262    2.0454   29.1283 C.ar    1  UNL1        0.0188
     18 C           4.6109    1.0274   29.3202 C.ar    1  UNL1        0.0789
     19 N           4.7678   -0.3784   28.8211 N.ar    1  UNL1       -0.3094
     20 C           3.7933   -1.1204   27.9552 C.3     1  UNL1        0.1319
     21 C           9.5087   -6.9697   25.7201 C.3     1  UNL1        0.0640
     22 C           8.9265   -7.2373   23.2023 C.3     1  UNL1        0.0005
     23 C           8.7317   -7.6488   24.6316 C.3     1  UNL1        0.0079
     24 C           8.7584   -3.8751   25.0059 C.3     1  UNL1        0.1339
     25 C           7.6216   -3.3690   24.1684 C.ar    1  UNL1        0.0004
     26 C           7.8075   -2.1560   23.3057 C.ar    1  UNL1       -0.0024
     27 C           6.6707   -1.6498   22.4681 C.ar    1  UNL1       -0.0003
     28 C           5.3479   -2.3567   22.4933 C.ar    1  UNL1        0.0000
     29 C           5.1620   -3.5696   23.3559 C.ar    1  UNL1       -0.0003
     30 C           6.2988   -4.0758   24.1935 C.ar    1  UNL1       -0.0024
     31 C           4.2111   -1.8505   21.6558 C.ar    1  UNL1        0.0011
     32 C           3.2559   -0.8405   22.2194 C.ar    1  UNL1        0.0000
     33 C           2.1192   -0.3343   21.3818 C.ar    1  UNL1        0.0000
     34 C           1.9376   -0.8381   19.9807 C.ar    1  UNL1        0.0000
     35 C           2.8927   -1.8481   19.4171 C.ar    1  UNL1        0.0011
     36 C           4.0295   -2.3543   20.2546 C.ar    1  UNL1        0.0140
     37 C           4.9846   -3.3643   19.6911 C.2     1  UNL1        0.0729
     38 O           4.8248   -4.8172   20.0277 O.co2   1  UNL1       -0.5446
     39 O           6.0997   -2.9212   18.7909 O.co2   1  UNL1       -0.5446
@<TRIPOS>UNITY_ATOM_ATTR
38 1
charge -1
@<TRIPOS>BOND
     1    22    23    1
     2    23    21    1
     3    21     1    1
     4     1     2   ar
     5     2     3   ar
     6     3     4   ar
     7     4     5    1
     8     4     6   ar
     9     6     7   ar
    10     7    11    1
    11    11    12   ar
    12    12    13   ar
    13    13    14   ar
    14    14    15   ar
    15    15    16   ar
    16    16    17   ar
    17    17    18   ar
    18    18    19   ar
    19    19    20    1
    20     7     8   ar
    21     8     9   ar
    22     9    10   ar
    23    10    24    1
    24    24    25    1
    25    25    26   ar
    26    26    27   ar
    27    27    28   ar
    28    28    31    1
    29    31    32   ar
    30    32    33   ar
    31    33    34   ar
    32    34    35   ar
    33    35    36   ar
    34    36    37    1
    35    37    38   ar
    36    37    39   ar
    37    28    29   ar
    38    29    30   ar
    39    10     1   ar
    40    30    25   ar
    41     9     3   ar
    42    36    31   ar
    43    19    11   ar
    44    18    13   ar
