@<TRIPOS>MOLECULE
*****
 28 32 0 0 0
SMALL
GASTEIGER

@<TRIPOS>ATOM
      1 N          -8.3816  -17.3718   22.3908 N.ar    1  UNL1       -0.2954
      2 C          -7.5711  -18.4807   21.7879 C.ar    1  UNL1        0.2014
      3 N          -8.4776  -19.6578   21.5812 N.ar    1  UNL1       -0.2136
      4 C          -9.8483  -19.2764   22.0563 C.ar    1  UNL1        0.0999
      5 C         -11.1428  -20.0330   22.0979 C.ar    1  UNL1        0.0207
      6 C         -12.3779  -19.3768   22.6399 C.ar    1  UNL1        0.0016
      7 C         -12.3185  -17.9639   23.1403 C.ar    1  UNL1        0.0016
      8 C         -11.0241  -17.2073   23.0986 C.ar    1  UNL1        0.0188
      9 C          -9.7889  -17.8635   22.5566 C.ar    1  UNL1        0.0801
     10 N          -6.1106  -18.4228   21.4509 N.pl3   1  UNL1       -0.2794
     11 C          -5.6510  -18.7173   20.0538 C.3     1  UNL1        0.0955
     12 C          -4.1905  -18.6593   19.7168 C.3     1  UNL1        0.0442
     13 C          -3.1896  -18.3068   20.7770 C.3     1  UNL1        0.0904
     14 C          -3.6492  -18.0123   22.1741 C.3     1  UNL1        0.0442
     15 C          -5.1097  -18.0703   22.5111 C.3     1  UNL1        0.0955
     16 N          -1.7291  -18.2489   20.4400 N.ar    1  UNL1       -0.3096
     17 C          -0.8771  -17.0145   20.4204 C.ar    1  UNL1        0.0980
     18 C           0.5145  -17.4178   20.0317 C.ar    1  UNL1        0.1193
     19 N           0.5225  -18.9015   19.8112 N.ar    1  UNL1       -0.2223
     20 C          -0.8641  -19.4151   20.0635 C.ar    1  UNL1        0.1785
     21 C          -7.8738  -16.0102   22.7625 C.3     1  UNL1        0.1354
     22 F          -6.4458  -14.7936   28.4617 F       1  UNL1       -0.2042
     23 C          -6.8028  -15.0978   27.0369 C.ar    1  UNL1        0.1401
     24 C          -8.2250  -15.4004   26.6683 C.ar    1  UNL1        0.0294
     25 C          -8.5819  -15.7046   25.2435 C.ar    1  UNL1       -0.0001
     26 C          -7.5168  -15.7061   24.1873 C.ar    1  UNL1        0.0006
     27 C          -6.0946  -15.4034   24.5560 C.ar    1  UNL1       -0.0001
     28 C          -5.7377  -15.0993   25.9808 C.ar    1  UNL1        0.0294
@<TRIPOS>BOND
     1    22    23    1
     2    23    24   ar
     3    24    25   ar
     4    25    26   ar
     5    26    21    1
     6    21     1    1
     7     1     2   ar
     8     2    10    1
     9    10    11    1
    10    11    12    1
    11    12    13    1
    12    13    16    1
    13    16    17   ar
    14    17    18   ar
    15    18    19   ar
    16    19    20   ar
    17    13    14    1
    18    14    15    1
    19     2     3   ar
    20     3     4   ar
    21     4     5   ar
    22     5     6   ar
    23     6     7   ar
    24     7     8   ar
    25     8     9   ar
    26    26    27   ar
    27    27    28   ar
    28    28    23   ar
    29     9     1   ar
    30    15    10    1
    31     9     4   ar
    32    20    16   ar
@<TRIPOS>MOLECULE
*****
 28 32 0 0 0
SMALL
GASTEIGER

@<TRIPOS>ATOM
      1 N          -5.5052  -17.3345   22.6868 N.ar    1  UNL1       -0.2954
      2 C          -6.4745  -18.4664   22.5161 C.ar    1  UNL1        0.2014
      3 N          -5.7195  -19.6462   21.9795 N.ar    1  UNL1       -0.2136
      4 C          -4.2835  -19.2435   21.8186 C.ar    1  UNL1        0.0999
      5 C          -3.0795  -19.9932   21.3305 C.ar    1  UNL1        0.0207
      6 C          -1.7430  -19.3141   21.2796 C.ar    1  UNL1        0.0016
      7 C          -1.6106  -17.8853   21.7167 C.ar    1  UNL1        0.0016
      8 C          -2.8146  -17.1357   22.2048 C.ar    1  UNL1        0.0188
      9 C          -4.1511  -17.8147   22.2557 C.ar    1  UNL1        0.0801
     10 N          -7.9413  -18.4256   22.8273 N.pl3   1  UNL1       -0.2794
     11 C          -8.8482  -17.5193   22.0489 C.3     1  UNL1        0.0955
     12 C         -10.3150  -17.4785   22.3601 C.3     1  UNL1        0.0442
     13 C         -10.8749  -18.3441   23.4497 C.3     1  UNL1        0.0904
     14 C          -9.9679  -19.2505   24.2281 C.3     1  UNL1        0.0442
     15 C          -8.5011  -19.2913   23.9168 C.3     1  UNL1        0.0955
     16 N         -12.3417  -18.3034   23.7609 N.ar    1  UNL1       -0.3096
     17 C         -12.9745  -18.6570   25.0741 C.ar    1  UNL1        0.0980
     18 C         -14.4571  -18.4740   24.9384 C.ar    1  UNL1        0.1193
     19 N         -14.7406  -18.0073   23.5413 N.ar    1  UNL1       -0.2223
     20 C         -13.4332  -17.9018   22.8136 C.ar    1  UNL1        0.1785
     21 C          -5.8324  -15.9630   23.1987 C.3     1  UNL1        0.1354
     22 F          -8.8124  -15.3215   28.3667 F       1  UNL1       -0.2042
     23 C          -8.0673  -15.4819   27.0747 C.ar    1  UNL1        0.1401
     24 C          -8.8058  -15.4202   25.7705 C.ar    1  UNL1        0.0294
     25 C          -8.0608  -15.5805   24.4785 C.ar    1  UNL1       -0.0001
     26 C          -6.5773  -15.8027   24.4906 C.ar    1  UNL1        0.0006
     27 C          -5.8390  -15.8644   25.7948 C.ar    1  UNL1       -0.0001
     28 C          -6.5840  -15.7041   27.0868 C.ar    1  UNL1        0.0294
@<TRIPOS>BOND
     1    22    23    1
     2    23    24   ar
     3    24    25   ar
     4    25    26   ar
     5    26    21    1
     6    21     1    1
     7     1     2   ar
     8     2    10    1
     9    10    11    1
    10    11    12    1
    11    12    13    1
    12    13    16    1
    13    16    17   ar
    14    17    18   ar
    15    18    19   ar
    16    19    20   ar
    17    13    14    1
    18    14    15    1
    19     2     3   ar
    20     3     4   ar
    21     4     5   ar
    22     5     6   ar
    23     6     7   ar
    24     7     8   ar
    25     8     9   ar
    26    26    27   ar
    27    27    28   ar
    28    28    23   ar
    29     9     1   ar
    30    15    10    1
    31     9     4   ar
    32    20    16   ar
@<TRIPOS>MOLECULE
*****
 28 32 0 0 0
SMALL
GASTEIGER

@<TRIPOS>ATOM
      1 N          -1.3667    3.4595   22.1028 N.ar    1  UNL1       -0.2954
      2 C          -1.3561    2.6865   20.8174 C.ar    1  UNL1        0.2014
      3 N          -2.6999    2.8450   20.1701 N.ar    1  UNL1       -0.2136
      4 C          -3.5411    3.7160   21.0554 C.ar    1  UNL1        0.0999
      5 C          -4.9508    4.2123   20.9283 C.ar    1  UNL1        0.0207
      6 C          -5.5366    5.0884   21.9956 C.ar    1  UNL1        0.0016
      7 C          -4.7126    5.4682   23.1901 C.ar    1  UNL1        0.0016
      8 C          -3.3028    4.9719   23.3173 C.ar    1  UNL1        0.0188
      9 C          -2.7171    4.0958   22.2499 C.ar    1  UNL1        0.0801
     10 N          -0.2039    1.8941   20.2745 N.pl3   1  UNL1       -0.2794
     11 C           0.1358    0.5601   20.8703 C.3     1  UNL1        0.0955
     12 C           1.2879   -0.2323   20.3275 C.3     1  UNL1        0.0442
     13 C           2.1004    0.3093   19.1889 C.3     1  UNL1        0.0904
     14 C           1.7607    1.6433   18.5931 C.3     1  UNL1        0.0442
     15 C           0.6086    2.4357   19.1359 C.3     1  UNL1        0.0955
     16 N           3.2525   -0.4831   18.6461 N.ar    1  UNL1       -0.3096
     17 C           4.2221   -1.2950   19.4527 C.ar    1  UNL1        0.0980
     18 C           5.2062   -1.9164   18.5065 C.ar    1  UNL1        0.1193
     19 N           4.8449   -1.4885   17.1150 N.ar    1  UNL1       -0.2223
     20 C           3.6375   -0.6027   17.2012 C.ar    1  UNL1        0.1785
     21 C          -0.2270    3.5759   23.0711 C.3     1  UNL1        0.1354
     22 F          -0.7015    1.2048   28.5622 F       1  UNL1       -0.2042
     23 C          -0.5828    1.7976   27.1894 C.ar    1  UNL1        0.1401
     24 C          -1.0730    3.1912   26.9294 C.ar    1  UNL1        0.0294
     25 C          -0.9544    3.7839   25.5566 C.ar    1  UNL1       -0.0001
     26 C          -0.3456    2.9831   24.4438 C.ar    1  UNL1        0.0006
     27 C           0.1445    1.5895   24.7039 C.ar    1  UNL1       -0.0001
     28 C           0.0259    0.9968   26.0767 C.ar    1  UNL1        0.0294
@<TRIPOS>BOND
     1    22    23    1
     2    23    24   ar
     3    24    25   ar
     4    25    26   ar
     5    26    21    1
     6    21     1    1
     7     1     2   ar
     8     2    10    1
     9    10    11    1
    10    11    12    1
    11    12    13    1
    12    13    16    1
    13    16    17   ar
    14    17    18   ar
    15    18    19   ar
    16    19    20   ar
    17    13    14    1
    18    14    15    1
    19     2     3   ar
    20     3     4   ar
    21     4     5   ar
    22     5     6   ar
    23     6     7   ar
    24     7     8   ar
    25     8     9   ar
    26    26    27   ar
    27    27    28   ar
    28    28    23   ar
    29     9     1   ar
    30    15    10    1
    31     9     4   ar
    32    20    16   ar
@<TRIPOS>MOLECULE
*****
 28 32 0 0 0
SMALL
GASTEIGER

@<TRIPOS>ATOM
      1 N          -5.6064  -19.6612   21.6305 N.ar    1  UNL1       -0.2954
      2 C          -6.2895  -18.5326   22.3445 C.ar    1  UNL1        0.2014
      3 N          -5.2731  -17.4573   22.5908 N.ar    1  UNL1       -0.2136
      4 C          -3.9620  -17.9212   22.0289 C.ar    1  UNL1        0.0999
      5 C          -2.6072  -17.2793   21.9810 C.ar    1  UNL1        0.0207
      6 C          -1.4583  -17.9995   21.3396 C.ar    1  UNL1        0.0016
      7 C          -1.6643  -19.3616   20.7461 C.ar    1  UNL1        0.0016
      8 C          -3.0191  -20.0035   20.7940 C.ar    1  UNL1        0.0188
      9 C          -4.1680  -19.2833   21.4354 C.ar    1  UNL1        0.0801
     10 N          -7.7350  -18.4874   22.7425 N.pl3   1  UNL1       -0.2794
     11 C          -8.4421  -19.7478   23.1443 C.3     1  UNL1        0.0955
     12 C          -9.8876  -19.7026   23.5423 C.3     1  UNL1        0.0442
     13 C         -10.6261  -18.3970   23.5384 C.3     1  UNL1        0.0904
     14 C          -9.9191  -17.1367   23.1366 C.3     1  UNL1        0.0442
     15 C          -8.4735  -17.1819   22.7386 C.3     1  UNL1        0.0955
     16 N         -12.0716  -18.3518   23.9364 N.ar    1  UNL1       -0.3096
     17 C         -12.6364  -18.7835   25.2572 C.ar    1  UNL1        0.0980
     18 C         -14.1201  -18.5655   25.2205 C.ar    1  UNL1        0.1193
     19 N         -14.4722  -17.9991   23.8770 N.ar    1  UNL1       -0.2223
     20 C         -13.2062  -17.8670   23.0833 C.ar    1  UNL1        0.1785
     21 C          -6.2490  -20.9426   21.1890 C.3     1  UNL1        0.1354
     22 F          -9.8451  -20.9970   16.3864 F       1  UNL1       -0.2042
     23 C          -8.9461  -20.9834   17.5871 C.ar    1  UNL1        0.1401
     24 C          -8.0946  -22.1780   17.9000 C.ar    1  UNL1        0.0294
     25 C          -7.1956  -22.1644   19.1006 C.ar    1  UNL1       -0.0001
     26 C          -7.1480  -20.9562   19.9884 C.ar    1  UNL1        0.0006
     27 C          -7.9995  -19.7616   19.6755 C.ar    1  UNL1       -0.0001
     28 C          -8.8985  -19.7752   18.4748 C.ar    1  UNL1        0.0294
@<TRIPOS>BOND
     1    22    23    1
     2    23    24   ar
     3    24    25   ar
     4    25    26   ar
     5    26    21    1
     6    21     1    1
     7     1     2   ar
     8     2    10    1
     9    10    11    1
    10    11    12    1
    11    12    13    1
    12    13    16    1
    13    16    17   ar
    14    17    18   ar
    15    18    19   ar
    16    19    20   ar
    17    13    14    1
    18    14    15    1
    19     2     3   ar
    20     3     4   ar
    21     4     5   ar
    22     5     6   ar
    23     6     7   ar
    24     7     8   ar
    25     8     9   ar
    26    26    27   ar
    27    27    28   ar
    28    28    23   ar
    29     9     1   ar
    30    15    10    1
    31     9     4   ar
    32    20    16   ar
@<TRIPOS>MOLECULE
*****
 28 32 0 0 0
SMALL
GASTEIGER

@<TRIPOS>ATOM
      1 N           5.1463   -1.6517   20.4900 N.ar    1  UNL1       -0.2954
      2 C           6.4031   -1.8704   21.2791 C.ar    1  UNL1        0.2014
      3 N           7.5427   -1.2679   20.5121 N.ar    1  UNL1       -0.2136
      4 C           6.9903   -0.6768   19.2490 C.ar    1  UNL1        0.0999
      5 C           7.6445    0.0467   18.1096 C.ar    1  UNL1        0.0207
      6 C           6.8177    0.5331   16.9564 C.ar    1  UNL1        0.0016
      7 C           5.3366    0.2959   16.9428 C.ar    1  UNL1        0.0016
      8 C           4.6824   -0.4277   18.0822 C.ar    1  UNL1        0.0188
      9 C           5.5092   -0.9140   19.2353 C.ar    1  UNL1        0.0801
     10 N           6.5027   -2.5690   22.6028 N.pl3   1  UNL1       -0.2794
     11 C           5.9811   -1.9048   23.8425 C.3     1  UNL1        0.0955
     12 C           6.0808   -2.6034   25.1661 C.3     1  UNL1        0.0442
     13 C           6.7020   -3.9661   25.2501 C.3     1  UNL1        0.0904
     14 C           7.2235   -4.6303   24.0104 C.3     1  UNL1        0.0442
     15 C           7.1239   -3.9317   22.6868 C.3     1  UNL1        0.0955
     16 N           6.8016   -4.6647   26.5738 N.ar    1  UNL1       -0.3096
     17 C           6.3189   -4.1321   27.8903 C.ar    1  UNL1        0.0980
     18 C           6.6204   -5.1567   28.9435 C.ar    1  UNL1        0.1193
     19 N           7.2894   -6.3226   28.2779 N.ar    1  UNL1       -0.2223
     20 C           7.4014   -6.0185   26.8133 C.ar    1  UNL1        0.1785
     21 C           3.7685   -2.0931   20.8860 C.3     1  UNL1        0.1354
     22 F          -0.5076    1.9866   21.9206 F       1  UNL1       -0.2042
     23 C           0.5614    0.9667   21.6620 C.ar    1  UNL1        0.1401
     24 C           0.5034    0.1159   20.4279 C.ar    1  UNL1        0.0294
     25 C           1.5725   -0.9040   20.1693 C.ar    1  UNL1       -0.0001
     26 C           2.6995   -1.0732   21.1447 C.ar    1  UNL1        0.0006
     27 C           2.7574   -0.2224   22.3787 C.ar    1  UNL1       -0.0001
     28 C           1.6884    0.7975   22.6373 C.ar    1  UNL1        0.0294
@<TRIPOS>BOND
     1    22    23    1
     2    23    24   ar
     3    24    25   ar
     4    25    26   ar
     5    26    21    1
     6    21     1    1
     7     1     2   ar
     8     2    10    1
     9    10    11    1
    10    11    12    1
    11    12    13    1
    12    13    16    1
    13    16    17   ar
    14    17    18   ar
    15    18    19   ar
    16    19    20   ar
    17    13    14    1
    18    14    15    1
    19     2     3   ar
    20     3     4   ar
    21     4     5   ar
    22     5     6   ar
    23     6     7   ar
    24     7     8   ar
    25     8     9   ar
    26    26    27   ar
    27    27    28   ar
    28    28    23   ar
    29     9     1   ar
    30    15    10    1
    31     9     4   ar
    32    20    16   ar
@<TRIPOS>MOLECULE
*****
 28 32 0 0 0
SMALL
GASTEIGER

@<TRIPOS>ATOM
      1 N           3.6573    1.8303   33.7482 N.ar    1  UNL1       -0.2954
      2 C           4.2834    0.6651   34.4555 C.ar    1  UNL1        0.2014
      3 N           3.9740    0.7899   35.9179 N.ar    1  UNL1       -0.2136
      4 C           3.1566    2.0322   36.1144 C.ar    1  UNL1        0.0999
      5 C           2.5652    2.6609   37.3412 C.ar    1  UNL1        0.0207
      6 C           1.7781    3.9327   37.2269 C.ar    1  UNL1        0.0016
      7 C           1.5824    4.5757   35.8859 C.ar    1  UNL1        0.0016
      8 C           2.1737    3.9469   34.6592 C.ar    1  UNL1        0.0188
      9 C           2.9608    2.6752   34.7734 C.ar    1  UNL1        0.0801
     10 N           5.0793   -0.4322   33.8132 N.pl3   1  UNL1       -0.2794
     11 C           6.5267   -0.2153   33.4846 C.3     1  UNL1        0.0955
     12 C           7.3225   -1.3126   32.8423 C.3     1  UNL1        0.0442
     13 C           6.6710   -2.6267   32.5285 C.3     1  UNL1        0.0904
     14 C           5.2236   -2.8436   32.8571 C.3     1  UNL1        0.0442
     15 C           4.4278   -1.7463   33.4994 C.3     1  UNL1        0.0955
     16 N           7.4669   -3.7240   31.8862 N.ar    1  UNL1       -0.3096
     17 C           8.9585   -3.7568   31.7314 C.ar    1  UNL1        0.0980
     18 C           9.3243   -5.0343   31.0354 C.ar    1  UNL1        0.1193
     19 N           8.0588   -5.7910   30.7601 N.ar    1  UNL1       -0.2223
     20 C           6.9108   -4.9812   31.2859 C.ar    1  UNL1        0.1785
     21 C           3.7170    2.1028   32.2743 C.3     1  UNL1        0.1354
     22 F          -0.2030   -0.5327   28.5746 F       1  UNL1       -0.2042
     23 C           0.7770    0.1262   29.4996 C.ar    1  UNL1        0.1401
     24 C           2.0872   -0.5389   29.8013 C.ar    1  UNL1        0.0294
     25 C           3.0672    0.1200   30.7263 C.ar    1  UNL1       -0.0001
     26 C           2.7370    1.4439   31.3495 C.ar    1  UNL1        0.0006
     27 C           1.4268    2.1089   31.0476 C.ar    1  UNL1       -0.0001
     28 C           0.4468    1.4500   30.1227 C.ar    1  UNL1        0.0294
@<TRIPOS>BOND
     1    22    23    1
     2    23    24   ar
     3    24    25   ar
     4    25    26   ar
     5    26    21    1
     6    21     1    1
     7     1     2   ar
     8     2    10    1
     9    10    11    1
    10    11    12    1
    11    12    13    1
    12    13    16    1
    13    16    17   ar
    14    17    18   ar
    15    18    19   ar
    16    19    20   ar
    17    13    14    1
    18    14    15    1
    19     2     3   ar
    20     3     4   ar
    21     4     5   ar
    22     5     6   ar
    23     6     7   ar
    24     7     8   ar
    25     8     9   ar
    26    26    27   ar
    27    27    28   ar
    28    28    23   ar
    29     9     1   ar
    30    15    10    1
    31     9     4   ar
    32    20    16   ar
@<TRIPOS>MOLECULE
*****
 28 32 0 0 0
SMALL
GASTEIGER

@<TRIPOS>ATOM
      1 N           6.1710   -2.2119   30.2195 N.ar    1  UNL1       -0.2954
      2 C           6.2964   -2.6886   31.6361 C.ar    1  UNL1        0.2014
      3 N           6.7076   -4.1307   31.6052 N.ar    1  UNL1       -0.2136
      4 C           6.8364   -4.5454   30.1694 C.ar    1  UNL1        0.0999
      5 C           7.2127   -5.8496   29.5312 C.ar    1  UNL1        0.0207
      6 C           7.2574   -5.9679   28.0366 C.ar    1  UNL1        0.0016
      7 C           6.9257   -4.7819   27.1801 C.ar    1  UNL1        0.0016
      8 C           6.5493   -3.4777   27.8183 C.ar    1  UNL1        0.0188
      9 C           6.5047   -3.3594   29.3129 C.ar    1  UNL1        0.0801
     10 N           6.0533   -1.8673   32.8676 N.pl3   1  UNL1       -0.2794
     11 C           7.1328   -0.9696   33.3955 C.3     1  UNL1        0.0955
     12 C           6.8897   -0.1483   34.6270 C.3     1  UNL1        0.0442
     13 C           5.5671   -0.2247   35.3304 C.3     1  UNL1        0.0904
     14 C           4.4877   -1.1224   34.8024 C.3     1  UNL1        0.0442
     15 C           4.7307   -1.9437   33.5710 C.3     1  UNL1        0.0955
     16 N           5.3241    0.5966   36.5618 N.ar    1  UNL1       -0.3096
     17 C           4.0291    0.6992   37.3118 C.ar    1  UNL1        0.0980
     18 C           4.2379    1.6255   38.4730 C.ar    1  UNL1        0.1193
     19 N           5.6620    2.0954   38.4407 N.ar    1  UNL1       -0.2223
     20 C           6.3333    1.4595   37.2595 C.ar    1  UNL1        0.1785
     21 C           5.7804   -0.8302   29.7854 C.3     1  UNL1        0.1354
     22 F          -0.0024    0.7677   29.7071 F       1  UNL1       -0.2042
     23 C           1.4433    0.3683   29.7267 C.ar    1  UNL1        0.1401
     24 C           2.0197   -0.4179   28.5866 C.ar    1  UNL1        0.0294
     25 C           3.4654   -0.8173   28.6062 C.ar    1  UNL1       -0.0001
     26 C           4.3348   -0.4307   29.7659 C.ar    1  UNL1        0.0006
     27 C           3.7583    0.3554   30.9059 C.ar    1  UNL1       -0.0001
     28 C           2.3126    0.7549   30.8863 C.ar    1  UNL1        0.0294
@<TRIPOS>BOND
     1    22    23    1
     2    23    24   ar
     3    24    25   ar
     4    25    26   ar
     5    26    21    1
     6    21     1    1
     7     1     2   ar
     8     2    10    1
     9    10    11    1
    10    11    12    1
    11    12    13    1
    12    13    16    1
    13    16    17   ar
    14    17    18   ar
    15    18    19   ar
    16    19    20   ar
    17    13    14    1
    18    14    15    1
    19     2     3   ar
    20     3     4   ar
    21     4     5   ar
    22     5     6   ar
    23     6     7   ar
    24     7     8   ar
    25     8     9   ar
    26    26    27   ar
    27    27    28   ar
    28    28    23   ar
    29     9     1   ar
    30    15    10    1
    31     9     4   ar
    32    20    16   ar
@<TRIPOS>MOLECULE
*****
 28 32 0 0 0
SMALL
GASTEIGER

@<TRIPOS>ATOM
      1 N           4.4987    1.7751   35.0629 N.ar    1  UNL1       -0.2954
      2 C           4.8581    0.3499   35.3623 C.ar    1  UNL1        0.2014
      3 N           4.7316    0.1411   36.8422 N.ar    1  UNL1       -0.2136
      4 C           4.2940    1.4372   37.4576 C.ar    1  UNL1        0.0999
      5 C           4.0080    1.8283   38.8771 C.ar    1  UNL1        0.0207
      6 C           3.5781    3.2293   39.1970 C.ar    1  UNL1        0.0016
      7 C           3.4341    4.2392   38.0973 C.ar    1  UNL1        0.0016
      8 C           3.7201    3.8481   36.6777 C.ar    1  UNL1        0.0188
      9 C           4.1501    2.4471   36.3578 C.ar    1  UNL1        0.0801
     10 N           5.2715   -0.6848   34.3580 N.pl3   1  UNL1       -0.2794
     11 C           4.3080   -1.7586   33.9476 C.3     1  UNL1        0.0955
     12 C           4.7214   -2.7933   32.9433 C.3     1  UNL1        0.0442
     13 C           6.0982   -2.7541   32.3494 C.3     1  UNL1        0.0904
     14 C           7.0617   -1.6802   32.7598 C.3     1  UNL1        0.0442
     15 C           6.6483   -0.6456   33.7641 C.3     1  UNL1        0.0955
     16 N           6.5116   -3.7888   31.3452 N.ar    1  UNL1       -0.3096
     17 C           6.5947   -3.5927   29.8604 C.ar    1  UNL1        0.0980
     18 C           7.0489   -4.8839   29.2469 C.ar    1  UNL1        0.1193
     19 N           7.2465   -5.8781   30.3525 N.ar    1  UNL1       -0.2223
     20 C           6.9144   -5.2013   31.6493 C.ar    1  UNL1        0.1785
     21 C           4.4895    2.4159   33.7067 C.3     1  UNL1        0.1354
     22 F           0.1693    1.0516   29.7730 F       1  UNL1       -0.2042
     23 C           1.2494    1.3926   30.7564 C.ar    1  UNL1        0.1401
     24 C           0.9486    2.2917   31.9188 C.ar    1  UNL1        0.0294
     25 C           2.0287    2.6328   32.9022 C.ar    1  UNL1       -0.0001
     26 C           3.4096    2.0748   32.7233 C.ar    1  UNL1        0.0006
     27 C           3.7102    1.1757   31.5608 C.ar    1  UNL1       -0.0001
     28 C           2.6302    0.8347   30.5774 C.ar    1  UNL1        0.0294
@<TRIPOS>BOND
     1    22    23    1
     2    23    24   ar
     3    24    25   ar
     4    25    26   ar
     5    26    21    1
     6    21     1    1
     7     1     2   ar
     8     2    10    1
     9    10    11    1
    10    11    12    1
    11    12    13    1
    12    13    16    1
    13    16    17   ar
    14    17    18   ar
    15    18    19   ar
    16    19    20   ar
    17    13    14    1
    18    14    15    1
    19     2     3   ar
    20     3     4   ar
    21     4     5   ar
    22     5     6   ar
    23     6     7   ar
    24     7     8   ar
    25     8     9   ar
    26    26    27   ar
    27    27    28   ar
    28    28    23   ar
    29     9     1   ar
    30    15    10    1
    31     9     4   ar
    32    20    16   ar
@<TRIPOS>MOLECULE
*****
 28 32 0 0 0
SMALL
GASTEIGER

@<TRIPOS>ATOM
      1 N           3.2244    1.0101   18.4541 N.ar    1  UNL1       -0.2954
      2 C           2.5962    2.3605   18.6321 C.ar    1  UNL1        0.2014
      3 N           3.6041    3.3969   18.2321 N.ar    1  UNL1       -0.2136
      4 C           4.8552    2.6870   17.8069 C.ar    1  UNL1        0.0999
      5 C           6.1778    3.1933   17.3125 C.ar    1  UNL1        0.0207
      6 C           7.2657    2.2244   16.9553 C.ar    1  UNL1        0.0016
      7 C           7.0310    0.7492   17.0925 C.ar    1  UNL1        0.0016
      8 C           5.7084    0.2429   17.5868 C.ar    1  UNL1        0.0188
      9 C           4.6205    1.2119   17.9441 C.ar    1  UNL1        0.0801
     10 N           1.2045    2.6276   19.1238 N.pl3   1  UNL1       -0.2794
     11 C           0.2144    3.3188   18.2339 C.3     1  UNL1        0.0955
     12 C          -1.1773    3.5860   18.7256 C.3     1  UNL1        0.0442
     13 C          -1.5790    3.1619   20.1071 C.3     1  UNL1        0.0904
     14 C          -0.5889    2.4707   20.9970 C.3     1  UNL1        0.0442
     15 C           0.8028    2.2036   20.5054 C.3     1  UNL1        0.0955
     16 N          -2.9707    3.4290   20.5988 N.ar    1  UNL1       -0.3096
     17 C          -3.3846    3.5860   22.0320 C.ar    1  UNL1        0.0980
     18 C          -4.8626    3.8401   22.0626 C.ar    1  UNL1        0.1193
     19 N          -5.3622    3.8401   20.6483 N.ar    1  UNL1       -0.2223
     20 C          -4.1930    3.5861   19.7436 C.ar    1  UNL1        0.1785
     21 C           2.5711   -0.3103   18.7364 C.3     1  UNL1        0.1354
     22 F           4.8017   -3.9140   22.9836 F       1  UNL1       -0.2042
     23 C           4.2440   -3.0131   21.9218 C.ar    1  UNL1        0.1401
     24 C           4.2862   -3.4343   20.4827 C.ar    1  UNL1        0.0294
     25 C           3.7286   -2.5333   19.4210 C.ar    1  UNL1       -0.0001
     26 C           3.1287   -1.2112   19.7982 C.ar    1  UNL1        0.0006
     27 C           3.0866   -0.7901   21.2372 C.ar    1  UNL1       -0.0001
     28 C           3.6442   -1.6910   22.2990 C.ar    1  UNL1        0.0294
@<TRIPOS>BOND
     1    22    23    1
     2    23    24   ar
     3    24    25   ar
     4    25    26   ar
     5    26    21    1
     6    21     1    1
     7     1     2   ar
     8     2    10    1
     9    10    11    1
    10    11    12    1
    11    12    13    1
    12    13    16    1
    13    16    17   ar
    14    17    18   ar
    15    18    19   ar
    16    19    20   ar
    17    13    14    1
    18    14    15    1
    19     2     3   ar
    20     3     4   ar
    21     4     5   ar
    22     5     6   ar
    23     6     7   ar
    24     7     8   ar
    25     8     9   ar
    26    26    27   ar
    27    27    28   ar
    28    28    23   ar
    29     9     1   ar
    30    15    10    1
    31     9     4   ar
    32    20    16   ar
