@<TRIPOS>MOLECULE
*****
 25 27 0 0 0
SMALL
GASTEIGER

@<TRIPOS>ATOM
      1 C          -7.4397  -16.5758   23.4324 C.ar    1  UNL1        0.2036
      2 N          -6.3177  -17.2427   22.6933 N.ar    1  UNL1       -0.2147
      3 C          -4.9181  -17.1668   23.2275 C.ar    1  UNL1        0.0911
      4 C          -4.6405  -16.4241   24.5008 C.ar    1  UNL1        0.0801
      5 C          -5.7626  -15.7572   25.2399 C.ar    1  UNL1        0.2645
      6 O          -5.4851  -15.0145   26.5132 O.2     1  UNL1       -0.2668
      7 N          -7.1622  -15.8331   24.7057 N.ar    1  UNL1       -0.2667
      8 C          -8.2843  -15.1662   25.4448 C.3     1  UNL1        0.1363
      9 C          -3.7961  -17.8337   22.4883 C.ar    1  UNL1        0.0485
     10 C          -3.8020  -19.3217   22.2997 C.ar    1  UNL1        0.0244
     11 C          -2.6800  -19.9886   21.5606 C.ar    1  UNL1        0.0991
     12 N          -1.5519  -19.1674   21.0101 N.ar    1  UNL1       -0.2400
     13 C          -1.5459  -17.6793   21.1987 C.ar    1  UNL1        0.1285
     14 C          -2.6680  -17.0124   21.9378 C.ar    1  UNL1        0.1606
     15 F          -2.6620  -15.5244   22.1264 F       1  UNL1       -0.2025
     16 C         -11.2797  -17.5208   23.0974 C.3     1  UNL1        0.1350
     17 C          -9.8801  -17.4449   23.6316 C.3     1  UNL1        0.1230
     18 N          -8.8394  -16.6517   22.8982 N.pl3   1  UNL1       -0.2744
     19 C          -9.1982  -15.9345   21.6306 C.3     1  UNL1        0.1256
     20 C         -10.5978  -16.0104   21.0964 C.3     1  UNL1        0.1635
     21 O         -11.6385  -16.8036   21.8298 O.3     1  UNL1       -0.3527
     22 C         -12.3204  -18.3139   23.8308 C.3     1  UNL1        0.0313
     23 C         -13.7692  -17.9460   23.7067 C.3     1  UNL1        0.0026
     24 C         -14.4443  -18.4643   26.1614 C.3     1  UNL1        0.0000
     25 C         -14.7648  -18.4751   24.6961 C.3     1  UNL1        0.0001
@<TRIPOS>BOND
     1    24    25    1
     2    25    23    1
     3    23    22    1
     4    22    16    1
     5    16    17    1
     6    17    18    1
     7    18     1    1
     8     1     2   ar
     9     2     3   ar
    10     3     9    1
    11     9    10   ar
    12    10    11   ar
    13    11    12   ar
    14    12    13   ar
    15    13    14   ar
    16    14    15    1
    17     3     4   ar
    18     4     5   ar
    19     5     6    2
    20     5     7   ar
    21     7     8    1
    22    18    19    1
    23    19    20    1
    24    20    21    1
    25    21    16    1
    26     7     1   ar
    27    14     9   ar
@<TRIPOS>MOLECULE
*****
 25 27 0 0 0
SMALL
GASTEIGER

@<TRIPOS>ATOM
      1 C          -7.2549  -16.9578   23.6026 C.ar    1  UNL1        0.2036
      2 N          -6.1480  -17.6171   22.8344 N.ar    1  UNL1       -0.2147
      3 C          -4.7228  -17.2213   23.0839 C.ar    1  UNL1        0.0911
      4 C          -4.4045  -16.1662   24.1015 C.ar    1  UNL1        0.0801
      5 C          -5.5115  -15.5069   24.8696 C.ar    1  UNL1        0.2645
      6 O          -5.1932  -14.4518   25.8872 O.2     1  UNL1       -0.2668
      7 N          -6.9367  -15.9027   24.6201 N.ar    1  UNL1       -0.2667
      8 C          -8.0436  -15.2434   25.3883 C.3     1  UNL1        0.1363
      9 C          -3.6159  -17.8806   22.3157 C.ar    1  UNL1        0.0485
     10 C          -3.6238  -19.3672   22.1157 C.ar    1  UNL1        0.0244
     11 C          -2.5169  -20.0265   21.3476 C.ar    1  UNL1        0.0991
     12 N          -1.4021  -19.1992   20.7794 N.ar    1  UNL1       -0.2400
     13 C          -1.3941  -17.7126   20.9794 C.ar    1  UNL1        0.1285
     14 C          -2.5011  -17.0533   21.7476 C.ar    1  UNL1        0.1606
     15 F          -2.4932  -15.5667   21.9476 F       1  UNL1       -0.2025
     16 C         -10.7110  -17.5545   21.7453 C.3     1  UNL1        0.1350
     17 C          -9.2859  -17.1587   21.9948 C.3     1  UNL1        0.1230
     18 N          -8.6801  -17.3536   23.3531 N.pl3   1  UNL1       -0.2744
     19 C          -9.4995  -17.9444   24.4620 C.3     1  UNL1        0.1256
     20 C         -10.9246  -18.3402   24.2125 C.3     1  UNL1        0.1635
     21 O         -11.5304  -18.1452   22.8541 O.3     1  UNL1       -0.3527
     22 C         -11.3167  -17.3596   20.3869 C.3     1  UNL1        0.0313
     23 C         -11.1898  -18.4339   19.3480 C.3     1  UNL1        0.0026
     24 C          -8.9035  -19.6571   19.1851 C.3     1  UNL1        0.0000
     25 C         -10.3400  -19.6405   19.6166 C.3     1  UNL1        0.0001
@<TRIPOS>BOND
     1    24    25    1
     2    25    23    1
     3    23    22    1
     4    22    16    1
     5    16    17    1
     6    17    18    1
     7    18     1    1
     8     1     2   ar
     9     2     3   ar
    10     3     9    1
    11     9    10   ar
    12    10    11   ar
    13    11    12   ar
    14    12    13   ar
    15    13    14   ar
    16    14    15    1
    17     3     4   ar
    18     4     5   ar
    19     5     6    2
    20     5     7   ar
    21     7     8    1
    22    18    19    1
    23    19    20    1
    24    20    21    1
    25    21    16    1
    26     7     1   ar
    27    14     9   ar
@<TRIPOS>MOLECULE
*****
 25 27 0 0 0
SMALL
GASTEIGER

@<TRIPOS>ATOM
      1 C          -7.8773  -18.8445   21.9434 C.ar    1  UNL1        0.2036
      2 N          -6.3850  -18.7371   21.8352 N.ar    1  UNL1       -0.2147
      3 C          -5.6983  -19.0971   20.5512 C.ar    1  UNL1        0.0911
      4 C          -6.5038  -19.5647   19.3753 C.ar    1  UNL1        0.0801
      5 C          -7.9961  -19.6721   19.4835 C.ar    1  UNL1        0.2645
      6 O          -8.8016  -20.1396   18.3077 O.2     1  UNL1       -0.2668
      7 N          -8.6828  -19.3120   20.7676 N.ar    1  UNL1       -0.2667
      8 C         -10.1750  -19.4194   20.8758 C.3     1  UNL1        0.1363
      9 C          -4.2061  -18.9897   20.4430 C.ar    1  UNL1        0.0485
     10 C          -3.5792  -18.5104   19.1674 C.ar    1  UNL1        0.0244
     11 C          -2.0869  -18.4030   19.0592 C.ar    1  UNL1        0.0991
     12 N          -1.2216  -18.7749   20.2266 N.ar    1  UNL1       -0.2400
     13 C          -1.8485  -19.2542   21.5023 C.ar    1  UNL1        0.1285
     14 C          -3.3408  -19.3617   21.6105 C.ar    1  UNL1        0.1606
     15 F          -3.9677  -19.8410   22.8861 F       1  UNL1       -0.2025
     16 C          -9.0255  -16.7764   25.1301 C.3     1  UNL1        0.1350
     17 C          -8.3389  -17.1365   23.8460 C.3     1  UNL1        0.1230
     18 N          -8.5640  -18.4844   23.2275 N.pl3   1  UNL1       -0.2744
     19 C          -9.4758  -19.4721   23.8930 C.3     1  UNL1        0.1256
     20 C         -10.1625  -19.1120   25.1770 C.3     1  UNL1        0.1635
     21 O          -9.9373  -17.7642   25.7956 O.3     1  UNL1       -0.3527
     22 C          -8.8004  -15.4285   25.7486 C.3     1  UNL1        0.0313
     23 C          -8.2052  -15.3233   27.1214 C.3     1  UNL1        0.0026
     24 C          -5.7824  -15.2699   26.1846 C.3     1  UNL1        0.0000
     25 C          -6.7318  -15.5252   27.3175 C.3     1  UNL1        0.0001
@<TRIPOS>BOND
     1    24    25    1
     2    25    23    1
     3    23    22    1
     4    22    16    1
     5    16    17    1
     6    17    18    1
     7    18     1    1
     8     1     2   ar
     9     2     3   ar
    10     3     9    1
    11     9    10   ar
    12    10    11   ar
    13    11    12   ar
    14    12    13   ar
    15    13    14   ar
    16    14    15    1
    17     3     4   ar
    18     4     5   ar
    19     5     6    2
    20     5     7   ar
    21     7     8    1
    22    18    19    1
    23    19    20    1
    24    20    21    1
    25    21    16    1
    26     7     1   ar
    27    14     9   ar
@<TRIPOS>MOLECULE
*****
 25 27 0 0 0
SMALL
GASTEIGER

@<TRIPOS>ATOM
      1 C          -7.2577  -17.1137   23.5274 C.ar    1  UNL1        0.2036
      2 N          -6.1019  -17.6751   22.7535 N.ar    1  UNL1       -0.2147
      3 C          -4.7123  -17.1720   23.0103 C.ar    1  UNL1        0.0911
      4 C          -4.4785  -16.1075   24.0409 C.ar    1  UNL1        0.0801
      5 C          -5.6343  -15.5461   24.8148 C.ar    1  UNL1        0.2645
      6 O          -5.4006  -14.4816   25.8454 O.2     1  UNL1       -0.2668
      7 N          -7.0240  -16.0492   24.5580 N.ar    1  UNL1       -0.2667
      8 C          -8.1798  -15.4879   25.3319 C.3     1  UNL1        0.1363
      9 C          -3.5565  -17.7334   22.2364 C.ar    1  UNL1        0.0485
     10 C          -2.5142  -16.8140   21.6724 C.ar    1  UNL1        0.0244
     11 C          -1.3583  -17.3754   20.8985 C.ar    1  UNL1        0.0991
     12 N          -1.2448  -18.8562   20.6886 N.ar    1  UNL1       -0.2400
     13 C          -2.2872  -19.7758   21.2526 C.ar    1  UNL1        0.1285
     14 C          -3.4430  -19.2144   22.0265 C.ar    1  UNL1        0.1606
     15 F          -4.4853  -20.1339   22.5905 F       1  UNL1       -0.2025
     16 C         -11.1183  -17.1625   22.6090 C.3     1  UNL1        0.1350
     17 C          -9.7288  -16.6595   22.8658 C.3     1  UNL1        0.1230
     18 N          -8.6473  -17.6169   23.2706 N.pl3   1  UNL1       -0.2744
     19 C          -8.9555  -19.0774   23.4187 C.3     1  UNL1        0.1256
     20 C         -10.3451  -19.5804   23.1619 C.3     1  UNL1        0.1635
     21 O         -11.4265  -18.6230   22.7571 O.3     1  UNL1       -0.3527
     22 C         -12.1997  -16.2051   22.2042 C.3     1  UNL1        0.0313
     23 C         -12.7203  -16.2129   20.7974 C.3     1  UNL1        0.0026
     24 C         -10.8815  -15.2829   19.2150 C.3     1  UNL1        0.0000
     25 C         -11.7751  -16.4069   19.6490 C.3     1  UNL1        0.0001
@<TRIPOS>BOND
     1    24    25    1
     2    25    23    1
     3    23    22    1
     4    22    16    1
     5    16    17    1
     6    17    18    1
     7    18     1    1
     8     1     2   ar
     9     2     3   ar
    10     3     9    1
    11     9    10   ar
    12    10    11   ar
    13    11    12   ar
    14    12    13   ar
    15    13    14   ar
    16    14    15    1
    17     3     4   ar
    18     4     5   ar
    19     5     6    2
    20     5     7   ar
    21     7     8    1
    22    18    19    1
    23    19    20    1
    24    20    21    1
    25    21    16    1
    26     7     1   ar
    27    14     9   ar
@<TRIPOS>MOLECULE
*****
 25 27 0 0 0
SMALL
GASTEIGER

@<TRIPOS>ATOM
      1 C          -7.2324  -18.4426   21.6769 C.ar    1  UNL1        0.2036
      2 N          -6.8816  -17.7333   22.9512 N.ar    1  UNL1       -0.2147
      3 C          -7.9115  -16.8988   23.6532 C.ar    1  UNL1        0.0911
      4 C          -9.2924  -16.7735   23.0808 C.ar    1  UNL1        0.0801
      5 C          -9.6432  -17.4827   21.8065 C.ar    1  UNL1        0.2645
      6 O         -11.0240  -17.3575   21.2341 O.2     1  UNL1       -0.2668
      7 N          -8.6132  -18.3173   21.1045 N.ar    1  UNL1       -0.2667
      8 C          -8.9641  -19.0265   19.8302 C.3     1  UNL1        0.1363
      9 C          -7.5607  -16.1896   24.9275 C.ar    1  UNL1        0.0485
     10 C          -8.5754  -16.0755   26.0262 C.ar    1  UNL1        0.0244
     11 C          -8.2245  -15.3663   27.3005 C.ar    1  UNL1        0.0991
     12 N          -6.8589  -14.7711   27.4761 N.ar    1  UNL1       -0.2400
     13 C          -5.8441  -14.8851   26.3773 C.ar    1  UNL1        0.1285
     14 C          -6.1950  -15.5944   25.1030 C.ar    1  UNL1        0.1606
     15 F          -5.1802  -15.7084   24.0043 F       1  UNL1       -0.2025
     16 C          -3.8851  -19.4893   19.8196 C.3     1  UNL1        0.1350
     17 C          -4.9151  -18.6549   20.5215 C.3     1  UNL1        0.1230
     18 N          -6.2024  -19.2771   20.9750 N.pl3   1  UNL1       -0.2744
     19 C          -6.4597  -20.7338   20.7266 C.3     1  UNL1        0.1256
     20 C          -5.4297  -21.5683   20.0247 C.3     1  UNL1        0.1635
     21 O          -4.1424  -20.9461   19.5712 O.3     1  UNL1       -0.3527
     22 C          -2.5978  -18.8671   19.3661 C.3     1  UNL1        0.0313
     23 C          -2.3955  -17.3862   19.4917 C.3     1  UNL1        0.0026
     24 C          -2.1713  -16.4369   21.8997 C.3     1  UNL1        0.0000
     25 C          -1.5436  -16.8366   20.5973 C.3     1  UNL1        0.0001
@<TRIPOS>BOND
     1    24    25    1
     2    25    23    1
     3    23    22    1
     4    22    16    1
     5    16    17    1
     6    17    18    1
     7    18     1    1
     8     1     2   ar
     9     2     3   ar
    10     3     9    1
    11     9    10   ar
    12    10    11   ar
    13    11    12   ar
    14    12    13   ar
    15    13    14   ar
    16    14    15    1
    17     3     4   ar
    18     4     5   ar
    19     5     6    2
    20     5     7   ar
    21     7     8    1
    22    18    19    1
    23    19    20    1
    24    20    21    1
    25    21    16    1
    26     7     1   ar
    27    14     9   ar
@<TRIPOS>MOLECULE
*****
 25 27 0 0 0
SMALL
GASTEIGER

@<TRIPOS>ATOM
      1 C          -9.1896  -17.9742   21.7722 C.ar    1  UNL1        0.2036
      2 N          -8.3522  -17.5136   22.9283 N.ar    1  UNL1       -0.2147
      3 C          -8.9039  -16.5168   23.9039 C.ar    1  UNL1        0.0911
      4 C         -10.2931  -15.9804   23.7234 C.ar    1  UNL1        0.0801
      5 C         -11.1305  -16.4410   22.5672 C.ar    1  UNL1        0.2645
      6 O         -12.5196  -15.9047   22.3867 O.2     1  UNL1       -0.2668
      7 N         -10.5787  -17.4379   21.5916 N.ar    1  UNL1       -0.2667
      8 C         -11.4161  -17.8985   20.4355 C.3     1  UNL1        0.1363
      9 C          -8.0665  -16.0562   25.0600 C.ar    1  UNL1        0.0485
     10 C          -8.6117  -16.1255   26.4556 C.ar    1  UNL1        0.0244
     11 C          -7.7743  -15.6649   27.6118 C.ar    1  UNL1        0.0991
     12 N          -6.3917  -15.1350   27.3723 N.ar    1  UNL1       -0.2400
     13 C          -5.8464  -15.0657   25.9766 C.ar    1  UNL1        0.1285
     14 C          -6.6838  -15.5263   24.8204 C.ar    1  UNL1        0.1606
     15 F          -6.1385  -15.4569   23.4248 F       1  UNL1       -0.2025
     16 C          -6.7087  -20.5283   20.0194 C.3     1  UNL1        0.1350
     17 C          -7.2606  -19.5314   20.9949 C.3     1  UNL1        0.1230
     18 N          -8.6378  -18.9711   20.7966 N.pl3   1  UNL1       -0.2744
     19 C          -9.4631  -19.4076   19.6226 C.3     1  UNL1        0.1256
     20 C          -8.9113  -20.4045   18.6471 C.3     1  UNL1        0.1635
     21 O          -7.5341  -20.9648   18.8455 O.3     1  UNL1       -0.3527
     22 C          -5.3315  -21.0886   20.2178 C.3     1  UNL1        0.0313
     23 C          -4.1283  -20.2343   19.9488 C.3     1  UNL1        0.0026
     24 C          -3.8855  -19.3536   22.3810 C.3     1  UNL1        0.0000
     25 C          -3.2612  -19.7808   21.0857 C.3     1  UNL1        0.0001
@<TRIPOS>BOND
     1    24    25    1
     2    25    23    1
     3    23    22    1
     4    22    16    1
     5    16    17    1
     6    17    18    1
     7    18     1    1
     8     1     2   ar
     9     2     3   ar
    10     3     9    1
    11     9    10   ar
    12    10    11   ar
    13    11    12   ar
    14    12    13   ar
    15    13    14   ar
    16    14    15    1
    17     3     4   ar
    18     4     5   ar
    19     5     6    2
    20     5     7   ar
    21     7     8    1
    22    18    19    1
    23    19    20    1
    24    20    21    1
    25    21    16    1
    26     7     1   ar
    27    14     9   ar
@<TRIPOS>MOLECULE
*****
 25 27 0 0 0
SMALL
GASTEIGER

@<TRIPOS>ATOM
      1 C         -12.9714   -5.1995   18.1833 C.ar    1  UNL1        0.2036
      2 N         -13.2735   -3.7433   17.9881 N.ar    1  UNL1       -0.2147
      3 C         -12.2242   -2.7133   18.2844 C.ar    1  UNL1        0.0911
      4 C         -10.8725   -3.1395   18.7759 C.ar    1  UNL1        0.0801
      5 C         -10.5703   -4.5957   18.9710 C.ar    1  UNL1        0.2645
      6 O          -9.2188   -5.0220   19.4625 O.2     1  UNL1       -0.2668
      7 N         -11.6198   -5.6258   18.6747 N.ar    1  UNL1       -0.2667
      8 C         -11.3176   -7.0820   18.8699 C.3     1  UNL1        0.1363
      9 C         -12.5263   -1.2571   18.0893 C.ar    1  UNL1        0.0485
     10 C         -13.7821   -0.6685   18.6608 C.ar    1  UNL1        0.0244
     11 C         -14.0842    0.7877   18.4656 C.ar    1  UNL1        0.0991
     12 N         -13.1307    1.6554   17.6989 N.ar    1  UNL1       -0.2400
     13 C         -11.8749    1.0668   17.1274 C.ar    1  UNL1        0.1285
     14 C         -11.5727   -0.3894   17.3225 C.ar    1  UNL1        0.1606
     15 F         -10.3169   -0.9779   16.7510 F       1  UNL1       -0.2025
     16 C         -15.9208   -7.8042   18.6998 C.3     1  UNL1        0.1350
     17 C         -14.8713   -6.7742   18.9960 C.3     1  UNL1        0.1230
     18 N         -14.0208   -6.2296   17.8870 N.pl3   1  UNL1       -0.2744
     19 C         -14.2198   -6.7148   16.4817 C.3     1  UNL1        0.1256
     20 C         -15.2692   -7.7448   16.1855 C.3     1  UNL1        0.1635
     21 O         -16.1197   -8.2895   17.2945 O.3     1  UNL1       -0.3527
     22 C         -16.7713   -8.3489   19.8088 C.3     1  UNL1        0.0313
     23 C         -18.1167   -7.7470   20.0870 C.3     1  UNL1        0.0026
     24 C         -20.3777   -8.4306   21.1692 C.3     1  UNL1        0.0000
     25 C         -19.3386   -8.6169   20.1034 C.3     1  UNL1        0.0001
@<TRIPOS>BOND
     1    24    25    1
     2    25    23    1
     3    23    22    1
     4    22    16    1
     5    16    17    1
     6    17    18    1
     7    18     1    1
     8     1     2   ar
     9     2     3   ar
    10     3     9    1
    11     9    10   ar
    12    10    11   ar
    13    11    12   ar
    14    12    13   ar
    15    13    14   ar
    16    14    15    1
    17     3     4   ar
    18     4     5   ar
    19     5     6    2
    20     5     7   ar
    21     7     8    1
    22    18    19    1
    23    19    20    1
    24    20    21    1
    25    21    16    1
    26     7     1   ar
    27    14     9   ar
@<TRIPOS>MOLECULE
*****
 25 27 0 0 0
SMALL
GASTEIGER

@<TRIPOS>ATOM
      1 C          -8.0137  -18.4450   21.2448 C.ar    1  UNL1        0.2036
      2 N          -6.5186  -18.3534   21.3248 N.ar    1  UNL1       -0.2147
      3 C          -5.6661  -19.2162   20.4424 C.ar    1  UNL1        0.0911
      4 C          -6.3086  -20.1707   19.4799 C.ar    1  UNL1        0.0801
      5 C          -7.8036  -20.2623   19.3999 C.ar    1  UNL1        0.2645
      6 O          -8.4462  -21.2167   18.4376 O.2     1  UNL1       -0.2668
      7 N          -8.6562  -19.3994   20.2825 N.ar    1  UNL1       -0.2667
      8 C         -10.1513  -19.4910   20.2025 C.3     1  UNL1        0.1363
      9 C          -4.1710  -19.1246   20.5223 C.ar    1  UNL1        0.0485
     10 C          -3.4412  -19.7567   21.6703 C.ar    1  UNL1        0.0244
     11 C          -1.9461  -19.6651   21.7502 C.ar    1  UNL1        0.0991
     12 N          -1.1809  -18.9414   20.6823 N.ar    1  UNL1       -0.2400
     13 C          -1.9107  -18.3092   19.5342 C.ar    1  UNL1        0.1285
     14 C          -3.4058  -18.4009   19.4543 C.ar    1  UNL1        0.1606
     15 F          -4.1356  -17.7688   18.3064 F       1  UNL1       -0.2025
     16 C          -9.3691  -16.5523   24.4589 C.3     1  UNL1        0.1350
     17 C          -8.5166  -17.4150   23.5764 C.3     1  UNL1        0.1230
     18 N          -8.8662  -17.5822   22.1273 N.pl3   1  UNL1       -0.2744
     19 C         -10.0683  -16.8865   21.5608 C.3     1  UNL1        0.1256
     20 C         -10.9207  -16.0237   22.4432 C.3     1  UNL1        0.1635
     21 O         -10.5711  -15.8566   23.8923 O.3     1  UNL1       -0.3527
     22 C          -9.0195  -16.3851   25.9080 C.3     1  UNL1        0.0313
     23 C          -7.6231  -16.0067   26.3038 C.3     1  UNL1        0.0026
     24 C          -5.2758  -15.1784   25.5593 C.3     1  UNL1        0.0000
     25 C          -6.7616  -15.2235   25.3580 C.3     1  UNL1        0.0001
@<TRIPOS>BOND
     1    24    25    1
     2    25    23    1
     3    23    22    1
     4    22    16    1
     5    16    17    1
     6    17    18    1
     7    18     1    1
     8     1     2   ar
     9     2     3   ar
    10     3     9    1
    11     9    10   ar
    12    10    11   ar
    13    11    12   ar
    14    12    13   ar
    15    13    14   ar
    16    14    15    1
    17     3     4   ar
    18     4     5   ar
    19     5     6    2
    20     5     7   ar
    21     7     8    1
    22    18    19    1
    23    19    20    1
    24    20    21    1
    25    21    16    1
    26     7     1   ar
    27    14     9   ar
@<TRIPOS>MOLECULE
*****
 25 27 0 0 0
SMALL
GASTEIGER

@<TRIPOS>ATOM
      1 C         -15.0757   -4.6824   18.6729 C.ar    1  UNL1        0.2036
      2 N         -15.5569   -6.0666   18.3528 N.ar    1  UNL1       -0.2147
      3 C         -16.9427   -6.4878   18.7426 C.ar    1  UNL1        0.0911
      4 C         -17.8475   -5.5248   19.4527 C.ar    1  UNL1        0.0801
      5 C         -17.3663   -4.1406   19.7728 C.ar    1  UNL1        0.2645
      6 O         -18.2710   -3.1776   20.4828 O.2     1  UNL1       -0.2668
      7 N         -15.9804   -3.7194   19.3829 N.ar    1  UNL1       -0.2667
      8 C         -15.4993   -2.3352   19.7030 C.3     1  UNL1        0.1363
      9 C         -17.4238   -7.8720   18.4225 C.ar    1  UNL1        0.0485
     10 C         -18.3827   -8.0895   17.2897 C.ar    1  UNL1        0.0244
     11 C         -18.8638   -9.4737   16.9696 C.ar    1  UNL1        0.0991
     12 N         -18.3861  -10.6404   17.7822 N.ar    1  UNL1       -0.2400
     13 C         -17.4271  -10.4230   18.9151 C.ar    1  UNL1        0.1285
     14 C         -16.9460   -9.0388   19.2352 C.ar    1  UNL1        0.1606
     15 F         -15.9871   -8.8213   20.3680 F       1  UNL1       -0.2025
     16 C         -11.1160   -4.4279   18.5955 C.3     1  UNL1        0.1350
     17 C         -12.5019   -4.8490   18.9853 C.3     1  UNL1        0.1230
     18 N         -13.6898   -4.2612   18.2830 N.pl3   1  UNL1       -0.2744
     19 C         -13.4919   -3.2522   17.1909 C.3     1  UNL1        0.1256
     20 C         -12.1061   -2.8311   16.8010 C.3     1  UNL1        0.1635
     21 O         -10.9181   -3.4189   17.5033 O.3     1  UNL1       -0.3527
     22 C          -9.9281   -5.0157   19.2978 C.3     1  UNL1        0.0313
     23 C          -9.2143   -6.1946   18.7056 C.3     1  UNL1        0.0026
     24 C         -10.6144   -7.9670   17.4217 C.3     1  UNL1        0.0000
     25 C          -9.8879   -7.5341   18.6607 C.3     1  UNL1        0.0001
@<TRIPOS>BOND
     1    24    25    1
     2    25    23    1
     3    23    22    1
     4    22    16    1
     5    16    17    1
     6    17    18    1
     7    18     1    1
     8     1     2   ar
     9     2     3   ar
    10     3     9    1
    11     9    10   ar
    12    10    11   ar
    13    11    12   ar
    14    12    13   ar
    15    13    14   ar
    16    14    15    1
    17     3     4   ar
    18     4     5   ar
    19     5     6    2
    20     5     7   ar
    21     7     8    1
    22    18    19    1
    23    19    20    1
    24    20    21    1
    25    21    16    1
    26     7     1   ar
    27    14     9   ar
