@<TRIPOS>MOLECULE
*****
 45 50 0 0 0
SMALL
GASTEIGER

@<TRIPOS>ATOM
      1 C          -2.7393    4.4929   22.7853 C.ar    1  UNL1        0.1348
      2 C          -2.2119    5.5169   23.7461 C.ar    1  UNL1        0.0346
      3 C          -0.8183    5.3909   24.2863 C.ar    1  UNL1        0.0065
      4 C           0.0480    4.2408   23.8658 C.ar    1  UNL1        0.0432
      5 C          -0.4794    3.2168   22.9050 C.ar    1  UNL1        0.1256
      6 N          -1.8731    3.3428   22.3648 N.ar    1  UNL1       -0.2222
      7 C           1.4416    4.1148   24.4060 C.ar    1  UNL1        0.0851
      8 C           1.8551    3.3044   25.5986 C.ar    1  UNL1        0.1020
      9 N           3.3355    3.4658   25.7782 N.ar    1  UNL1       -0.2264
     10 C           3.8371    4.3760   24.6965 C.ar    1  UNL1        0.1474
     11 C           5.2084    4.8914   24.3742 C.ar    1  UNL1        0.0332
     12 C           5.4092    5.8079   23.2039 C.ar    1  UNL1       -0.0174
     13 C           6.7805    6.3233   22.8816 C.3     1  UNL1        0.0312
     14 C           4.2388    6.2091   22.3558 C.ar    1  UNL1        0.0149
     15 C           2.8675    5.6937   22.6781 C.ar    1  UNL1        0.0811
     16 N           2.6666    4.7771   23.8485 N.ar    1  UNL1       -0.2888
     17 C           0.9474    2.4777   26.4604 C.ar    1  UNL1        0.0574
     18 C           1.4681    1.2375   27.1245 C.ar    1  UNL1        0.1033
     19 N           0.5604    0.4107   27.9863 N.ar    1  UNL1       -0.2291
     20 C          -0.8679    0.8241   28.1840 C.ar    1  UNL1        0.1396
     21 C          -1.7756   -0.0026   29.0457 C.3     1  UNL1        0.0737
     22 N          -1.3885    2.0642   27.5199 N.ar    1  UNL1       -0.2291
     23 C          -0.4809    2.8909   26.6581 C.ar    1  UNL1        0.1033
     24 C          -5.2949    4.0997   23.0390 C.2     1  UNL1        0.2414
     25 O          -5.0632    3.4545   24.3733 O.2     1  UNL1       -0.2733
     26 N          -4.1330    4.6189   22.2451 N.am    1  UNL1       -0.2682
     27 H          -4.2851    5.0424   21.3695 H       1  UNL1        0.1563
     28 C          -6.6886    4.2258   22.4988 C.3     1  UNL1        0.1319
     29 C          -6.9075    4.6910   21.0896 C.3     1  UNL1        0.0270
     30 C          -8.5388    4.9602   24.1683 C.3     1  UNL1        0.0862
     31 N          -7.8633    3.8866   23.3677 N.3     1  UNL1       -0.2902
     32 H          -8.5740    3.4830   22.7575 H       1  UNL1        0.1237
     33 C           0.3868    2.0666   22.4845 C.1     1  UNL1       -0.0404
     34 C           1.2530    0.9165   22.0639 C.1     1  UNL1       -0.0583
     35 C           2.1193   -0.2337   21.6433 C.ar    1  UNL1        0.0420
     36 C           2.0642   -0.7370   20.2314 C.ar    1  UNL1        0.0083
     37 C           2.9304   -1.8871   19.8109 C.ar    1  UNL1        0.0018
     38 C           3.8517   -2.5339   20.8023 C.ar    1  UNL1        0.0137
     39 C           4.7180   -3.6840   20.3817 C.ar    1  UNL1        0.0594
     40 C           4.6629   -4.1874   18.9698 C.3     1  UNL1        0.0521
     41 N           5.6393   -4.3308   21.3731 N.ar    1  UNL1       -0.2481
     42 C           5.6944   -3.8273   22.7851 C.ar    1  UNL1        0.0984
     43 C           4.8281   -2.6772   23.2056 C.ar    1  UNL1        0.0207
     44 C           3.9068   -2.0305   22.2142 C.ar    1  UNL1        0.0033
     45 C           3.0406   -0.8804   22.6347 C.ar    1  UNL1        0.0083
@<TRIPOS>BOND
     1    30    31    1
     2    31    28    1
     3    28    29    1
     4    28    24    1
     5    24    25    2
     6    24    26   am
     7    26     1    1
     8     1     2   ar
     9     2     3   ar
    10     3     4   ar
    11     4     7    1
    12     7     8   ar
    13     8    17    1
    14    17    18   ar
    15    18    19   ar
    16    19    20   ar
    17    20    21    1
    18    20    22   ar
    19    22    23   ar
    20     8     9   ar
    21     9    10   ar
    22    10    11   ar
    23    11    12   ar
    24    12    13    1
    25    12    14   ar
    26    14    15   ar
    27    15    16   ar
    28     4     5   ar
    29     5    33    1
    30    33    34    3
    31    34    35    1
    32    35    36   ar
    33    36    37   ar
    34    37    38   ar
    35    38    39   ar
    36    39    40    1
    37    39    41   ar
    38    41    42   ar
    39    42    43   ar
    40    43    44   ar
    41    44    45   ar
    42     5     6   ar
    43     6     1   ar
    44    16     7   ar
    45    45    35   ar
    46    23    17   ar
    47    16    10   ar
    48    44    38   ar
    49    31    32    1
    50    26    27    1
@<TRIPOS>MOLECULE
*****
 45 50 0 0 0
SMALL
GASTEIGER

@<TRIPOS>ATOM
      1 C           4.1942   -0.8363   30.7528 C.ar    1  UNL1        0.1348
      2 C           5.4995   -1.3957   31.2358 C.ar    1  UNL1        0.0346
      3 C           6.4913   -1.9420   30.2520 C.ar    1  UNL1        0.0065
      4 C           6.1779   -1.9289   28.7852 C.ar    1  UNL1        0.0432
      5 C           4.8727   -1.3694   28.3022 C.ar    1  UNL1        0.1256
      6 N           3.8808   -0.8231   29.2860 N.ar    1  UNL1       -0.2222
      7 C           7.1697   -2.4752   27.8014 C.ar    1  UNL1        0.0851
      8 C           8.2384   -1.6911   27.0991 C.ar    1  UNL1        0.1020
      9 N           8.9962   -2.6328   26.2108 N.ar    1  UNL1       -0.2264
     10 C           8.3958   -3.9989   26.3641 C.ar    1  UNL1        0.1474
     11 C           8.7312   -5.3189   25.7356 C.ar    1  UNL1        0.0332
     12 C           7.9377   -6.5415   26.0902 C.ar    1  UNL1       -0.0174
     13 C           8.2731   -7.8615   25.4617 C.3     1  UNL1        0.0312
     14 C           6.8089   -6.4441   27.0732 C.ar    1  UNL1        0.0149
     15 C           6.4736   -5.1241   27.7017 C.ar    1  UNL1        0.0811
     16 N           7.2670   -3.9014   27.3472 N.ar    1  UNL1       -0.2888
     17 C           8.5029   -0.2231   27.2573 C.ar    1  UNL1        0.0574
     18 C           9.2694    0.2771   28.4458 C.ar    1  UNL1        0.1033
     19 N           9.5338    1.7451   28.6039 N.ar    1  UNL1       -0.2291
     20 C           9.0319    2.7129   27.5737 C.ar    1  UNL1        0.1396
     21 C           9.2964    4.1809   27.7319 C.3     1  UNL1        0.0737
     22 N           8.2655    2.2127   26.3853 N.ar    1  UNL1       -0.2291
     23 C           8.0010    0.7447   26.2271 C.ar    1  UNL1        0.1033
     24 C           3.3110    1.1326   32.1996 C.2     1  UNL1        0.2414
     25 O           4.4115    2.0089   31.6789 O.2     1  UNL1       -0.2733
     26 N           3.2024   -0.2900   31.7365 N.am    1  UNL1       -0.2682
     27 H           2.4802   -0.8651   32.0783 H       1  UNL1        0.1563
     28 C           2.3192    1.6789   33.1834 C.3     1  UNL1        0.1319
     29 C           2.7673    2.0740   34.5594 C.3     1  UNL1        0.0270
     30 C           0.5196    2.1793   31.3776 C.3     1  UNL1        0.0862
     31 N           0.8793    1.8301   32.7913 N.3     1  UNL1       -0.2902
     32 H           0.4223    0.9426   33.0008 H       1  UNL1        0.1237
     33 C           4.5592   -1.3563   26.8353 C.1     1  UNL1       -0.0404
     34 C           4.2457   -1.3431   25.3685 C.1     1  UNL1       -0.0583
     35 C           3.9322   -1.3299   23.9016 C.ar    1  UNL1        0.0420
     36 C           3.0630   -0.2494   23.3301 C.ar    1  UNL1        0.0083
     37 C           2.7495   -0.2363   21.8633 C.ar    1  UNL1        0.0018
     38 C           3.3054   -1.3037   20.9680 C.ar    1  UNL1        0.0137
     39 C           2.9919   -1.2906   19.5012 C.ar    1  UNL1        0.0594
     40 C           2.1226   -0.2100   18.9297 C.3     1  UNL1        0.0521
     41 N           3.5478   -2.3580   18.6059 N.ar    1  UNL1       -0.2481
     42 C           4.4171   -3.4386   19.1775 C.ar    1  UNL1        0.0984
     43 C           4.7305   -3.4517   20.6443 C.ar    1  UNL1        0.0207
     44 C           4.1747   -2.3843   21.5395 C.ar    1  UNL1        0.0033
     45 C           4.4881   -2.3974   23.0063 C.ar    1  UNL1        0.0083
@<TRIPOS>BOND
     1    30    31    1
     2    31    28    1
     3    28    29    1
     4    28    24    1
     5    24    25    2
     6    24    26   am
     7    26     1    1
     8     1     2   ar
     9     2     3   ar
    10     3     4   ar
    11     4     7    1
    12     7     8   ar
    13     8    17    1
    14    17    18   ar
    15    18    19   ar
    16    19    20   ar
    17    20    21    1
    18    20    22   ar
    19    22    23   ar
    20     8     9   ar
    21     9    10   ar
    22    10    11   ar
    23    11    12   ar
    24    12    13    1
    25    12    14   ar
    26    14    15   ar
    27    15    16   ar
    28     4     5   ar
    29     5    33    1
    30    33    34    3
    31    34    35    1
    32    35    36   ar
    33    36    37   ar
    34    37    38   ar
    35    38    39   ar
    36    39    40    1
    37    39    41   ar
    38    41    42   ar
    39    42    43   ar
    40    43    44   ar
    41    44    45   ar
    42     5     6   ar
    43     6     1   ar
    44    16     7   ar
    45    45    35   ar
    46    23    17   ar
    47    16    10   ar
    48    44    38   ar
    49    31    32    1
    50    26    27    1
@<TRIPOS>MOLECULE
*****
 45 50 0 0 0
SMALL
GASTEIGER

@<TRIPOS>ATOM
      1 C           2.7014   -0.0692   29.8346 C.ar    1  UNL1        0.1348
      2 C           2.1505    1.3063   30.0681 C.ar    1  UNL1        0.0346
      3 C           1.8675    2.2085   28.9036 C.ar    1  UNL1        0.0065
      4 C           2.1355    1.7353   27.5057 C.ar    1  UNL1        0.0432
      5 C           2.6865    0.3598   27.2723 C.ar    1  UNL1        0.1256
      6 N           2.9694   -0.5424   28.4367 N.ar    1  UNL1       -0.2222
      7 C           1.8526    2.6375   26.3413 C.ar    1  UNL1        0.0851
      8 C           2.8738    3.3879   25.5387 C.ar    1  UNL1        0.1020
      9 N           2.1511    4.1619   24.4764 N.ar    1  UNL1       -0.2264
     10 C           0.6832    3.8899   24.6223 C.ar    1  UNL1        0.1474
     11 C          -0.5093    4.3784   23.8547 C.ar    1  UNL1        0.0332
     12 C          -1.8863    3.9248   24.2395 C.ar    1  UNL1       -0.0174
     13 C          -3.0787    4.4133   23.4719 C.3     1  UNL1        0.0312
     14 C          -2.0708    2.9826   25.3921 C.ar    1  UNL1        0.0149
     15 C          -0.8783    2.4942   26.1598 C.ar    1  UNL1        0.0811
     16 N           0.4987    2.9478   25.7749 N.ar    1  UNL1       -0.2888
     17 C           4.3573    3.3677   25.7597 C.ar    1  UNL1        0.0574
     18 C           4.9519    4.1005   26.9258 C.ar    1  UNL1        0.1033
     19 N           6.4354    4.0804   27.1468 N.ar    1  UNL1       -0.2291
     20 C           7.3243    3.3276   26.2018 C.ar    1  UNL1        0.1396
     21 C           8.8078    3.3074   26.4228 C.3     1  UNL1        0.0737
     22 N           6.7297    2.5949   25.0358 N.ar    1  UNL1       -0.2291
     23 C           5.2462    2.6150   24.8148 C.ar    1  UNL1        0.1033
     24 C           4.3898   -1.1348   31.4970 C.2     1  UNL1        0.2414
     25 O           5.5124   -0.3960   30.8306 O.2     1  UNL1       -0.2733
     26 N           2.9844   -0.9714   30.9991 N.am    1  UNL1       -0.2682
     27 H           2.2476   -1.4563   31.4365 H       1  UNL1        0.1563
     28 C           4.6727   -2.0371   32.6615 C.3     1  UNL1        0.1319
     29 C           4.2520   -1.6325   34.0433 C.3     1  UNL1        0.0270
     30 C           6.8556   -3.3670   32.1964 C.3     1  UNL1        0.0862
     31 N           5.3764   -3.3438   32.4442 N.3     1  UNL1       -0.2902
     32 H           5.2081   -3.9106   33.2753 H       1  UNL1        0.1237
     33 C           2.9545   -0.1134   25.8743 C.1     1  UNL1       -0.0404
     34 C           3.2225   -0.5867   24.4764 C.1     1  UNL1       -0.0583
     35 C           3.4906   -1.0600   23.0784 C.ar    1  UNL1        0.0420
     36 C           4.1365   -2.3942   22.8492 C.ar    1  UNL1        0.0083
     37 C           4.4045   -2.8674   21.4513 C.ar    1  UNL1        0.0018
     38 C           4.0266   -2.0064   20.2826 C.ar    1  UNL1        0.0137
     39 C           4.2946   -2.4797   18.8847 C.ar    1  UNL1        0.0594
     40 C           4.9406   -3.8139   18.6554 C.3     1  UNL1        0.0521
     41 N           3.9168   -1.6187   17.7160 N.ar    1  UNL1       -0.2481
     42 C           3.2708   -0.2844   17.9452 C.ar    1  UNL1        0.0984
     43 C           3.0028    0.1888   19.3431 C.ar    1  UNL1        0.0207
     44 C           3.3807   -0.6722   20.5118 C.ar    1  UNL1        0.0033
     45 C           3.1127   -0.1989   21.9097 C.ar    1  UNL1        0.0083
@<TRIPOS>BOND
     1    30    31    1
     2    31    28    1
     3    28    29    1
     4    28    24    1
     5    24    25    2
     6    24    26   am
     7    26     1    1
     8     1     2   ar
     9     2     3   ar
    10     3     4   ar
    11     4     7    1
    12     7     8   ar
    13     8    17    1
    14    17    18   ar
    15    18    19   ar
    16    19    20   ar
    17    20    21    1
    18    20    22   ar
    19    22    23   ar
    20     8     9   ar
    21     9    10   ar
    22    10    11   ar
    23    11    12   ar
    24    12    13    1
    25    12    14   ar
    26    14    15   ar
    27    15    16   ar
    28     4     5   ar
    29     5    33    1
    30    33    34    3
    31    34    35    1
    32    35    36   ar
    33    36    37   ar
    34    37    38   ar
    35    38    39   ar
    36    39    40    1
    37    39    41   ar
    38    41    42   ar
    39    42    43   ar
    40    43    44   ar
    41    44    45   ar
    42     5     6   ar
    43     6     1   ar
    44    16     7   ar
    45    45    35   ar
    46    23    17   ar
    47    16    10   ar
    48    44    38   ar
    49    31    32    1
    50    26    27    1
@<TRIPOS>MOLECULE
*****
 45 50 0 0 0
SMALL
GASTEIGER

@<TRIPOS>ATOM
      1 C           6.9831   -2.8336   28.0243 C.ar    1  UNL1        0.1348
      2 C           7.8701   -3.1271   26.8509 C.ar    1  UNL1        0.0346
      3 C           7.5098   -2.6090   25.4901 C.ar    1  UNL1        0.0065
      4 C           6.2624   -1.7974   25.3027 C.ar    1  UNL1        0.0432
      5 C           5.3753   -1.5038   26.4761 C.ar    1  UNL1        0.1256
      6 N           5.7357   -2.0219   27.8369 N.ar    1  UNL1       -0.2222
      7 C           5.9021   -1.2793   23.9419 C.ar    1  UNL1        0.0851
      8 C           6.0740    0.1313   23.4615 C.ar    1  UNL1        0.1020
      9 N           5.5847    0.2016   22.0453 N.ar    1  UNL1       -0.2264
     10 C           5.1104   -1.1655   21.6504 C.ar    1  UNL1        0.1474
     11 C           4.5253   -1.6953   20.3749 C.ar    1  UNL1        0.0332
     12 C           4.1363   -3.1403   20.2715 C.ar    1  UNL1       -0.0174
     13 C           3.5511   -3.6701   18.9960 C.3     1  UNL1        0.0312
     14 C           4.3324   -4.0556   21.4437 C.ar    1  UNL1        0.0149
     15 C           4.9175   -3.5258   22.7192 C.ar    1  UNL1        0.0811
     16 N           5.3066   -2.0807   22.8225 N.ar    1  UNL1       -0.2888
     17 C           6.6364    1.2714   24.2576 C.ar    1  UNL1        0.0574
     18 C           8.0993    1.3061   24.5877 C.ar    1  UNL1        0.1033
     19 N           8.6617    2.4462   25.3838 N.ar    1  UNL1       -0.2291
     20 C           7.7614    3.5517   25.8498 C.ar    1  UNL1        0.1396
     21 C           8.3238    4.6919   26.6459 C.3     1  UNL1        0.0737
     22 N           6.2985    3.5171   25.5197 N.ar    1  UNL1       -0.2291
     23 C           5.7361    2.3769   24.7236 C.ar    1  UNL1        0.1033
     24 C           6.9373   -4.7371   29.7918 C.2     1  UNL1        0.2414
     25 O           6.1707   -5.6046   28.8378 O.2     1  UNL1       -0.2733
     26 N           7.3434   -3.3517   29.3850 N.am    1  UNL1       -0.2682
     27 H           7.8465   -2.7824   30.0112 H       1  UNL1        0.1563
     28 C           7.2976   -5.2552   31.1526 C.3     1  UNL1        0.1319
     29 C           8.4924   -6.1459   31.3238 C.3     1  UNL1        0.0270
     30 C           6.0170   -3.4630   32.5303 C.3     1  UNL1        0.0862
     31 N           6.4632   -4.8827   32.3421 N.3     1  UNL1       -0.2902
     32 H           5.6189   -5.4536   32.3000 H       1  UNL1        0.1237
     33 C           4.1279   -0.6921   26.2887 C.1     1  UNL1       -0.0404
     34 C           2.8805    0.1196   26.1014 C.1     1  UNL1       -0.0583
     35 C           1.6330    0.9313   25.9140 C.ar    1  UNL1        0.0420
     36 C           0.7521    1.2348   27.0895 C.ar    1  UNL1        0.0083
     37 C          -0.4953    2.0465   26.9021 C.ar    1  UNL1        0.0018
     38 C          -0.8618    2.5546   25.5392 C.ar    1  UNL1        0.0137
     39 C          -2.1092    3.3664   25.3519 C.ar    1  UNL1        0.0594
     40 C          -2.9901    3.6699   26.5274 C.3     1  UNL1        0.0521
     41 N          -2.4757    3.8745   23.9890 N.ar    1  UNL1       -0.2481
     42 C          -1.5947    3.5710   22.8135 C.ar    1  UNL1        0.0984
     43 C          -0.3473    2.7593   23.0009 C.ar    1  UNL1        0.0207
     44 C           0.0191    2.2511   24.3637 C.ar    1  UNL1        0.0033
     45 C           1.2665    1.4395   24.5511 C.ar    1  UNL1        0.0083
@<TRIPOS>BOND
     1    30    31    1
     2    31    28    1
     3    28    29    1
     4    28    24    1
     5    24    25    2
     6    24    26   am
     7    26     1    1
     8     1     2   ar
     9     2     3   ar
    10     3     4   ar
    11     4     7    1
    12     7     8   ar
    13     8    17    1
    14    17    18   ar
    15    18    19   ar
    16    19    20   ar
    17    20    21    1
    18    20    22   ar
    19    22    23   ar
    20     8     9   ar
    21     9    10   ar
    22    10    11   ar
    23    11    12   ar
    24    12    13    1
    25    12    14   ar
    26    14    15   ar
    27    15    16   ar
    28     4     5   ar
    29     5    33    1
    30    33    34    3
    31    34    35    1
    32    35    36   ar
    33    36    37   ar
    34    37    38   ar
    35    38    39   ar
    36    39    40    1
    37    39    41   ar
    38    41    42   ar
    39    42    43   ar
    40    43    44   ar
    41    44    45   ar
    42     5     6   ar
    43     6     1   ar
    44    16     7   ar
    45    45    35   ar
    46    23    17   ar
    47    16    10   ar
    48    44    38   ar
    49    31    32    1
    50    26    27    1
@<TRIPOS>MOLECULE
*****
 45 50 0 0 0
SMALL
GASTEIGER

@<TRIPOS>ATOM
      1 C           0.5731    0.8304   19.8128 C.ar    1  UNL1        0.1348
      2 C           0.8420    1.5556   18.5276 C.ar    1  UNL1        0.0346
      3 C           0.1384    2.8474   18.2340 C.ar    1  UNL1        0.0065
      4 C          -0.8340    3.4141   19.2256 C.ar    1  UNL1        0.0432
      5 C          -1.1028    2.6888   20.5108 C.ar    1  UNL1        0.1256
      6 N          -0.3993    1.3970   20.8044 N.ar    1  UNL1       -0.2222
      7 C          -1.5375    4.7059   18.9321 C.ar    1  UNL1        0.0851
      8 C          -0.9679    6.0814   19.1150 C.ar    1  UNL1        0.1020
      9 N          -2.0125    7.0747   18.7000 N.ar    1  UNL1       -0.2264
     10 C          -3.2278    6.3130   18.2606 C.ar    1  UNL1        0.1474
     11 C          -4.5637    6.7634   17.7484 C.ar    1  UNL1        0.0332
     12 C          -5.6061    5.7498   17.3797 C.ar    1  UNL1       -0.0174
     13 C          -6.9421    6.2001   16.8675 C.3     1  UNL1        0.0312
     14 C          -5.3126    4.2857   17.5231 C.ar    1  UNL1        0.0149
     15 C          -3.9766    3.8354   18.0352 C.ar    1  UNL1        0.0811
     16 N          -2.9342    4.8491   18.4040 N.ar    1  UNL1       -0.2888
     17 C           0.4052    6.4066   19.6236 C.ar    1  UNL1        0.0574
     18 C           1.5321    6.6201   18.6568 C.ar    1  UNL1        0.1033
     19 N           2.9053    6.9453   19.1654 N.ar    1  UNL1       -0.2291
     20 C           3.1516    7.0571   20.6408 C.ar    1  UNL1        0.1396
     21 C           4.5248    7.3823   21.1494 C.3     1  UNL1        0.0737
     22 N           2.0248    6.8436   21.6076 N.ar    1  UNL1       -0.2291
     23 C           0.6516    6.5184   21.0989 C.ar    1  UNL1        0.1033
     24 C           2.7137   -0.4521   20.5360 C.2     1  UNL1        0.2414
     25 O           3.4474    0.8493   20.6720 O.2     1  UNL1       -0.2733
     26 N           1.2766   -0.4615   20.1064 N.am    1  UNL1       -0.2682
     27 H           0.7951   -1.3155   20.0171 H       1  UNL1        0.1563
     28 C           3.4173   -1.7439   20.8295 C.3     1  UNL1        0.1319
     29 C           3.9521   -2.0108   22.2054 C.3     1  UNL1        0.0270
     30 C           4.3918   -2.4430   18.5249 C.3     1  UNL1        0.0862
     31 N           3.5859   -2.7688   19.7474 N.3     1  UNL1       -0.2902
     32 H           4.0220   -3.5836   20.1790 H       1  UNL1        0.1237
     33 C          -2.0753    3.2555   21.5025 C.1     1  UNL1       -0.0404
     34 C          -3.0477    3.8220   22.4941 C.1     1  UNL1       -0.0583
     35 C          -4.0202    4.3886   23.4858 C.ar    1  UNL1        0.0420
     36 C          -3.5453    4.8117   24.8443 C.ar    1  UNL1        0.0083
     37 C          -4.5177    5.3782   25.8359 C.ar    1  UNL1        0.0018
     38 C          -5.9650    5.5218   25.4690 C.ar    1  UNL1        0.0137
     39 C          -6.9375    6.0884   26.4607 C.ar    1  UNL1        0.0594
     40 C          -6.4626    6.5114   27.8191 C.3     1  UNL1        0.0521
     41 N          -8.3848    6.2320   26.0938 N.ar    1  UNL1       -0.2481
     42 C          -8.8597    5.8089   24.7353 C.ar    1  UNL1        0.0984
     43 C          -7.8873    5.2424   23.7437 C.ar    1  UNL1        0.0207
     44 C          -6.4399    5.0988   24.1105 C.ar    1  UNL1        0.0033
     45 C          -5.4675    4.5322   23.1189 C.ar    1  UNL1        0.0083
@<TRIPOS>BOND
     1    30    31    1
     2    31    28    1
     3    28    29    1
     4    28    24    1
     5    24    25    2
     6    24    26   am
     7    26     1    1
     8     1     2   ar
     9     2     3   ar
    10     3     4   ar
    11     4     7    1
    12     7     8   ar
    13     8    17    1
    14    17    18   ar
    15    18    19   ar
    16    19    20   ar
    17    20    21    1
    18    20    22   ar
    19    22    23   ar
    20     8     9   ar
    21     9    10   ar
    22    10    11   ar
    23    11    12   ar
    24    12    13    1
    25    12    14   ar
    26    14    15   ar
    27    15    16   ar
    28     4     5   ar
    29     5    33    1
    30    33    34    3
    31    34    35    1
    32    35    36   ar
    33    36    37   ar
    34    37    38   ar
    35    38    39   ar
    36    39    40    1
    37    39    41   ar
    38    41    42   ar
    39    42    43   ar
    40    43    44   ar
    41    44    45   ar
    42     5     6   ar
    43     6     1   ar
    44    16     7   ar
    45    45    35   ar
    46    23    17   ar
    47    16    10   ar
    48    44    38   ar
    49    31    32    1
    50    26    27    1
@<TRIPOS>MOLECULE
*****
 45 50 0 0 0
SMALL
GASTEIGER

@<TRIPOS>ATOM
      1 C          -0.2784    1.9057   20.4891 C.ar    1  UNL1        0.1348
      2 C           0.1731    1.9121   19.0587 C.ar    1  UNL1        0.0346
      3 C           1.4521    1.2302   18.6728 C.ar    1  UNL1        0.0065
      4 C           2.2798    0.5418   19.7173 C.ar    1  UNL1        0.0432
      5 C           1.8284    0.5354   21.1477 C.ar    1  UNL1        0.1256
      6 N           0.5493    1.2174   21.5336 N.ar    1  UNL1       -0.2222
      7 C           3.5589   -0.1401   19.3315 C.ar    1  UNL1        0.0851
      8 C           4.8567    0.5383   19.0070 C.ar    1  UNL1        0.1020
      9 N           5.8646   -0.5225   18.6773 N.ar    1  UNL1       -0.2264
     10 C           5.1897   -1.8567   18.7980 C.ar    1  UNL1        0.1474
     11 C           5.6887   -3.2562   18.5920 C.ar    1  UNL1        0.0332
     12 C           4.7626   -4.4193   18.7903 C.ar    1  UNL1       -0.0174
     13 C           5.2615   -5.8188   18.5844 C.3     1  UNL1        0.0312
     14 C           3.3375   -4.1831   19.1946 C.ar    1  UNL1        0.0149
     15 C           2.8386   -2.7836   19.4006 C.ar    1  UNL1        0.0811
     16 N           3.7647   -1.6203   19.2023 N.ar    1  UNL1       -0.2888
     17 C           5.1033    2.0179   19.0114 C.ar    1  UNL1        0.0574
     18 C           5.0594    2.7895   17.7257 C.ar    1  UNL1        0.1033
     19 N           5.3060    4.2691   17.7301 N.ar    1  UNL1       -0.2291
     20 C           5.5966    4.9771   19.0202 C.ar    1  UNL1        0.1396
     21 C           5.8432    6.4567   19.0246 C.3     1  UNL1        0.0737
     22 N           5.6406    4.2056   20.3058 N.ar    1  UNL1       -0.2291
     23 C           5.3939    2.7260   20.3013 C.ar    1  UNL1        0.1033
     24 C          -1.5231    3.8113   21.7418 C.2     1  UNL1        0.2414
     25 O          -0.2096    4.3531   22.2228 O.2     1  UNL1       -0.2733
     26 N          -1.5574    2.5877   20.8749 N.am    1  UNL1       -0.2682
     27 H          -2.4195    2.2321   20.5593 H       1  UNL1        0.1563
     28 C          -2.8022    4.4933   22.1276 C.3     1  UNL1        0.1319
     29 C          -2.7684    5.8706   22.7209 C.3     1  UNL1        0.0270
     30 C          -4.8177    3.1604   23.0821 C.3     1  UNL1        0.0862
     31 N          -4.1150    3.7980   21.9203 N.3     1  UNL1       -0.2902
     32 H          -4.7562    4.4894   21.5317 H       1  UNL1        0.1237
     33 C           2.6560   -0.1530   22.1924 C.1     1  UNL1       -0.0404
     34 C           3.4836   -0.8413   23.2370 C.1     1  UNL1       -0.0583
     35 C           4.3113   -1.5297   24.2816 C.ar    1  UNL1        0.0420
     36 C           4.2025   -1.1139   25.7187 C.ar    1  UNL1        0.0083
     37 C           5.0302   -1.8023   26.7632 C.ar    1  UNL1        0.0018
     38 C           5.9665   -2.9064   26.3707 C.ar    1  UNL1        0.0137
     39 C           6.7942   -3.5948   27.4153 C.ar    1  UNL1        0.0594
     40 C           6.6855   -3.1791   28.8524 C.3     1  UNL1        0.0521
     41 N           7.7306   -4.6989   27.0228 N.ar    1  UNL1       -0.2481
     42 C           7.8393   -5.1147   25.5856 C.ar    1  UNL1        0.0984
     43 C           7.0117   -4.4263   24.5411 C.ar    1  UNL1        0.0207
     44 C           6.0753   -3.3222   24.9336 C.ar    1  UNL1        0.0033
     45 C           5.2477   -2.6338   23.8891 C.ar    1  UNL1        0.0083
@<TRIPOS>BOND
     1    30    31    1
     2    31    28    1
     3    28    29    1
     4    28    24    1
     5    24    25    2
     6    24    26   am
     7    26     1    1
     8     1     2   ar
     9     2     3   ar
    10     3     4   ar
    11     4     7    1
    12     7     8   ar
    13     8    17    1
    14    17    18   ar
    15    18    19   ar
    16    19    20   ar
    17    20    21    1
    18    20    22   ar
    19    22    23   ar
    20     8     9   ar
    21     9    10   ar
    22    10    11   ar
    23    11    12   ar
    24    12    13    1
    25    12    14   ar
    26    14    15   ar
    27    15    16   ar
    28     4     5   ar
    29     5    33    1
    30    33    34    3
    31    34    35    1
    32    35    36   ar
    33    36    37   ar
    34    37    38   ar
    35    38    39   ar
    36    39    40    1
    37    39    41   ar
    38    41    42   ar
    39    42    43   ar
    40    43    44   ar
    41    44    45   ar
    42     5     6   ar
    43     6     1   ar
    44    16     7   ar
    45    45    35   ar
    46    23    17   ar
    47    16    10   ar
    48    44    38   ar
    49    31    32    1
    50    26    27    1
@<TRIPOS>MOLECULE
*****
 45 50 0 0 0
SMALL
GASTEIGER

@<TRIPOS>ATOM
      1 C           5.7332   -2.4552   25.9255 C.ar    1  UNL1        0.1348
      2 C           6.7349   -2.1533   24.8507 C.ar    1  UNL1        0.0346
      3 C           6.4592   -1.0689   23.8516 C.ar    1  UNL1        0.0065
      4 C           5.1818   -0.2864   23.9275 C.ar    1  UNL1        0.0432
      5 C           4.1801   -0.5883   25.0023 C.ar    1  UNL1        0.1256
      6 N           4.4558   -1.6727   26.0014 N.ar    1  UNL1       -0.2222
      7 C           4.9061    0.7980   22.9284 C.ar    1  UNL1        0.0851
      8 C           4.6173    0.6004   21.4698 C.ar    1  UNL1        0.1020
      9 N           4.4034    1.9506   20.8525 N.ar    1  UNL1       -0.2264
     10 C           4.5601    2.9828   21.9296 C.ar    1  UNL1        0.1474
     11 C           4.4600    4.4793   21.9079 C.ar    1  UNL1        0.0332
     12 C           4.6705    5.2633   23.1692 C.ar    1  UNL1       -0.0174
     13 C           4.5705    6.7598   23.1475 C.3     1  UNL1        0.0312
     14 C           4.9812    4.5510   24.4522 C.ar    1  UNL1        0.0149
     15 C           5.0813    3.0545   24.4739 C.ar    1  UNL1        0.0811
     16 N           4.8707    2.2704   23.2126 N.ar    1  UNL1       -0.2888
     17 C           4.5535   -0.7164   20.7541 C.ar    1  UNL1        0.0574
     18 C           5.8183   -1.3956   20.3192 C.ar    1  UNL1        0.1033
     19 N           5.7545   -2.7123   19.6035 N.ar    1  UNL1       -0.2291
     20 C           4.4260   -3.3498   19.3227 C.ar    1  UNL1        0.1396
     21 C           4.3623   -4.6665   18.6070 C.3     1  UNL1        0.0737
     22 N           3.1614   -2.6706   19.7577 N.ar    1  UNL1       -0.2291
     23 C           3.2251   -1.3538   20.4733 C.ar    1  UNL1        0.1033
     24 C           6.3138   -3.1863   28.3501 C.2     1  UNL1        0.2414
     25 O           6.3430   -1.7484   28.7766 O.2     1  UNL1       -0.2733
     26 N           6.0089   -3.5396   26.9246 N.am    1  UNL1       -0.2682
     27 H           5.9898   -4.4833   26.6446 H       1  UNL1        0.1563
     28 C           6.5895   -4.2706   29.3491 C.3     1  UNL1        0.1319
     29 C           6.9109   -3.9165   30.7709 C.3     1  UNL1        0.0270
     30 C           7.8164   -6.4914   28.7897 C.3     1  UNL1        0.0862
     31 N           6.5439   -5.7091   28.9264 N.3     1  UNL1       -0.2902
     32 H           5.9691   -6.1993   29.6118 H       1  UNL1        0.1237
     33 C           2.9025    0.1942   25.0782 C.1     1  UNL1       -0.0404
     34 C           1.6251    0.9767   25.1541 C.1     1  UNL1       -0.0583
     35 C           0.3476    1.7592   25.2299 C.ar    1  UNL1        0.0420
     36 C          -0.3865    1.8722   26.5331 C.ar    1  UNL1        0.0083
     37 C          -1.6639    2.6546   26.6089 C.ar    1  UNL1        0.0018
     38 C          -2.2073    3.3242   25.3816 C.ar    1  UNL1        0.0137
     39 C          -3.4848    4.1067   25.4574 C.ar    1  UNL1        0.0594
     40 C          -4.2189    4.2196   26.7606 C.3     1  UNL1        0.0521
     41 N          -4.0282    4.7762   24.2301 N.ar    1  UNL1       -0.2481
     42 C          -3.2941    4.6632   22.9268 C.ar    1  UNL1        0.0984
     43 C          -2.0167    3.8807   22.8510 C.ar    1  UNL1        0.0207
     44 C          -1.4733    3.2112   24.0784 C.ar    1  UNL1        0.0033
     45 C          -0.1958    2.4287   24.0026 C.ar    1  UNL1        0.0083
@<TRIPOS>BOND
     1    30    31    1
     2    31    28    1
     3    28    29    1
     4    28    24    1
     5    24    25    2
     6    24    26   am
     7    26     1    1
     8     1     2   ar
     9     2     3   ar
    10     3     4   ar
    11     4     7    1
    12     7     8   ar
    13     8    17    1
    14    17    18   ar
    15    18    19   ar
    16    19    20   ar
    17    20    21    1
    18    20    22   ar
    19    22    23   ar
    20     8     9   ar
    21     9    10   ar
    22    10    11   ar
    23    11    12   ar
    24    12    13    1
    25    12    14   ar
    26    14    15   ar
    27    15    16   ar
    28     4     5   ar
    29     5    33    1
    30    33    34    3
    31    34    35    1
    32    35    36   ar
    33    36    37   ar
    34    37    38   ar
    35    38    39   ar
    36    39    40    1
    37    39    41   ar
    38    41    42   ar
    39    42    43   ar
    40    43    44   ar
    41    44    45   ar
    42     5     6   ar
    43     6     1   ar
    44    16     7   ar
    45    45    35   ar
    46    23    17   ar
    47    16    10   ar
    48    44    38   ar
    49    31    32    1
    50    26    27    1
@<TRIPOS>MOLECULE
*****
 45 50 0 0 0
SMALL
GASTEIGER

@<TRIPOS>ATOM
      1 C           2.6738    0.5394   26.6700 C.ar    1  UNL1        0.1348
      2 C           3.5415    1.3146   27.6167 C.ar    1  UNL1        0.0346
      3 C           3.0437    2.5997   28.2090 C.ar    1  UNL1        0.0065
      4 C           1.6783    3.1095   27.8548 C.ar    1  UNL1        0.0432
      5 C           0.8106    2.3344   26.9081 C.ar    1  UNL1        0.1256
      6 N           1.3084    1.0493   26.3157 N.ar    1  UNL1       -0.2222
      7 C           1.1806    4.3946   28.4471 C.ar    1  UNL1        0.0851
      8 C           1.0924    5.7151   27.7411 C.ar    1  UNL1        0.1020
      9 N           0.5410    6.7214   28.7071 N.ar    1  UNL1       -0.2264
     10 C           0.2882    6.0228   30.0102 C.ar    1  UNL1        0.1474
     11 C          -0.2508    6.5103   31.3224 C.ar    1  UNL1        0.0332
     12 C          -0.3945    5.5598   32.4738 C.ar    1  UNL1       -0.0174
     13 C          -0.9336    6.0473   33.7860 C.3     1  UNL1        0.0312
     14 C           0.0007    4.1217   32.3132 C.ar    1  UNL1        0.0149
     15 C           0.5398    3.6342   31.0011 C.ar    1  UNL1        0.0811
     16 N           0.6835    4.5848   29.8495 N.ar    1  UNL1       -0.2888
     17 C           1.4866    5.9824   26.3187 C.ar    1  UNL1        0.0574
     18 C           2.9358    5.9922   25.9312 C.ar    1  UNL1        0.1033
     19 N           3.3300    6.2595   24.5088 N.ar    1  UNL1       -0.2291
     20 C           2.2751    6.5171   23.4739 C.ar    1  UNL1        0.1396
     21 C           2.6693    6.7844   22.0516 C.3     1  UNL1        0.0737
     22 N           0.8261    6.5073   23.8615 N.ar    1  UNL1       -0.2291
     23 C           0.4319    6.2400   25.2838 C.ar    1  UNL1        0.1033
     24 C           4.0286   -0.7217   24.8469 C.2     1  UNL1        0.2414
     25 O           4.3879    0.5872   24.2084 O.2     1  UNL1       -0.2733
     26 N           3.1716   -0.7456   26.0777 N.am    1  UNL1       -0.2682
     27 H           2.9357   -1.6047   26.4967 H       1  UNL1        0.1563
     28 C           4.5263   -2.0068   24.2545 C.3     1  UNL1        0.1319
     29 C           4.1733   -2.3679   22.8420 C.3     1  UNL1        0.0270
     30 C           6.4671   -3.7262   24.4194 C.3     1  UNL1        0.0862
     31 N           5.3771   -2.9307   25.0746 N.3     1  UNL1       -0.2902
     32 H           5.8206   -2.3609   25.7949 H       1  UNL1        0.1237
     33 C          -0.5549    2.8442   26.5538 C.1     1  UNL1       -0.0404
     34 C          -1.9203    3.3540   26.1994 C.1     1  UNL1       -0.0583
     35 C          -3.2859    3.8639   25.8451 C.ar    1  UNL1        0.0420
     36 C          -4.0668    4.6702   26.8400 C.ar    1  UNL1        0.0083
     37 C          -5.4323    5.1801   26.4856 C.ar    1  UNL1        0.0018
     38 C          -6.0167    4.8836   25.1364 C.ar    1  UNL1        0.0137
     39 C          -7.3822    5.3934   24.7820 C.ar    1  UNL1        0.0594
     40 C          -8.1632    6.1998   25.7769 C.3     1  UNL1        0.0521
     41 N          -7.9667    5.0969   23.4328 N.ar    1  UNL1       -0.2481
     42 C          -7.1856    4.2906   22.4378 C.ar    1  UNL1        0.0984
     43 C          -5.8202    3.7807   22.7922 C.ar    1  UNL1        0.0207
     44 C          -5.2357    4.0772   24.1415 C.ar    1  UNL1        0.0033
     45 C          -3.8703    3.5674   24.4958 C.ar    1  UNL1        0.0083
@<TRIPOS>BOND
     1    30    31    1
     2    31    28    1
     3    28    29    1
     4    28    24    1
     5    24    25    2
     6    24    26   am
     7    26     1    1
     8     1     2   ar
     9     2     3   ar
    10     3     4   ar
    11     4     7    1
    12     7     8   ar
    13     8    17    1
    14    17    18   ar
    15    18    19   ar
    16    19    20   ar
    17    20    21    1
    18    20    22   ar
    19    22    23   ar
    20     8     9   ar
    21     9    10   ar
    22    10    11   ar
    23    11    12   ar
    24    12    13    1
    25    12    14   ar
    26    14    15   ar
    27    15    16   ar
    28     4     5   ar
    29     5    33    1
    30    33    34    3
    31    34    35    1
    32    35    36   ar
    33    36    37   ar
    34    37    38   ar
    35    38    39   ar
    36    39    40    1
    37    39    41   ar
    38    41    42   ar
    39    42    43   ar
    40    43    44   ar
    41    44    45   ar
    42     5     6   ar
    43     6     1   ar
    44    16     7   ar
    45    45    35   ar
    46    23    17   ar
    47    16    10   ar
    48    44    38   ar
    49    31    32    1
    50    26    27    1
@<TRIPOS>MOLECULE
*****
 45 50 0 0 0
SMALL
GASTEIGER

@<TRIPOS>ATOM
      1 C           1.3750   -0.0221   19.9970 C.ar    1  UNL1        0.1348
      2 C           1.3002    0.5689   18.6204 C.ar    1  UNL1        0.0346
      3 C           0.6164    1.8866   18.4061 C.ar    1  UNL1        0.0065
      4 C           0.0073    2.6133   19.5683 C.ar    1  UNL1        0.0432
      5 C           0.0822    2.0223   20.9449 C.ar    1  UNL1        0.1256
      6 N           0.7660    0.7046   21.1593 N.ar    1  UNL1       -0.2222
      7 C          -0.6765    3.9311   19.3540 C.ar    1  UNL1        0.0851
      8 C          -0.0167    5.2068   18.9216 C.ar    1  UNL1        0.1020
      9 N          -1.0726    6.2686   18.8348 N.ar    1  UNL1       -0.2264
     10 C          -2.3851    5.6491   19.2136 C.ar    1  UNL1        0.1474
     11 C          -3.7716    6.2138   19.3078 C.ar    1  UNL1        0.0332
     12 C          -4.9132    5.3338   19.7229 C.ar    1  UNL1       -0.0174
     13 C          -6.2996    5.8985   19.8171 C.3     1  UNL1        0.0312
     14 C          -4.6684    3.8891   20.0438 C.ar    1  UNL1        0.0149
     15 C          -3.2820    3.3244   19.9496 C.ar    1  UNL1        0.0811
     16 N          -2.1403    4.2044   19.5345 N.ar    1  UNL1       -0.2888
     17 C           1.4429    5.3889   18.6275 C.ar    1  UNL1        0.0574
     18 C           2.4103    5.6248   19.7494 C.ar    1  UNL1        0.1033
     19 N           3.8699    5.8068   19.4554 N.ar    1  UNL1       -0.2291
     20 C           4.3622    5.7529   18.0395 C.ar    1  UNL1        0.1396
     21 C           5.8218    5.9350   17.7454 C.3     1  UNL1        0.0737
     22 N           3.3948    5.5170   16.9176 N.ar    1  UNL1       -0.2291
     23 C           1.9352    5.3350   17.2117 C.ar    1  UNL1        0.1033
     24 C           3.4870   -1.3781   20.6685 C.2     1  UNL1        0.2414
     25 O           4.2313   -0.0986   20.9114 O.2     1  UNL1       -0.2733
     26 N           2.0589   -1.3398   20.2114 N.am    1  UNL1       -0.2682
     27 H           1.5704   -2.1796   20.0520 H       1  UNL1        0.1563
     28 C           4.1708   -2.6958   20.8829 C.3     1  UNL1        0.1319
     29 C           4.5261   -3.1394   22.2711 C.3     1  UNL1        0.0270
     30 C           3.4301   -4.4117   19.0782 C.3     1  UNL1        0.0862
     31 N           4.4994   -3.5700   19.7091 N.3     1  UNL1       -0.2902
     32 H           4.8616   -2.9576   18.9782 H       1  UNL1        0.1237
     33 C          -0.5269    2.7491   22.1073 C.1     1  UNL1       -0.0404
     34 C          -1.1359    3.4757   23.2696 C.1     1  UNL1       -0.0583
     35 C          -1.7450    4.2025   24.4320 C.ar    1  UNL1        0.0420
     36 C          -0.8630    4.8816   25.4373 C.ar    1  UNL1        0.0083
     37 C          -1.4720    5.6083   26.5996 C.ar    1  UNL1        0.0018
     38 C          -2.9631    5.6558   26.7565 C.ar    1  UNL1        0.0137
     39 C          -3.5721    6.3826   27.9189 C.ar    1  UNL1        0.0594
     40 C          -2.6901    7.0617   28.9242 C.3     1  UNL1        0.0521
     41 N          -5.0631    6.4301   28.0758 N.ar    1  UNL1       -0.2481
     42 C          -5.9451    5.7509   27.0703 C.ar    1  UNL1        0.0984
     43 C          -5.3360    5.0242   25.9080 C.ar    1  UNL1        0.0207
     44 C          -3.8450    4.9767   25.7511 C.ar    1  UNL1        0.0033
     45 C          -3.2360    4.2500   24.5889 C.ar    1  UNL1        0.0083
@<TRIPOS>BOND
     1    30    31    1
     2    31    28    1
     3    28    29    1
     4    28    24    1
     5    24    25    2
     6    24    26   am
     7    26     1    1
     8     1     2   ar
     9     2     3   ar
    10     3     4   ar
    11     4     7    1
    12     7     8   ar
    13     8    17    1
    14    17    18   ar
    15    18    19   ar
    16    19    20   ar
    17    20    21    1
    18    20    22   ar
    19    22    23   ar
    20     8     9   ar
    21     9    10   ar
    22    10    11   ar
    23    11    12   ar
    24    12    13    1
    25    12    14   ar
    26    14    15   ar
    27    15    16   ar
    28     4     5   ar
    29     5    33    1
    30    33    34    3
    31    34    35    1
    32    35    36   ar
    33    36    37   ar
    34    37    38   ar
    35    38    39   ar
    36    39    40    1
    37    39    41   ar
    38    41    42   ar
    39    42    43   ar
    40    43    44   ar
    41    44    45   ar
    42     5     6   ar
    43     6     1   ar
    44    16     7   ar
    45    45    35   ar
    46    23    17   ar
    47    16    10   ar
    48    44    38   ar
    49    31    32    1
    50    26    27    1
