@<TRIPOS>MOLECULE
*****
 29 31 0 0 0
SMALL
GASTEIGER

@<TRIPOS>ATOM
      1 C          -7.3424  -16.5163   23.6056 C.ar    1  UNL1        0.1644
      2 N          -8.2645  -16.9145   24.7197 N.ar    1  UNL1       -0.2335
      3 C          -9.6092  -17.2108   24.1248 C.ar    1  UNL1        0.0939
      4 C         -10.9048  -17.6487   24.7410 C.ar    1  UNL1        0.0236
      5 C         -12.1095  -17.8715   23.8753 C.ar    1  UNL1        0.0749
      6 C         -12.0185  -17.6565   22.3937 C.ar    1  UNL1        0.0520
      7 C         -13.2231  -17.8794   21.5281 C.3     1  UNL1        0.0374
      8 C         -10.7229  -17.2187   21.7776 C.ar    1  UNL1        0.2931
      9 C          -9.5182  -16.9958   22.6431 C.ar    1  UNL1        0.1175
     10 S          -8.1172  -16.5666   22.3222 S.2     1  UNL1       -0.0559
     11 N          -2.7164  -18.5481   21.6764 N.3     1  UNL1       -0.2676
     12 C          -4.1599  -18.9296   21.5324 C.3     1  UNL1        0.0940
     13 C          -5.2207  -18.1251   22.2235 C.3     1  UNL1        0.1111
     14 N          -4.8381  -16.9392   23.0585 N.am    1  UNL1       -0.2716
     15 C          -5.8989  -16.1349   23.7496 C.2     1  UNL1        0.2731
     16 O          -5.5162  -14.9490   24.5846 O.2     1  UNL1       -0.2677
     17 C          -3.3945  -16.5578   23.2025 C.3     1  UNL1        0.1111
     18 C          -2.3337  -17.3622   22.5114 C.3     1  UNL1        0.0940
     19 C          -1.6556  -19.3525   20.9853 C.3     1  UNL1        0.1046
     20 C          -0.6383  -18.6674   20.1216 C.3     1  UNL1        0.1595
     21 C          -2.3006  -17.4744   18.5205 C.3     1  UNL1        0.1742
     22 O          -1.0117  -18.2086   18.7432 O.3     1  UNL1       -0.3496
     23 C         -13.4052  -18.3094   24.4915 C.3     1  UNL1        0.4185
     24 F         -14.7008  -18.7473   25.1077 F       1  UNL1       -0.1659
     25 F         -14.0965  -17.1288   23.8767 F       1  UNL1       -0.1659
     26 F         -12.7137  -19.4900   25.1063 F       1  UNL1       -0.1659
     27 N         -10.6319  -17.0037   20.2958 N.pl3   1  UNL1        0.0811
     28 O         -10.8685  -15.6390   19.7200 O.2     1  UNL1        0.0415
     29 O         -10.3042  -18.1535   19.3898 O.co2   1  UNL1       -0.5760
@<TRIPOS>UNITY_ATOM_ATTR
27 1
charge 1
29 1
charge -1
@<TRIPOS>BOND
     1    21    22    1
     2    22    20    1
     3    20    19    1
     4    19    11    1
     5    11    12    1
     6    12    13    1
     7    13    14    1
     8    14    15   am
     9    15    16    2
    10    15     1    1
    11     1     2   ar
    12     2     3   ar
    13     3     4   ar
    14     4     5   ar
    15     5    23    1
    16    23    24    1
    17    23    25    1
    18    23    26    1
    19     5     6   ar
    20     6     7    1
    21     6     8   ar
    22     8    27    1
    23    27    28    2
    24    27    29    1
    25     8     9   ar
    26     9    10   ar
    27    14    17    1
    28    17    18    1
    29    18    11    1
    30    10     1   ar
    31     9     3   ar
@<TRIPOS>MOLECULE
*****
 29 31 0 0 0
SMALL
GASTEIGER

@<TRIPOS>ATOM
      1 C          -8.0938  -19.8588   20.9508 C.ar    1  UNL1        0.1644
      2 N          -8.8585  -20.3981   22.1231 N.ar    1  UNL1       -0.2335
      3 C          -9.9955  -19.4614   22.4054 C.ar    1  UNL1        0.0939
      4 C         -11.0793  -19.4822   23.4421 C.ar    1  UNL1        0.0236
      5 C         -12.1012  -18.3847   23.4810 C.ar    1  UNL1        0.0749
      6 C         -12.0392  -17.2666   22.4831 C.ar    1  UNL1        0.0520
      7 C         -13.0611  -16.1691   22.5220 C.3     1  UNL1        0.0374
      8 C         -10.9554  -17.2458   21.4464 C.ar    1  UNL1        0.2931
      9 C          -9.9336  -18.3432   21.4075 C.ar    1  UNL1        0.1175
     10 S          -8.7582  -18.5888   20.5085 S.2     1  UNL1       -0.0559
     11 N          -2.7819  -18.9273   21.3594 N.3     1  UNL1       -0.2676
     12 C          -3.9977  -18.3057   21.9805 C.3     1  UNL1        0.0940
     13 C          -5.3630  -18.8235   21.6372 C.3     1  UNL1        0.1111
     14 N          -5.5127  -19.9627   20.6729 N.am    1  UNL1       -0.2716
     15 C          -6.8780  -20.4804   20.3298 C.2     1  UNL1        0.2731
     16 O          -7.0277  -21.6196   19.3655 O.2     1  UNL1       -0.2677
     17 C          -4.2969  -20.5842   20.0519 C.3     1  UNL1        0.1111
     18 C          -2.9316  -20.0665   20.3952 C.3     1  UNL1        0.0940
     19 C          -1.4166  -18.4096   21.7026 C.3     1  UNL1        0.1046
     20 C          -0.6443  -17.6073   20.6977 C.3     1  UNL1        0.1595
     21 C          -1.5898  -17.6273   18.2779 C.3     1  UNL1        0.1742
     22 O          -0.5592  -18.0705   19.2736 O.3     1  UNL1       -0.3496
     23 C         -13.1851  -18.4056   24.5178 C.3     1  UNL1        0.4185
     24 F         -14.2689  -18.4264   25.5546 F       1  UNL1       -0.1659
     25 F         -12.1523  -18.5619   25.5943 F       1  UNL1       -0.1659
     26 F         -14.2178  -18.2492   23.4412 F       1  UNL1       -0.1659
     27 N         -10.8934  -16.1276   20.4485 N.pl3   1  UNL1        0.0811
     28 O         -11.9116  -16.0452   19.3501 O.2     1  UNL1        0.0415
     29 O          -9.8132  -15.0916   20.5490 O.co2   1  UNL1       -0.5760
@<TRIPOS>UNITY_ATOM_ATTR
27 1
charge 1
29 1
charge -1
@<TRIPOS>BOND
     1    21    22    1
     2    22    20    1
     3    20    19    1
     4    19    11    1
     5    11    12    1
     6    12    13    1
     7    13    14    1
     8    14    15   am
     9    15    16    2
    10    15     1    1
    11     1     2   ar
    12     2     3   ar
    13     3     4   ar
    14     4     5   ar
    15     5    23    1
    16    23    24    1
    17    23    25    1
    18    23    26    1
    19     5     6   ar
    20     6     7    1
    21     6     8   ar
    22     8    27    1
    23    27    28    2
    24    27    29    1
    25     8     9   ar
    26     9    10   ar
    27    14    17    1
    28    17    18    1
    29    18    11    1
    30    10     1   ar
    31     9     3   ar
@<TRIPOS>MOLECULE
*****
 29 31 0 0 0
SMALL
GASTEIGER

@<TRIPOS>ATOM
      1 C           2.5288    1.6960   19.2188 C.ar    1  UNL1        0.1644
      2 N           2.6816    0.5776   18.2311 N.ar    1  UNL1       -0.2335
      3 C           3.2068   -0.6205   18.9651 C.ar    1  UNL1        0.0939
      4 C           3.5508   -2.0068   18.5072 C.ar    1  UNL1        0.0236
      5 C           4.0666   -3.0152   19.4908 C.ar    1  UNL1        0.0749
      6 C           4.2383   -2.6371   20.9321 C.ar    1  UNL1        0.0520
      7 C           4.7541   -3.6455   21.9156 C.3     1  UNL1        0.0374
      8 C           3.8943   -1.2508   21.3900 C.ar    1  UNL1        0.2931
      9 C           3.3785   -0.2425   20.4065 C.ar    1  UNL1        0.1175
     10 S           2.9595    1.1892   20.5633 S.2     1  UNL1       -0.0559
     11 N          -2.1439    4.2773   20.0869 N.3     1  UNL1       -0.2676
     12 C          -1.6475    2.8947   20.3904 C.3     1  UNL1        0.0940
     13 C          -0.2553    2.4952   19.9998 C.3     1  UNL1        0.1111
     14 N           0.6403    3.4782   19.3059 N.am    1  UNL1       -0.2716
     15 C           2.0324    3.0786   18.9154 C.2     1  UNL1        0.2731
     16 O           2.9280    4.0616   18.2215 O.2     1  UNL1       -0.2677
     17 C           0.1438    4.8608   19.0025 C.3     1  UNL1        0.1111
     18 C          -1.2482    5.2603   19.3930 C.3     1  UNL1        0.0940
     19 C          -3.5359    4.6769   20.4774 C.3     1  UNL1        0.1046
     20 C          -4.6355    3.6566   20.4826 C.3     1  UNL1        0.1595
     21 C          -4.9315    3.0813   22.9988 C.3     1  UNL1        0.1742
     22 O          -4.7098    2.6396   21.5826 O.3     1  UNL1       -0.3496
     23 C           4.4106   -4.4016   19.0328 C.3     1  UNL1        0.4185
     24 F           4.7547   -5.7879   18.5749 F       1  UNL1       -0.1659
     25 F           5.8290   -3.9727   18.7999 F       1  UNL1       -0.1659
     26 F           2.9923   -4.8304   19.2658 F       1  UNL1       -0.1659
     27 N           4.0661   -0.8728   22.8314 N.pl3   1  UNL1        0.0811
     28 O           5.4245   -0.5121   23.3554 O.2     1  UNL1        0.0415
     29 O           2.8793   -0.8555   23.7488 O.co2   1  UNL1       -0.5760
@<TRIPOS>UNITY_ATOM_ATTR
27 1
charge 1
29 1
charge -1
@<TRIPOS>BOND
     1    21    22    1
     2    22    20    1
     3    20    19    1
     4    19    11    1
     5    11    12    1
     6    12    13    1
     7    13    14    1
     8    14    15   am
     9    15    16    2
    10    15     1    1
    11     1     2   ar
    12     2     3   ar
    13     3     4   ar
    14     4     5   ar
    15     5    23    1
    16    23    24    1
    17    23    25    1
    18    23    26    1
    19     5     6   ar
    20     6     7    1
    21     6     8   ar
    22     8    27    1
    23    27    28    2
    24    27    29    1
    25     8     9   ar
    26     9    10   ar
    27    14    17    1
    28    17    18    1
    29    18    11    1
    30    10     1   ar
    31     9     3   ar
@<TRIPOS>MOLECULE
*****
 29 31 0 0 0
SMALL
GASTEIGER

@<TRIPOS>ATOM
      1 C           6.4113   -3.7993   22.4731 C.ar    1  UNL1        0.1644
      2 N           5.0453   -3.3398   22.8890 N.ar    1  UNL1       -0.2335
      3 C           4.5396   -2.3870   21.8467 C.ar    1  UNL1        0.0939
      4 C           3.2559   -1.6204   21.7260 C.ar    1  UNL1        0.0236
      5 C           3.0257   -0.7245   20.5451 C.ar    1  UNL1        0.0749
      6 C           4.0790   -0.5952   19.4851 C.ar    1  UNL1        0.0520
      7 C           3.8488    0.3008   18.3042 C.3     1  UNL1        0.0374
      8 C           5.3627   -1.3617   19.6058 C.ar    1  UNL1        0.2931
      9 C           5.5930   -2.2576   20.7866 C.ar    1  UNL1        0.1175
     10 S           6.7497   -3.1306   21.1738 S.2     1  UNL1       -0.0559
     11 N           7.5470   -4.5248   27.7108 N.3     1  UNL1       -0.2676
     12 C           6.6729   -3.5649   26.9594 C.3     1  UNL1        0.0940
     13 C           6.5857   -3.6431   25.4639 C.3     1  UNL1        0.1111
     14 N           7.3726   -4.6811   24.7199 N.am    1  UNL1       -0.2716
     15 C           7.2854   -4.7592   23.2245 C.2     1  UNL1        0.2731
     16 O           8.0722   -5.7972   22.4806 O.2     1  UNL1       -0.2677
     17 C           8.2467   -5.6409   25.4715 C.3     1  UNL1        0.1111
     18 C           8.3338   -5.5627   26.9669 C.3     1  UNL1        0.0940
     19 C           7.6342   -4.4467   29.2062 C.3     1  UNL1        0.1046
     20 C           6.9499   -5.4791   30.0523 C.3     1  UNL1        0.1595
     21 C           6.6429   -3.9392   32.1223 C.3     1  UNL1        0.1742
     22 O           6.8774   -5.3016   31.5400 O.3     1  UNL1       -0.3496
     23 C           1.7420    0.0422   20.4243 C.3     1  UNL1        0.4185
     24 F           0.4583    0.8087   20.3035 F       1  UNL1       -0.1659
     25 F           1.0917   -1.1478   19.7831 F       1  UNL1       -0.1659
     26 F           2.3923    1.2320   21.0655 F       1  UNL1       -0.1659
     27 N           6.4160   -1.2324   18.5458 N.pl3   1  UNL1        0.0811
     28 O           7.3307   -0.0435   18.5384 O.2     1  UNL1        0.0415
     29 O           6.5548   -2.2920   17.4930 O.co2   1  UNL1       -0.5760
@<TRIPOS>UNITY_ATOM_ATTR
27 1
charge 1
29 1
charge -1
@<TRIPOS>BOND
     1    21    22    1
     2    22    20    1
     3    20    19    1
     4    19    11    1
     5    11    12    1
     6    12    13    1
     7    13    14    1
     8    14    15   am
     9    15    16    2
    10    15     1    1
    11     1     2   ar
    12     2     3   ar
    13     3     4   ar
    14     4     5   ar
    15     5    23    1
    16    23    24    1
    17    23    25    1
    18    23    26    1
    19     5     6   ar
    20     6     7    1
    21     6     8   ar
    22     8    27    1
    23    27    28    2
    24    27    29    1
    25     8     9   ar
    26     9    10   ar
    27    14    17    1
    28    17    18    1
    29    18    11    1
    30    10     1   ar
    31     9     3   ar
@<TRIPOS>MOLECULE
*****
 29 31 0 0 0
SMALL
GASTEIGER

@<TRIPOS>ATOM
      1 C          -7.0906  -20.0506   21.0188 C.ar    1  UNL1        0.1644
      2 N          -7.9820  -19.2586   20.1088 N.ar    1  UNL1       -0.2335
      3 C          -9.1551  -18.7791   20.9112 C.ar    1  UNL1        0.0939
      4 C         -10.3533  -17.9552   20.5433 C.ar    1  UNL1        0.0236
      5 C         -11.3851  -17.6268   21.5814 C.ar    1  UNL1        0.0749
      6 C         -11.2187  -18.1224   22.9873 C.ar    1  UNL1        0.0520
      7 C         -12.2506  -17.7941   24.0254 C.3     1  UNL1        0.0374
      8 C         -10.0205  -18.9464   23.3552 C.ar    1  UNL1        0.2931
      9 C          -8.9887  -19.2747   22.3172 C.ar    1  UNL1        0.1175
     10 S          -7.7127  -20.0605   22.3837 S.2     1  UNL1       -0.0559
     11 N          -1.9102  -18.4972   21.0487 N.3     1  UNL1       -0.2676
     12 C          -3.1978  -17.8320   21.4356 C.3     1  UNL1        0.0940
     13 C          -4.4954  -18.5716   21.2967 C.3     1  UNL1        0.1111
     14 N          -4.5055  -19.9764   20.7709 N.am    1  UNL1       -0.2716
     15 C          -5.8031  -20.7159   20.6319 C.2     1  UNL1        0.2731
     16 O          -5.8131  -22.1207   20.1061 O.2     1  UNL1       -0.2677
     17 C          -3.2178  -20.6416   20.3840 C.3     1  UNL1        0.1111
     18 C          -1.9203  -19.9020   20.5230 C.3     1  UNL1        0.0940
     19 C          -0.6126  -17.7577   21.1877 C.3     1  UNL1        0.1046
     20 C           0.1408  -17.3287   19.9637 C.3     1  UNL1        0.1595
     21 C          -1.5830  -17.5523   18.0328 C.3     1  UNL1        0.1742
     22 O          -0.2402  -17.8733   18.6190 O.3     1  UNL1       -0.3496
     23 C         -12.5834  -16.8029   21.2135 C.3     1  UNL1        0.4185
     24 F         -13.7817  -15.9789   20.8455 F       1  UNL1       -0.1659
     25 F         -13.4532  -18.0203   21.3196 F       1  UNL1       -0.1659
     26 F         -11.7136  -15.5854   21.1074 F       1  UNL1       -0.1659
     27 N          -9.8541  -19.4419   24.7612 N.pl3   1  UNL1        0.0811
     28 O          -9.5843  -18.4706   25.8718 O.2     1  UNL1        0.0415
     29 O          -9.9576  -20.9090   25.0565 O.co2   1  UNL1       -0.5760
@<TRIPOS>UNITY_ATOM_ATTR
27 1
charge 1
29 1
charge -1
@<TRIPOS>BOND
     1    21    22    1
     2    22    20    1
     3    20    19    1
     4    19    11    1
     5    11    12    1
     6    12    13    1
     7    13    14    1
     8    14    15   am
     9    15    16    2
    10    15     1    1
    11     1     2   ar
    12     2     3   ar
    13     3     4   ar
    14     4     5   ar
    15     5    23    1
    16    23    24    1
    17    23    25    1
    18    23    26    1
    19     5     6   ar
    20     6     7    1
    21     6     8   ar
    22     8    27    1
    23    27    28    2
    24    27    29    1
    25     8     9   ar
    26     9    10   ar
    27    14    17    1
    28    17    18    1
    29    18    11    1
    30    10     1   ar
    31     9     3   ar
@<TRIPOS>MOLECULE
*****
 29 31 0 0 0
SMALL
GASTEIGER

@<TRIPOS>ATOM
      1 C           1.7290    0.9909   21.0688 C.ar    1  UNL1        0.1644
      2 N           1.3840   -0.3162   20.4189 N.ar    1  UNL1       -0.2335
      3 C           2.6571   -1.0826   20.2148 C.ar    1  UNL1        0.0939
      4 C           2.9320   -2.4318   19.6196 C.ar    1  UNL1        0.0236
      5 C           4.3388   -2.9475   19.5482 C.ar    1  UNL1        0.0749
      6 C           5.4706   -2.1141   20.0719 C.ar    1  UNL1        0.0520
      7 C           6.8774   -2.6297   20.0005 C.3     1  UNL1        0.0374
      8 C           5.1957   -0.7649   20.6670 C.ar    1  UNL1        0.2931
      9 C           3.7890   -0.2492   20.7384 C.ar    1  UNL1        0.1175
     10 S           3.2154    1.0324   21.2663 S.2     1  UNL1       -0.0559
     11 N          -0.7518    2.3283   25.6847 N.3     1  UNL1       -0.2676
     12 C           0.2191    1.2516   25.2999 C.3     1  UNL1        0.0940
     13 C           0.7224    1.1648   23.8895 C.3     1  UNL1        0.1111
     14 N           0.2548    2.1546   22.8639 N.am    1  UNL1       -0.2716
     15 C           0.7581    2.0676   21.4536 C.2     1  UNL1        0.2731
     16 O           0.2905    3.0574   20.4281 O.2     1  UNL1       -0.2677
     17 C          -0.7161    3.2313   23.2489 C.3     1  UNL1        0.1111
     18 C          -1.2194    3.3181   24.6592 C.3     1  UNL1        0.0940
     19 C          -1.2551    2.4153   27.0951 C.3     1  UNL1        0.1046
     20 C          -0.3011    2.2633   28.2426 C.3     1  UNL1        0.1595
     21 C           0.3887   -0.1535   28.9007 C.3     1  UNL1        0.1742
     22 O          -0.4165    1.0846   29.1629 O.3     1  UNL1       -0.3496
     23 C           4.6137   -4.2967   18.9531 C.3     1  UNL1        0.4185
     24 F           4.8886   -5.6459   18.3580 F       1  UNL1       -0.1659
     25 F           5.2409   -3.6419   17.7582 F       1  UNL1       -0.1659
     26 F           3.9865   -4.9515   20.1480 F       1  UNL1       -0.1659
     27 N           6.3276    0.0686   21.1907 N.pl3   1  UNL1        0.0811
     28 O           7.0329    1.0314   20.2822 O.2     1  UNL1        0.0415
     29 O           6.7542   -0.0609   22.6230 O.co2   1  UNL1       -0.5760
@<TRIPOS>UNITY_ATOM_ATTR
27 1
charge 1
29 1
charge -1
@<TRIPOS>BOND
     1    21    22    1
     2    22    20    1
     3    20    19    1
     4    19    11    1
     5    11    12    1
     6    12    13    1
     7    13    14    1
     8    14    15   am
     9    15    16    2
    10    15     1    1
    11     1     2   ar
    12     2     3   ar
    13     3     4   ar
    14     4     5   ar
    15     5    23    1
    16    23    24    1
    17    23    25    1
    18    23    26    1
    19     5     6   ar
    20     6     7    1
    21     6     8   ar
    22     8    27    1
    23    27    28    2
    24    27    29    1
    25     8     9   ar
    26     9    10   ar
    27    14    17    1
    28    17    18    1
    29    18    11    1
    30    10     1   ar
    31     9     3   ar
@<TRIPOS>MOLECULE
*****
 29 31 0 0 0
SMALL
GASTEIGER

@<TRIPOS>ATOM
      1 C           7.3433   -3.0817   24.4007 C.ar    1  UNL1        0.1644
      2 N           6.0217   -3.7251   24.1018 N.ar    1  UNL1       -0.2335
      3 C           5.7616   -3.5880   22.6309 C.ar    1  UNL1        0.0939
      4 C           4.6176   -4.0321   21.7684 C.ar    1  UNL1        0.0236
      5 C           4.6346   -3.7481   20.2955 C.ar    1  UNL1        0.0749
      6 C           5.7954   -3.0201   19.6854 C.ar    1  UNL1        0.0520
      7 C           5.8124   -2.7361   18.2126 C.3     1  UNL1        0.0374
      8 C           6.9394   -2.5760   20.5480 C.ar    1  UNL1        0.2931
      9 C           6.9225   -2.8600   22.0208 C.ar    1  UNL1        0.1175
     10 S           7.9001   -2.5471   23.1146 S.2     1  UNL1       -0.0559
     11 N           5.6275   -1.5495   29.2955 N.3     1  UNL1       -0.2676
     12 C           4.9768   -1.6420   27.9471 C.3     1  UNL1        0.0940
     13 C           5.7657   -2.1219   26.7650 C.3     1  UNL1        0.1111
     14 N           7.2053   -2.5094   26.9312 N.am    1  UNL1       -0.2716
     15 C           7.9941   -2.9893   25.7491 C.2     1  UNL1        0.2731
     16 O           9.4336   -3.3767   25.9153 O.2     1  UNL1       -0.2677
     17 C           7.8559   -2.4169   28.2796 C.3     1  UNL1        0.1111
     18 C           7.0670   -1.9370   29.4617 C.3     1  UNL1        0.0940
     19 C           4.8387   -1.0696   30.4776 C.3     1  UNL1        0.1046
     20 C           4.9279   -1.7994   31.7850 C.3     1  UNL1        0.1595
     21 C           4.2941   -1.3610   34.2662 C.3     1  UNL1        0.1742
     22 O           3.8845   -1.5791   32.8398 O.3     1  UNL1       -0.3496
     23 C           3.4906   -4.1922   19.4328 C.3     1  UNL1        0.4185
     24 F           2.3466   -4.6363   18.5702 F       1  UNL1       -0.1659
     25 F           4.1641   -5.5156   19.2209 F       1  UNL1       -0.1659
     26 F           2.8171   -2.8688   19.6448 F       1  UNL1       -0.1659
     27 N           8.1003   -1.8480   19.9378 N.pl3   1  UNL1        0.0811
     28 O           8.1768   -0.3524   20.0241 O.2     1  UNL1        0.0415
     29 O           9.1847   -2.6156   19.2413 O.co2   1  UNL1       -0.5760
@<TRIPOS>UNITY_ATOM_ATTR
27 1
charge 1
29 1
charge -1
@<TRIPOS>BOND
     1    21    22    1
     2    22    20    1
     3    20    19    1
     4    19    11    1
     5    11    12    1
     6    12    13    1
     7    13    14    1
     8    14    15   am
     9    15    16    2
    10    15     1    1
    11     1     2   ar
    12     2     3   ar
    13     3     4   ar
    14     4     5   ar
    15     5    23    1
    16    23    24    1
    17    23    25    1
    18    23    26    1
    19     5     6   ar
    20     6     7    1
    21     6     8   ar
    22     8    27    1
    23    27    28    2
    24    27    29    1
    25     8     9   ar
    26     9    10   ar
    27    14    17    1
    28    17    18    1
    29    18    11    1
    30    10     1   ar
    31     9     3   ar
@<TRIPOS>MOLECULE
*****
 29 31 0 0 0
SMALL
GASTEIGER

@<TRIPOS>ATOM
      1 C           7.2100   -3.5710   20.9570 C.ar    1  UNL1        0.1644
      2 N           5.7511   -3.6606   20.6202 N.ar    1  UNL1       -0.2335
      3 C           5.3303   -2.3475   20.0298 C.ar    1  UNL1        0.0939
      4 C           4.0103   -1.8559   19.5141 C.ar    1  UNL1        0.0236
      5 C           3.8892   -0.4631   18.9703 C.ar    1  UNL1        0.0749
      6 C           5.0880    0.4379   18.9423 C.ar    1  UNL1        0.0520
      7 C           4.9669    1.8307   18.3986 C.3     1  UNL1        0.0374
      8 C           6.4079   -0.0536   19.4580 C.ar    1  UNL1        0.2931
      9 C           6.5291   -1.4463   20.0018 C.ar    1  UNL1        0.1175
     10 S           7.6909   -2.2026   20.5748 S.2     1  UNL1       -0.0559
     11 N           7.5926   -5.6498   25.9352 N.3     1  UNL1       -0.2676
     12 C           6.7606   -4.5619   25.3236 C.3     1  UNL1        0.0940
     13 C           6.9104   -4.2317   23.8680 C.3     1  UNL1        0.1111
     14 N           7.8923   -4.9892   23.0242 N.am    1  UNL1       -0.2716
     15 C           8.0421   -4.6589   21.5687 C.2     1  UNL1        0.2731
     16 O           9.0239   -5.4165   20.7249 O.2     1  UNL1       -0.2677
     17 C           8.7243   -6.0772   23.6360 C.3     1  UNL1        0.1111
     18 C           8.5745   -6.4074   25.0914 C.3     1  UNL1        0.0940
     19 C           7.4428   -5.9801   27.3907 C.3     1  UNL1        0.1046
     20 C           6.3974   -5.2871   28.2133 C.3     1  UNL1        0.1595
     21 C           7.6555   -5.9460   30.3889 C.3     1  UNL1        0.1742
     22 O           6.4572   -5.3508   29.7107 O.3     1  UNL1       -0.3496
     23 C           2.5691    0.0285   18.4546 C.3     1  UNL1        0.4185
     24 F           1.2491    0.5201   17.9389 F       1  UNL1       -0.1659
     25 F           2.2028    0.4914   19.8335 F       1  UNL1       -0.1659
     26 F           2.9356   -0.4344   17.0757 F       1  UNL1       -0.1659
     27 N           7.6068    0.8475   19.4300 N.pl3   1  UNL1        0.0811
     28 O           7.9630    1.6597   20.6397 O.2     1  UNL1        0.0415
     29 O           8.4494    0.9364   18.1921 O.co2   1  UNL1       -0.5760
@<TRIPOS>UNITY_ATOM_ATTR
27 1
charge 1
29 1
charge -1
@<TRIPOS>BOND
     1    21    22    1
     2    22    20    1
     3    20    19    1
     4    19    11    1
     5    11    12    1
     6    12    13    1
     7    13    14    1
     8    14    15   am
     9    15    16    2
    10    15     1    1
    11     1     2   ar
    12     2     3   ar
    13     3     4   ar
    14     4     5   ar
    15     5    23    1
    16    23    24    1
    17    23    25    1
    18    23    26    1
    19     5     6   ar
    20     6     7    1
    21     6     8   ar
    22     8    27    1
    23    27    28    2
    24    27    29    1
    25     8     9   ar
    26     9    10   ar
    27    14    17    1
    28    17    18    1
    29    18    11    1
    30    10     1   ar
    31     9     3   ar
@<TRIPOS>MOLECULE
*****
 29 31 0 0 0
SMALL
GASTEIGER

@<TRIPOS>ATOM
      1 C           2.7308    0.3436   23.5011 C.ar    1  UNL1        0.1644
      2 N           3.0982   -1.1043   23.3648 N.ar    1  UNL1       -0.2335
      3 C           3.3753   -1.3777   21.9162 C.ar    1  UNL1        0.0939
      4 C           3.7808   -2.6261   21.1902 C.ar    1  UNL1        0.0236
      5 C           3.9903   -2.5955   19.7051 C.ar    1  UNL1        0.0749
      6 C           3.7942   -1.3167   18.9463 C.ar    1  UNL1        0.0520
      7 C           4.0037   -1.2861   17.4612 C.3     1  UNL1        0.0374
      8 C           3.3886   -0.0683   19.6723 C.ar    1  UNL1        0.2931
      9 C           3.1792   -0.0988   21.1573 C.ar    1  UNL1        0.1175
     10 S           2.7809    0.9650   22.1368 S.2     1  UNL1       -0.0559
     11 N           4.7212    0.2216   28.5284 N.3     1  UNL1       -0.2676
     12 C           5.0763   -0.4815   27.2519 C.3     1  UNL1        0.0940
     13 C           4.2944   -0.2064   26.0016 C.3     1  UNL1        0.1111
     14 N           3.1575    0.7717   26.0279 N.am    1  UNL1       -0.2716
     15 C           2.3757    1.0468   24.7777 C.2     1  UNL1        0.2731
     16 O           1.2388    2.0249   24.8039 O.2     1  UNL1       -0.2677
     17 C           2.8025    1.4748   27.3045 C.3     1  UNL1        0.1111
     18 C           3.5843    1.1997   28.5547 C.3     1  UNL1        0.0940
     19 C           5.5030   -0.0535   29.7787 C.3     1  UNL1        0.1046
     20 C           5.2909   -1.3348   30.5292 C.3     1  UNL1        0.1595
     21 C           4.7200   -2.4470   32.8067 C.3     1  UNL1        0.1742
     22 O           4.5338   -1.3291   31.8240 O.3     1  UNL1       -0.3496
     23 C           4.3959   -3.8439   18.9791 C.3     1  UNL1        0.4185
     24 F           4.8014   -5.0922   18.2530 F       1  UNL1       -0.1659
     25 F           2.9543   -4.2384   18.8521 F       1  UNL1       -0.1659
     26 F           5.8374   -3.4493   19.1060 F       1  UNL1       -0.1659
     27 N           3.1925    1.2106   18.9133 N.pl3   1  UNL1        0.0811
     28 O           1.8561    1.5276   18.3106 O.2     1  UNL1        0.0415
     29 O           4.3330    2.1724   18.7571 O.co2   1  UNL1       -0.5760
@<TRIPOS>UNITY_ATOM_ATTR
27 1
charge 1
29 1
charge -1
@<TRIPOS>BOND
     1    21    22    1
     2    22    20    1
     3    20    19    1
     4    19    11    1
     5    11    12    1
     6    12    13    1
     7    13    14    1
     8    14    15   am
     9    15    16    2
    10    15     1    1
    11     1     2   ar
    12     2     3   ar
    13     3     4   ar
    14     4     5   ar
    15     5    23    1
    16    23    24    1
    17    23    25    1
    18    23    26    1
    19     5     6   ar
    20     6     7    1
    21     6     8   ar
    22     8    27    1
    23    27    28    2
    24    27    29    1
    25     8     9   ar
    26     9    10   ar
    27    14    17    1
    28    17    18    1
    29    18    11    1
    30    10     1   ar
    31     9     3   ar
