@<TRIPOS>MOLECULE
*****
 31 34 0 0 0
SMALL
GASTEIGER

@<TRIPOS>ATOM
      1 C           8.2471   -5.8169   24.3947 C.ar    1  UNL1        0.1104
      2 C           9.1862   -6.9801   24.2714 C.ar    1  UNL1        0.0185
      3 C           9.1290   -8.0992   25.2685 C.ar    1  UNL1       -0.0013
      4 C           8.1327   -8.0552   26.3890 C.ar    1  UNL1       -0.0025
      5 C           7.1937   -6.8920   26.5124 C.ar    1  UNL1       -0.0013
      6 C           7.2509   -5.7729   25.5152 C.ar    1  UNL1        0.0185
      7 S           8.3043   -4.6978   23.3976 S.O2    1  UNL1        0.0305
      8 O           8.1790   -3.6999   24.5104 O.2     1  UNL1       -0.1641
      9 O           8.4296   -5.6957   22.2848 O.2     1  UNL1       -0.1641
     10 N           7.9267   -2.1991   20.4515 N.ar    1  UNL1       -0.2500
     11 C           7.5492   -3.4752   21.1437 C.ar    1  UNL1        0.1153
     12 C           8.3615   -3.5787   22.4005 C.ar    1  UNL1        0.1497
     13 C           9.2411   -2.3666   22.4850 C.ar    1  UNL1        0.1404
     14 N           8.9724   -1.5140   21.2806 N.ar    1  UNL1       -0.1663
     15 C           7.8438   -0.4007   18.5783 C.3     1  UNL1        0.0263
     16 C           7.3584   -1.6965   19.1576 C.3     1  UNL1        0.1054
     17 C           6.3048   -2.4895   18.4429 C.3     1  UNL1        0.0263
     18 C           8.0756   -9.1744   27.3862 C.3     1  UNL1        0.1167
     19 N           6.8022   -9.9436   27.5780 N.am    1  UNL1       -0.2944
     20 C           6.8518  -11.4057   27.9089 C.2     1  UNL1        0.2808
     21 O           8.1748  -12.0987   28.0479 O.2     1  UNL1       -0.2668
     22 H           5.9338   -9.4887   27.4868 H       1  UNL1        0.1501
     23 C           5.5784  -12.1749   28.1008 C.ar    1  UNL1        0.1984
     24 C           4.4703  -11.8234   29.0487 C.ar    1  UNL1        0.0453
     25 C           3.3966  -12.8619   28.9122 C.ar    1  UNL1        0.0409
     26 C           2.0715  -13.0314   29.5945 C.ar    1  UNL1        0.0238
     27 C           1.1910  -14.1942   29.2445 C.ar    1  UNL1        0.0991
     28 N           1.6355  -15.1875   28.2122 N.ar    1  UNL1       -0.2391
     29 C           2.9606  -15.0181   27.5299 C.ar    1  UNL1        0.1362
     30 C           3.8411  -13.8553   27.8799 C.ar    1  UNL1        0.1646
     31 O           5.1895  -13.4307   27.3785 O.2     1  UNL1       -0.4473
@<TRIPOS>BOND
     1    15    16    1
     2    16    17    1
     3    16    10    1
     4    10    11   ar
     5    11    12   ar
     6    12     7    1
     7     7     8    2
     8     7     9    2
     9     7     1    1
    10     1     2   ar
    11     2     3   ar
    12     3     4   ar
    13     4    18    1
    14    18    19    1
    15    19    20   am
    16    20    21    2
    17    20    23    1
    18    23    24   ar
    19    24    25   ar
    20    25    26   ar
    21    26    27   ar
    22    27    28   ar
    23    28    29   ar
    24    29    30   ar
    25    30    31   ar
    26     4     5   ar
    27     5     6   ar
    28    12    13   ar
    29    13    14   ar
    30    14    10   ar
    31     6     1   ar
    32    31    23   ar
    33    30    25   ar
    34    19    22    1
@<TRIPOS>MOLECULE
*****
 31 34 0 0 0
SMALL
GASTEIGER

@<TRIPOS>ATOM
      1 C           8.5234   -5.9246   26.4909 C.ar    1  UNL1        0.1104
      2 C           7.5168   -6.8043   25.8104 C.ar    1  UNL1        0.0185
      3 C           7.3117   -8.2133   26.2819 C.ar    1  UNL1       -0.0013
      4 C           8.1132   -8.7429   27.4340 C.ar    1  UNL1       -0.0025
      5 C           9.1198   -7.8633   28.1145 C.ar    1  UNL1       -0.0013
      6 C           9.3249   -6.4542   27.6430 C.ar    1  UNL1        0.0185
      7 S           8.7285   -4.5155   26.0194 S.O2    1  UNL1        0.0305
      8 O           9.4115   -4.1822   27.3126 O.2     1  UNL1       -0.1641
      9 O           8.0455   -4.8489   24.7262 O.2     1  UNL1       -0.1641
     10 N           8.9645   -0.6809   25.4668 N.ar    1  UNL1       -0.2500
     11 C           8.5935   -1.8622   26.3135 C.ar    1  UNL1        0.1153
     12 C           8.9336   -3.1065   25.5479 C.ar    1  UNL1        0.1497
     13 C           9.5147   -2.6942   24.2279 C.ar    1  UNL1        0.1404
     14 N           9.5338   -1.1952   24.1778 N.ar    1  UNL1       -0.1663
     15 C           9.1360    1.8385   24.8561 C.3     1  UNL1        0.0263
     16 C           8.7958    0.7613   25.8429 C.3     1  UNL1        0.1054
     17 C           8.2868    1.1263   27.2058 C.3     1  UNL1        0.0263
     18 C           7.9081  -10.1520   27.9055 C.3     1  UNL1        0.1167
     19 N           6.5294  -10.7426   27.9267 N.am    1  UNL1       -0.2944
     20 C           6.3377  -12.1873   28.2815 C.2     1  UNL1        0.2808
     21 O           7.5247  -13.0416   28.6149 O.2     1  UNL1       -0.2668
     22 H           5.7503  -10.1819   27.7079 H       1  UNL1        0.1501
     23 C           4.9590  -12.7779   28.3027 C.ar    1  UNL1        0.1984
     24 C           3.6818  -12.0273   28.5382 C.ar    1  UNL1        0.0453
     25 C           2.5489  -13.0082   28.4732 C.ar    1  UNL1        0.0409
     26 C           1.0664  -12.8412   28.6295 C.ar    1  UNL1        0.0238
     27 C           0.1610  -14.0310   28.5100 C.ar    1  UNL1        0.0991
     28 N           0.7379  -15.3879   28.2344 N.ar    1  UNL1       -0.2391
     29 C           2.2203  -15.5549   28.0782 C.ar    1  UNL1        0.1362
     30 C           3.1258  -14.3651   28.1976 C.ar    1  UNL1        0.1646
     31 O           4.6153  -14.2227   28.0922 O.2     1  UNL1       -0.4473
@<TRIPOS>BOND
     1    15    16    1
     2    16    17    1
     3    16    10    1
     4    10    11   ar
     5    11    12   ar
     6    12     7    1
     7     7     8    2
     8     7     9    2
     9     7     1    1
    10     1     2   ar
    11     2     3   ar
    12     3     4   ar
    13     4    18    1
    14    18    19    1
    15    19    20   am
    16    20    21    2
    17    20    23    1
    18    23    24   ar
    19    24    25   ar
    20    25    26   ar
    21    26    27   ar
    22    27    28   ar
    23    28    29   ar
    24    29    30   ar
    25    30    31   ar
    26     4     5   ar
    27     5     6   ar
    28    12    13   ar
    29    13    14   ar
    30    14    10   ar
    31     6     1   ar
    32    31    23   ar
    33    30    25   ar
    34    19    22    1
@<TRIPOS>MOLECULE
*****
 31 34 0 0 0
SMALL
GASTEIGER

@<TRIPOS>ATOM
      1 C         -13.7402   -1.1985   18.8919 C.ar    1  UNL1        0.1104
      2 C         -13.4899    0.1843   18.3672 C.ar    1  UNL1        0.0185
      3 C         -14.4984    1.2695   18.6021 C.ar    1  UNL1       -0.0013
      4 C         -15.7572    0.9720   19.3615 C.ar    1  UNL1       -0.0025
      5 C         -16.0076   -0.4108   19.8862 C.ar    1  UNL1       -0.0013
      6 C         -14.9990   -1.4961   19.6513 C.ar    1  UNL1        0.0185
      7 S         -12.7317   -2.2837   18.6570 S.O2    1  UNL1        0.0305
      8 O         -13.8360   -3.2311   18.2925 O.2     1  UNL1       -0.1641
      9 O         -11.6274   -1.3363   19.0215 O.2     1  UNL1       -0.1641
     10 N         -10.7124   -5.5547   18.1200 N.ar    1  UNL1       -0.2500
     11 C         -12.0061   -4.8414   18.3800 C.ar    1  UNL1        0.1153
     12 C         -11.7232   -3.3689   18.4221 C.ar    1  UNL1        0.1497
     13 C         -10.2547   -3.1722   18.1882 C.ar    1  UNL1        0.1404
     14 N          -9.6300   -4.5231   18.0014 N.ar    1  UNL1       -0.1663
     15 C          -9.4563   -7.7302   18.7831 C.3     1  UNL1        0.0263
     16 C         -10.5327   -7.0391   17.9997 C.3     1  UNL1        0.1054
     17 C         -11.4294   -7.8323   17.0961 C.3     1  UNL1        0.0263
     18 C         -16.7658    2.0573   19.5964 C.3     1  UNL1        0.1167
     19 N         -16.9792    2.5961   20.9799 N.am    1  UNL1       -0.2944
     20 C         -16.0709    3.6615   21.5182 C.2     1  UNL1        0.2808
     21 O         -14.9492    4.1881   20.6730 O.2     1  UNL1       -0.2668
     22 H         -17.7155    2.2505   21.5346 H       1  UNL1        0.1501
     23 C         -16.2844    4.2004   22.9017 C.ar    1  UNL1        0.1984
     24 C         -15.2122    4.4930   23.9091 C.ar    1  UNL1        0.0453
     25 C         -15.8726    5.0147   25.1507 C.ar    1  UNL1        0.0409
     26 C         -15.3173    5.4665   26.4688 C.ar    1  UNL1        0.0238
     27 C         -16.2423    5.9480   27.5470 C.ar    1  UNL1        0.0991
     28 N         -17.7227    5.9778   27.3070 N.ar    1  UNL1       -0.2391
     29 C         -18.2781    5.5261   25.9888 C.ar    1  UNL1        0.1362
     30 C         -17.3530    5.0445   24.9107 C.ar    1  UNL1        0.1646
     31 O         -17.6075    4.5412   23.5208 O.2     1  UNL1       -0.4473
@<TRIPOS>BOND
     1    15    16    1
     2    16    17    1
     3    16    10    1
     4    10    11   ar
     5    11    12   ar
     6    12     7    1
     7     7     8    2
     8     7     9    2
     9     7     1    1
    10     1     2   ar
    11     2     3   ar
    12     3     4   ar
    13     4    18    1
    14    18    19    1
    15    19    20   am
    16    20    21    2
    17    20    23    1
    18    23    24   ar
    19    24    25   ar
    20    25    26   ar
    21    26    27   ar
    22    27    28   ar
    23    28    29   ar
    24    29    30   ar
    25    30    31   ar
    26     4     5   ar
    27     5     6   ar
    28    12    13   ar
    29    13    14   ar
    30    14    10   ar
    31     6     1   ar
    32    31    23   ar
    33    30    25   ar
    34    19    22    1
@<TRIPOS>MOLECULE
*****
 31 34 0 0 0
SMALL
GASTEIGER

@<TRIPOS>ATOM
      1 C           2.9117   -0.9078   21.2391 C.ar    1  UNL1        0.1104
      2 C           2.3999   -0.9084   19.8291 C.ar    1  UNL1        0.0185
      3 C           1.3448    0.0735   19.4137 C.ar    1  UNL1       -0.0013
      4 C           0.8015    1.0562   20.4083 C.ar    1  UNL1       -0.0025
      5 C           1.3132    1.0569   21.8183 C.ar    1  UNL1       -0.0013
      6 C           2.3684    0.0749   22.2337 C.ar    1  UNL1        0.0185
      7 S           3.9667   -1.8897   21.6545 S.O2    1  UNL1        0.0305
      8 O           4.2668   -2.1770   20.2132 O.2     1  UNL1       -0.1641
      9 O           3.6667   -1.6024   23.0958 O.2     1  UNL1       -0.1641
     10 N           6.4786   -4.2572   23.4295 N.ar    1  UNL1       -0.2500
     11 C           5.3721   -3.2457   23.4796 C.ar    1  UNL1        0.1153
     12 C           5.0218   -2.8716   22.0699 C.ar    1  UNL1        0.1497
     13 C           5.9118   -3.6519   21.1485 C.ar    1  UNL1        0.1404
     14 N           6.8122   -4.5082   21.9887 N.ar    1  UNL1       -0.1663
     15 C           7.9889   -6.1235   24.4226 C.3     1  UNL1        0.0263
     16 C           7.1362   -4.9041   24.6124 C.3     1  UNL1        0.1054
     17 C           6.9410   -4.3316   25.9850 C.3     1  UNL1        0.0263
     18 C          -0.2536    2.0381   19.9929 C.3     1  UNL1        0.1167
     19 N          -1.3476    2.4126   20.9484 N.am    1  UNL1       -0.2944
     20 C          -2.4796    3.2827   20.4887 C.2     1  UNL1        0.2808
     21 O          -2.5177    3.7783   19.0735 O.2     1  UNL1       -0.2668
     22 H          -1.3225    2.0873   21.8773 H       1  UNL1        0.1501
     23 C          -3.5736    3.6572   21.4443 C.ar    1  UNL1        0.1984
     24 C          -5.0421    3.6769   21.1394 C.ar    1  UNL1        0.0453
     25 C          -5.7672    4.1096   22.3791 C.ar    1  UNL1        0.0409
     26 C          -7.2248    4.3101   22.6710 C.ar    1  UNL1        0.0238
     27 C          -7.6619    4.7582   24.0341 C.ar    1  UNL1        0.0991
     28 N          -6.6415    5.0059   25.1053 N.ar    1  UNL1       -0.2391
     29 C          -5.1839    4.8055   24.8134 C.ar    1  UNL1        0.1362
     30 C          -4.7468    4.3573   23.4503 C.ar    1  UNL1        0.1646
     31 O          -3.3911    4.0777   22.8725 O.2     1  UNL1       -0.4473
@<TRIPOS>BOND
     1    15    16    1
     2    16    17    1
     3    16    10    1
     4    10    11   ar
     5    11    12   ar
     6    12     7    1
     7     7     8    2
     8     7     9    2
     9     7     1    1
    10     1     2   ar
    11     2     3   ar
    12     3     4   ar
    13     4    18    1
    14    18    19    1
    15    19    20   am
    16    20    21    2
    17    20    23    1
    18    23    24   ar
    19    24    25   ar
    20    25    26   ar
    21    26    27   ar
    22    27    28   ar
    23    28    29   ar
    24    29    30   ar
    25    30    31   ar
    26     4     5   ar
    27     5     6   ar
    28    12    13   ar
    29    13    14   ar
    30    14    10   ar
    31     6     1   ar
    32    31    23   ar
    33    30    25   ar
    34    19    22    1
@<TRIPOS>MOLECULE
*****
 31 34 0 0 0
SMALL
GASTEIGER

@<TRIPOS>ATOM
      1 C           2.3055   -0.0207   19.0601 C.ar    1  UNL1        0.1104
      2 C           2.4978   -1.1001   20.0838 C.ar    1  UNL1        0.0185
      3 C           3.5626   -2.1384   19.8880 C.ar    1  UNL1       -0.0013
      4 C           4.4351   -2.0972   18.6685 C.ar    1  UNL1       -0.0025
      5 C           4.2428   -1.0178   17.6448 C.ar    1  UNL1       -0.0013
      6 C           3.1780    0.0205   17.8406 C.ar    1  UNL1        0.0185
      7 S           1.2408    1.0175   19.2559 S.O2    1  UNL1        0.0305
      8 O           2.0086    1.9688   18.3867 O.2     1  UNL1       -0.1641
      9 O           0.4730    0.0662   20.1250 O.2     1  UNL1       -0.1641
     10 N          -1.6293    3.3563   20.4211 N.ar    1  UNL1       -0.2500
     11 C          -0.7198    2.1853   20.6478 C.ar    1  UNL1        0.1153
     12 C           0.1761    2.0557   19.4517 C.ar    1  UNL1        0.1497
     13 C          -0.1798    3.1467   18.4857 C.ar    1  UNL1        0.1404
     14 N          -1.2956    3.9505   19.0848 N.ar    1  UNL1       -0.1663
     15 C          -2.3234    4.7882   22.4749 C.3     1  UNL1        0.0263
     16 C          -2.6869    3.8470   21.3649 C.3     1  UNL1        0.1054
     17 C          -4.1079    3.3966   21.1988 C.3     1  UNL1        0.0263
     18 C           5.4998   -3.1355   18.4727 C.3     1  UNL1        0.1167
     19 N           5.9212   -4.0035   19.6213 N.am    1  UNL1       -0.2944
     20 C           6.9862   -3.5319   20.5664 C.2     1  UNL1        0.2808
     21 O           7.6299   -2.1925   20.3630 O.2     1  UNL1       -0.2668
     22 H           5.4987   -4.8826   19.7548 H       1  UNL1        0.1501
     23 C           7.4076   -4.3999   21.7149 C.ar    1  UNL1        0.1984
     24 C           7.0454   -4.1929   23.1557 C.ar    1  UNL1        0.0453
     25 C           7.6791   -5.2923   23.9556 C.ar    1  UNL1        0.0409
     26 C           7.6670   -5.6007   25.4235 C.ar    1  UNL1        0.0238
     27 C           8.4089   -6.7956   25.9449 C.ar    1  UNL1        0.0991
     28 N           9.1627   -7.6821   24.9984 N.ar    1  UNL1       -0.2391
     29 C           9.1747   -7.3737   23.5305 C.ar    1  UNL1        0.1362
     30 C           8.4329   -6.1788   23.0091 C.ar    1  UNL1        0.1646
     31 O           8.2651   -5.6272   21.6243 O.2     1  UNL1       -0.4473
@<TRIPOS>BOND
     1    15    16    1
     2    16    17    1
     3    16    10    1
     4    10    11   ar
     5    11    12   ar
     6    12     7    1
     7     7     8    2
     8     7     9    2
     9     7     1    1
    10     1     2   ar
    11     2     3   ar
    12     3     4   ar
    13     4    18    1
    14    18    19    1
    15    19    20   am
    16    20    21    2
    17    20    23    1
    18    23    24   ar
    19    24    25   ar
    20    25    26   ar
    21    26    27   ar
    22    27    28   ar
    23    28    29   ar
    24    29    30   ar
    25    30    31   ar
    26     4     5   ar
    27     5     6   ar
    28    12    13   ar
    29    13    14   ar
    30    14    10   ar
    31     6     1   ar
    32    31    23   ar
    33    30    25   ar
    34    19    22    1
@<TRIPOS>MOLECULE
*****
 31 34 0 0 0
SMALL
GASTEIGER

@<TRIPOS>ATOM
      1 C           1.1448    1.1136   28.4714 C.ar    1  UNL1        0.1104
      2 C           1.3650    2.5086   27.9657 C.ar    1  UNL1        0.0185
      3 C           0.2264    3.2757   27.3614 C.ar    1  UNL1       -0.0013
      4 C          -1.1323    2.6479   27.2626 C.ar    1  UNL1       -0.0025
      5 C          -1.3525    1.2530   27.7682 C.ar    1  UNL1       -0.0013
      6 C          -0.2139    0.4858   28.3726 C.ar    1  UNL1        0.0185
      7 S           2.2833    0.3464   29.0757 S.O2    1  UNL1        0.0305
      8 O           3.2581    1.1828   28.3010 O.2     1  UNL1       -0.1641
      9 O           1.3085   -0.4899   29.8504 O.2     1  UNL1       -0.1641
     10 N           4.8230   -1.5995   31.2730 N.ar    1  UNL1       -0.2500
     11 C           3.5235   -0.8689   31.1079 C.ar    1  UNL1        0.1153
     12 C           3.4218   -0.4207   29.6800 C.ar    1  UNL1        0.1497
     13 C           4.6586   -0.8742   28.9627 C.ar    1  UNL1        0.1404
     14 N           5.5246   -1.6028   29.9471 N.ar    1  UNL1       -0.1663
     15 C           4.7790   -1.7785   33.8645 C.3     1  UNL1        0.0263
     16 C           5.3318   -2.2182   32.5412 C.3     1  UNL1        0.1054
     17 C           6.3932   -3.2766   32.4862 C.3     1  UNL1        0.0263
     18 C          -2.2708    3.4151   26.6582 C.3     1  UNL1        0.1167
     19 N          -2.4361    3.4622   25.1681 N.am    1  UNL1       -0.2944
     20 C          -3.8093    3.5193   24.5673 C.2     1  UNL1        0.2808
     21 O          -5.0172    3.5292   25.4566 O.2     1  UNL1       -0.2668
     22 H          -1.6433    3.4557   24.5845 H       1  UNL1        0.1501
     23 C          -3.9746    3.5665   23.0772 C.ar    1  UNL1        0.1984
     24 C          -5.2522    3.3409   22.3242 C.ar    1  UNL1        0.0453
     25 C          -4.9586    3.4825   20.8601 C.ar    1  UNL1        0.0409
     26 C          -5.8313    3.3668   19.6456 C.ar    1  UNL1        0.0238
     27 C          -5.2449    3.5642   18.2792 C.ar    1  UNL1        0.0991
     28 N          -3.7858    3.8772   18.1272 N.ar    1  UNL1       -0.2391
     29 C          -2.9131    3.9929   19.3417 C.ar    1  UNL1        0.1362
     30 C          -3.4995    3.7956   20.7081 C.ar    1  UNL1        0.1646
     31 O          -2.8914    3.8474   22.0784 O.2     1  UNL1       -0.4473
@<TRIPOS>BOND
     1    15    16    1
     2    16    17    1
     3    16    10    1
     4    10    11   ar
     5    11    12   ar
     6    12     7    1
     7     7     8    2
     8     7     9    2
     9     7     1    1
    10     1     2   ar
    11     2     3   ar
    12     3     4   ar
    13     4    18    1
    14    18    19    1
    15    19    20   am
    16    20    21    2
    17    20    23    1
    18    23    24   ar
    19    24    25   ar
    20    25    26   ar
    21    26    27   ar
    22    27    28   ar
    23    28    29   ar
    24    29    30   ar
    25    30    31   ar
    26     4     5   ar
    27     5     6   ar
    28    12    13   ar
    29    13    14   ar
    30    14    10   ar
    31     6     1   ar
    32    31    23   ar
    33    30    25   ar
    34    19    22    1
@<TRIPOS>MOLECULE
*****
 31 34 0 0 0
SMALL
GASTEIGER

@<TRIPOS>ATOM
      1 C           2.4931   -0.3347   19.6543 C.ar    1  UNL1        0.1104
      2 C           2.7060    0.7289   18.6182 C.ar    1  UNL1        0.0185
      3 C           1.6969    1.8261   18.4514 C.ar    1  UNL1       -0.0013
      4 C           0.4749    1.8597   19.3207 C.ar    1  UNL1       -0.0025
      5 C           0.2621    0.7962   20.3568 C.ar    1  UNL1       -0.0013
      6 C           1.2712   -0.3011   20.5236 C.ar    1  UNL1        0.0185
      7 S           3.5022   -1.4319   19.8211 S.O2    1  UNL1        0.0305
      8 O           3.8237   -1.3587   18.3578 O.2     1  UNL1       -0.1641
      9 O           3.1807   -1.5052   21.2844 O.2     1  UNL1       -0.1641
     10 N           6.5853   -3.7104   20.4284 N.ar    1  UNL1       -0.2500
     11 C           5.9476   -2.3535   20.3834 C.ar    1  UNL1        0.1153
     12 C           4.5113   -2.5291   19.9879 C.ar    1  UNL1        0.1497
     13 C           4.2614   -3.9946   19.7884 C.ar    1  UNL1        0.1404
     14 N           5.5431   -4.7247   20.0607 N.ar    1  UNL1       -0.1663
     15 C           9.1238   -3.3438   20.0140 C.3     1  UNL1        0.0263
     16 C           8.0142   -4.0019   20.7794 C.3     1  UNL1        0.1054
     17 C           8.3335   -4.9514   21.8958 C.3     1  UNL1        0.0263
     18 C          -0.5342    2.9570   19.1539 C.3     1  UNL1        0.1167
     19 N          -1.5024    3.2598   20.2588 N.am    1  UNL1       -0.2944
     20 C          -2.9151    3.6451   19.9334 C.2     1  UNL1        0.2808
     21 O          -3.3595    3.7276   18.5032 O.2     1  UNL1       -0.2668
     22 H          -1.2107    3.2056   21.1975 H       1  UNL1        0.1501
     23 C          -3.8833    3.9479   21.0383 C.ar    1  UNL1        0.1984
     24 C          -5.3793    3.9110   20.9345 C.ar    1  UNL1        0.0453
     25 C          -5.9462    4.2810   22.2731 C.ar    1  UNL1        0.0409
     26 C          -7.3575    4.4104   22.7644 C.ar    1  UNL1        0.0238
     27 C          -7.6232    4.8055   24.1868 C.ar    1  UNL1        0.0991
     28 N          -6.4775    5.0711   25.1179 N.ar    1  UNL1       -0.2391
     29 C          -5.0662    4.9417   24.6266 C.ar    1  UNL1        0.1362
     30 C          -4.8005    4.5467   23.2042 C.ar    1  UNL1        0.1646
     31 O          -3.5257    4.3408   22.4411 O.2     1  UNL1       -0.4473
@<TRIPOS>BOND
     1    15    16    1
     2    16    17    1
     3    16    10    1
     4    10    11   ar
     5    11    12   ar
     6    12     7    1
     7     7     8    2
     8     7     9    2
     9     7     1    1
    10     1     2   ar
    11     2     3   ar
    12     3     4   ar
    13     4    18    1
    14    18    19    1
    15    19    20   am
    16    20    21    2
    17    20    23    1
    18    23    24   ar
    19    24    25   ar
    20    25    26   ar
    21    26    27   ar
    22    27    28   ar
    23    28    29   ar
    24    29    30   ar
    25    30    31   ar
    26     4     5   ar
    27     5     6   ar
    28    12    13   ar
    29    13    14   ar
    30    14    10   ar
    31     6     1   ar
    32    31    23   ar
    33    30    25   ar
    34    19    22    1
@<TRIPOS>MOLECULE
*****
 31 34 0 0 0
SMALL
GASTEIGER

@<TRIPOS>ATOM
      1 C           1.2912    1.5502   28.7136 C.ar    1  UNL1        0.1104
      2 C           2.2986    1.1172   27.6899 C.ar    1  UNL1        0.0185
      3 C           1.9314    1.1025   26.2357 C.ar    1  UNL1       -0.0013
      4 C           0.5569    1.5208   25.8050 C.ar    1  UNL1       -0.0025
      5 C          -0.4505    1.9538   26.8285 C.ar    1  UNL1       -0.0013
      6 C          -0.0833    1.9685   28.2828 C.ar    1  UNL1        0.0185
      7 S           1.6584    1.5648   30.1678 S.O2    1  UNL1        0.0305
      8 O           1.9752    3.0279   30.0731 O.2     1  UNL1       -0.1641
      9 O           1.3417    0.1017   30.2625 O.2     1  UNL1       -0.1641
     10 N           3.1378    1.1066   33.7268 N.ar    1  UNL1       -0.2500
     11 C           3.1267    0.7865   32.2615 C.ar    1  UNL1        0.1153
     12 C           2.0256    1.5795   31.6221 C.ar    1  UNL1        0.1497
     13 C           1.3562    2.3897   32.6923 C.ar    1  UNL1        0.1404
     14 N           2.0436    2.0975   33.9931 N.ar    1  UNL1       -0.1663
     15 C           4.3388    1.2778   36.0243 C.3     1  UNL1        0.0263
     16 C           4.0780    0.5360   34.7469 C.3     1  UNL1        0.1054
     17 C           4.7575   -0.7762   34.4895 C.3     1  UNL1        0.0263
     18 C           0.1897    1.5062   24.3506 C.3     1  UNL1        0.1167
     19 N           1.0950    0.8432   23.3552 N.am    1  UNL1       -0.2944
     20 C           0.7996    0.9456   21.8882 C.2     1  UNL1        0.2808
     21 O          -0.4011    1.7109   21.4166 O.2     1  UNL1       -0.2668
     22 H           1.8831    0.3409   23.6647 H       1  UNL1        0.1501
     23 C           1.7050    0.2827   20.8927 C.ar    1  UNL1        0.1984
     24 C           2.4843   -0.9798   21.1137 C.ar    1  UNL1        0.0453
     25 C           3.2510   -1.2769   19.8591 C.ar    1  UNL1        0.0409
     26 C           4.1877   -2.3904   19.4952 C.ar    1  UNL1        0.0238
     27 C           4.8190   -2.4251   18.1350 C.ar    1  UNL1        0.0991
     28 N           4.5135   -1.3462   17.1387 N.ar    1  UNL1       -0.2391
     29 C           3.5768   -0.2327   17.5025 C.ar    1  UNL1        0.1362
     30 C           2.9455   -0.1980   18.8627 C.ar    1  UNL1        0.1646
     31 O           1.9900    0.7659   19.5016 O.2     1  UNL1       -0.4473
@<TRIPOS>BOND
     1    15    16    1
     2    16    17    1
     3    16    10    1
     4    10    11   ar
     5    11    12   ar
     6    12     7    1
     7     7     8    2
     8     7     9    2
     9     7     1    1
    10     1     2   ar
    11     2     3   ar
    12     3     4   ar
    13     4    18    1
    14    18    19    1
    15    19    20   am
    16    20    21    2
    17    20    23    1
    18    23    24   ar
    19    24    25   ar
    20    25    26   ar
    21    26    27   ar
    22    27    28   ar
    23    28    29   ar
    24    29    30   ar
    25    30    31   ar
    26     4     5   ar
    27     5     6   ar
    28    12    13   ar
    29    13    14   ar
    30    14    10   ar
    31     6     1   ar
    32    31    23   ar
    33    30    25   ar
    34    19    22    1
@<TRIPOS>MOLECULE
*****
 31 34 0 0 0
SMALL
GASTEIGER

@<TRIPOS>ATOM
      1 C           5.8498   -3.4597   23.8097 C.ar    1  UNL1        0.1104
      2 C           5.6374   -2.4935   24.9374 C.ar    1  UNL1        0.0185
      3 C           6.2512   -2.7608   26.2797 C.ar    1  UNL1       -0.0013
      4 C           7.0774   -3.9942   26.4945 C.ar    1  UNL1       -0.0025
      5 C           7.2898   -4.9603   25.3669 C.ar    1  UNL1       -0.0013
      6 C           6.6760   -4.6931   24.0245 C.ar    1  UNL1        0.0185
      7 S           5.2361   -3.1925   22.4674 S.O2    1  UNL1        0.0305
      8 O           6.1354   -4.2227   21.8511 O.2     1  UNL1       -0.1641
      9 O           4.3368   -2.1622   23.0837 O.2     1  UNL1       -0.1641
     10 N           3.7643   -1.7767   19.1667 N.ar    1  UNL1       -0.2500
     11 C           4.4014   -1.5752   20.5097 C.ar    1  UNL1        0.1153
     12 C           4.6223   -2.9252   21.1251 C.ar    1  UNL1        0.1497
     13 C           4.1218   -3.9610   20.1626 C.ar    1  UNL1        0.1404
     14 N           3.5915   -3.2512   18.9522 N.ar    1  UNL1       -0.1663
     15 C           2.4705    0.4186   18.6596 C.3     1  UNL1        0.0263
     16 C           3.3693   -0.6938   18.2069 C.3     1  UNL1        0.1054
     17 C           3.8730   -0.7233   16.7944 C.3     1  UNL1        0.0263
     18 C           7.6911   -4.2614   27.8369 C.3     1  UNL1        0.1167
     19 N           7.3815   -3.3607   28.9957 N.am    1  UNL1       -0.2944
     20 C           6.9028   -3.9441   30.2920 C.2     1  UNL1        0.2808
     21 O           6.7336   -5.4282   30.4294 O.2     1  UNL1       -0.2668
     22 H           7.4926   -2.3867   28.9055 H       1  UNL1        0.1501
     23 C           6.5932   -3.0435   31.4509 C.ar    1  UNL1        0.1984
     24 C           7.5607   -2.1250   32.1368 C.ar    1  UNL1        0.0453
     25 C           6.8272   -1.4171   33.2372 C.ar    1  UNL1        0.0409
     26 C           7.2695   -0.3967   34.2437 C.ar    1  UNL1        0.0238
     27 C           6.2910    0.1429   35.2443 C.ar    1  UNL1        0.0991
     28 N           4.8702   -0.3380   35.2385 N.ar    1  UNL1       -0.2391
     29 C           4.4279   -1.3584   34.2320 C.ar    1  UNL1        0.1362
     30 C           5.4064   -1.8979   33.2313 C.ar    1  UNL1        0.1646
     31 O           5.2618   -2.9031   32.1274 O.2     1  UNL1       -0.4473
@<TRIPOS>BOND
     1    15    16    1
     2    16    17    1
     3    16    10    1
     4    10    11   ar
     5    11    12   ar
     6    12     7    1
     7     7     8    2
     8     7     9    2
     9     7     1    1
    10     1     2   ar
    11     2     3   ar
    12     3     4   ar
    13     4    18    1
    14    18    19    1
    15    19    20   am
    16    20    21    2
    17    20    23    1
    18    23    24   ar
    19    24    25   ar
    20    25    26   ar
    21    26    27   ar
    22    27    28   ar
    23    28    29   ar
    24    29    30   ar
    25    30    31   ar
    26     4     5   ar
    27     5     6   ar
    28    12    13   ar
    29    13    14   ar
    30    14    10   ar
    31     6     1   ar
    32    31    23   ar
    33    30    25   ar
    34    19    22    1
