@<TRIPOS>MOLECULE
*****
 27 29 0 0 0
SMALL
GASTEIGER

@<TRIPOS>ATOM
      1 C           5.1428   -0.6668   34.6346 C.ar    1  UNL1        0.0191
      2 C           4.3006   -1.7205   33.9784 C.ar    1  UNL1        0.0063
      3 C           4.5380   -2.0835   32.5425 C.ar    1  UNL1        0.0581
      4 C           5.6174   -1.3929   31.7627 C.ar    1  UNL1        0.2297
      5 N           6.4595   -0.3392   32.4190 N.ar    1  UNL1       -0.2098
      6 C           6.2221    0.0238   33.8550 C.ar    1  UNL1        0.1020
      7 C           4.4029    1.0642   36.4251 C.2     1  UNL1       -0.0069
      8 C           4.9055   -0.3039   36.0706 C.2     1  UNL1       -0.0014
      9 C           4.1656    1.4272   37.8610 C.3     1  UNL1        0.0939
     10 C           4.8331    2.6348   38.4495 C.3     1  UNL1        0.0262
     11 C           0.9131    0.1150   39.7183 C.3     1  UNL1        0.0946
     12 C           1.8179    0.9595   38.8709 C.2     1  UNL1        0.2232
     13 O           1.2800    2.1808   38.1861 O.2     1  UNL1       -0.2751
     14 N           3.2608    0.5827   38.7084 N.am    1  UNL1       -0.3022
     15 H           3.6138   -0.2189   39.1580 H       1  UNL1        0.1497
     16 O           5.8547   -1.7558   30.3268 O.3     1  UNL1       -0.4352
     17 C           6.4208   -3.1001   29.9768 C.ar    1  UNL1        0.1582
     18 C           7.0237   -3.9617   31.0464 C.ar    1  UNL1        0.0400
     19 C           7.5898   -5.3060   30.6963 C.ar    1  UNL1        0.0228
     20 C           7.5529   -5.7886   29.2766 C.ar    1  UNL1        0.0885
     21 N           8.0298   -7.0580   28.6354 N.ar    1  UNL1       -0.2427
     22 C           7.7216   -6.9810   27.1694 C.ar    1  UNL1        0.0886
     23 C           8.0271   -8.0358   26.1476 C.3     1  UNL1        0.0594
     24 S           7.0542   -5.6640   26.9046 S.2     1  UNL1       -0.0698
     25 C           6.9500   -4.9270   28.2069 C.ar    1  UNL1        0.0617
     26 C           6.3839   -3.5828   28.5570 C.ar    1  UNL1        0.0996
     27 CL          5.7810   -2.7212   27.4874 Cl      1  UNL1       -0.0785
@<TRIPOS>BOND
     1    11    12    1
     2    12    13    2
     3    12    14   am
     4    14     9    1
     5     9    10    1
     6     9     7    1
     7     7     8    2
     8     8     1    1
     9     1     2   ar
    10     2     3   ar
    11     3     4   ar
    12     4    16    1
    13    16    17    1
    14    17    18   ar
    15    18    19   ar
    16    19    20   ar
    17    20    21   ar
    18    21    22   ar
    19    22    23    1
    20    22    24   ar
    21    24    25   ar
    22    25    26   ar
    23    26    27    1
    24     4     5   ar
    25     5     6   ar
    26     6     1   ar
    27    26    17   ar
    28    25    20   ar
    29    14    15    1
@<TRIPOS>MOLECULE
*****
 27 29 0 0 0
SMALL
GASTEIGER

@<TRIPOS>ATOM
      1 C           1.6280   -0.4475   19.6968 C.ar    1  UNL1        0.0191
      2 C           1.7704    0.6191   18.6516 C.ar    1  UNL1        0.0063
      3 C           0.9288    1.8586   18.7255 C.ar    1  UNL1        0.0581
      4 C          -0.0552    2.0315   19.8444 C.ar    1  UNL1        0.2297
      5 N          -0.1975    0.9650   20.8894 N.ar    1  UNL1       -0.2098
      6 C           0.6441   -0.2745   20.8156 C.ar    1  UNL1        0.1020
      7 C           3.9558   -1.5753   19.4540 C.2     1  UNL1       -0.0069
      8 C           2.4696   -1.6869   19.6229 C.2     1  UNL1       -0.0014
      9 C           4.7974   -2.8147   19.3801 C.3     1  UNL1        0.0939
     10 C           4.1828   -4.1141   18.9509 C.3     1  UNL1        0.0262
     11 C           8.7194   -2.3040   19.0526 C.3     1  UNL1        0.0946
     12 C           7.2633   -2.3638   18.6973 C.2     1  UNL1        0.2232
     13 O           6.8170   -2.0327   17.3041 O.2     1  UNL1       -0.2751
     14 N           6.2535   -2.7549   19.7354 N.am    1  UNL1       -0.3022
     15 H           6.5465   -2.9722   20.6498 H       1  UNL1        0.1497
     16 O          -0.8968    3.2710   19.9182 O.3     1  UNL1       -0.4352
     17 C          -1.9859    3.3780   20.9442 C.ar    1  UNL1        0.1582
     18 C          -3.4140    3.1456   20.5490 C.ar    1  UNL1        0.0400
     19 C          -4.5031    3.2526   21.5749 C.ar    1  UNL1        0.0228
     20 C          -4.1639    3.5919   22.9961 C.ar    1  UNL1        0.0885
     21 N          -5.0170    3.7651   24.2177 N.ar    1  UNL1       -0.2427
     22 C          -4.1160    4.1045   25.3679 C.ar    1  UNL1        0.0886
     23 C          -4.5489    4.3622   26.7807 C.3     1  UNL1        0.0594
     24 S          -2.7060    4.1410   24.8572 S.2     1  UNL1       -0.0698
     25 C          -2.7357    3.8242   23.3913 C.ar    1  UNL1        0.0617
     26 C          -1.6466    3.7172   22.3654 C.ar    1  UNL1        0.0996
     27 CL         -0.2184    3.9496   22.7606 Cl      1  UNL1       -0.0785
@<TRIPOS>BOND
     1    11    12    1
     2    12    13    2
     3    12    14   am
     4    14     9    1
     5     9    10    1
     6     9     7    1
     7     7     8    2
     8     8     1    1
     9     1     2   ar
    10     2     3   ar
    11     3     4   ar
    12     4    16    1
    13    16    17    1
    14    17    18   ar
    15    18    19   ar
    16    19    20   ar
    17    20    21   ar
    18    21    22   ar
    19    22    23    1
    20    22    24   ar
    21    24    25   ar
    22    25    26   ar
    23    26    27    1
    24     4     5   ar
    25     5     6   ar
    26     6     1   ar
    27    26    17   ar
    28    25    20   ar
    29    14    15    1
@<TRIPOS>MOLECULE
*****
 27 29 0 0 0
SMALL
GASTEIGER

@<TRIPOS>ATOM
      1 C           5.3110   -0.6723   34.3853 C.ar    1  UNL1        0.0191
      2 C           4.3224   -1.7010   33.9221 C.ar    1  UNL1        0.0063
      3 C           4.7329   -2.7368   32.9178 C.ar    1  UNL1        0.0581
      4 C           6.1319   -2.7440   32.3767 C.ar    1  UNL1        0.2297
      5 N           7.1204   -1.7152   32.8399 N.ar    1  UNL1       -0.2098
      6 C           6.7099   -0.6794   33.8442 C.ar    1  UNL1        0.1020
      7 C           4.8292    0.0098   36.8455 C.2     1  UNL1       -0.0069
      8 C           4.9005    0.3635   35.3896 C.2     1  UNL1       -0.0014
      9 C           4.4188    1.0456   37.8498 C.3     1  UNL1        0.0939
     10 C           5.1045    2.3795   37.8744 C.3     1  UNL1        0.0262
     11 C           0.8743    1.0753   39.6347 C.3     1  UNL1        0.0946
     12 C           1.9705    1.3733   38.6551 C.2     1  UNL1        0.2232
     13 O           1.7146    2.2972   37.5014 O.2     1  UNL1       -0.2751
     14 N           3.3226    0.7475   38.8294 N.am    1  UNL1       -0.3022
     15 H           3.4905    0.1412   39.5866 H       1  UNL1        0.1497
     16 O           6.5424   -3.7798   31.3724 O.3     1  UNL1       -0.4352
     17 C           6.4925   -3.4645   29.9067 C.ar    1  UNL1        0.1582
     18 C           6.1135   -2.0876   29.4482 C.ar    1  UNL1        0.0400
     19 C           6.0636   -1.7723   27.9825 C.ar    1  UNL1        0.0228
     20 C           6.3928   -2.8341   26.9754 C.ar    1  UNL1        0.0885
     21 N           6.4290   -2.8185   25.4759 N.ar    1  UNL1       -0.2427
     22 C           6.8305   -4.1858   25.0078 C.ar    1  UNL1        0.0886
     23 C           6.9917   -4.6169   23.5801 C.3     1  UNL1        0.0594
     24 S           7.0423   -5.0465   26.2179 S.2     1  UNL1       -0.0698
     25 C           6.7718   -4.2111   27.4340 C.ar    1  UNL1        0.0617
     26 C           6.8217   -4.5263   28.8996 C.ar    1  UNL1        0.0996
     27 CL          7.2007   -5.9033   29.3582 Cl      1  UNL1       -0.0785
@<TRIPOS>BOND
     1    11    12    1
     2    12    13    2
     3    12    14   am
     4    14     9    1
     5     9    10    1
     6     9     7    1
     7     7     8    2
     8     8     1    1
     9     1     2   ar
    10     2     3   ar
    11     3     4   ar
    12     4    16    1
    13    16    17    1
    14    17    18   ar
    15    18    19   ar
    16    19    20   ar
    17    20    21   ar
    18    21    22   ar
    19    22    23    1
    20    22    24   ar
    21    24    25   ar
    22    25    26   ar
    23    26    27    1
    24     4     5   ar
    25     5     6   ar
    26     6     1   ar
    27    26    17   ar
    28    25    20   ar
    29    14    15    1
@<TRIPOS>MOLECULE
*****
 27 29 0 0 0
SMALL
GASTEIGER

@<TRIPOS>ATOM
      1 C           1.6317   -0.4253   19.7103 C.ar    1  UNL1        0.0191
      2 C           1.7831    0.6007   18.6266 C.ar    1  UNL1        0.0063
      3 C           0.9420    1.8426   18.6469 C.ar    1  UNL1        0.0581
      4 C          -0.0505    2.0584   19.7508 C.ar    1  UNL1        0.2297
      5 N          -0.2018    1.0323   20.8344 N.ar    1  UNL1       -0.2098
      6 C           0.6394   -0.2096   20.8141 C.ar    1  UNL1        0.1020
      7 C           3.9453   -1.5713   19.4205 C.2     1  UNL1       -0.0069
      8 C           2.4728   -1.6672   19.6900 C.2     1  UNL1       -0.0014
      9 C           4.7863   -2.8132   19.4002 C.3     1  UNL1        0.0939
     10 C           4.1758   -4.1262   19.0085 C.3     1  UNL1        0.0262
     11 C           8.7130   -2.3192   19.1044 C.3     1  UNL1        0.0946
     12 C           7.2614   -2.3904   18.7330 C.2     1  UNL1        0.2232
     13 O           6.8334   -2.1099   17.3230 O.2     1  UNL1       -0.2751
     14 N           6.2379   -2.7420   19.7717 N.am    1  UNL1       -0.3022
     15 H           6.5188   -2.9261   20.6971 H       1  UNL1        0.1497
     16 O          -0.8915    3.3002   19.7711 O.3     1  UNL1       -0.4352
     17 C          -1.9007    3.5048   20.8620 C.ar    1  UNL1        0.1582
     18 C          -1.4586    3.5449   22.2947 C.ar    1  UNL1        0.0400
     19 C          -2.4677    3.7494   23.3856 C.ar    1  UNL1        0.0228
     20 C          -3.9189    3.9139   23.0435 C.ar    1  UNL1        0.0885
     21 N          -5.1332    4.1290   23.8975 N.ar    1  UNL1       -0.2427
     22 C          -6.3257    4.2218   22.9924 C.ar    1  UNL1        0.0886
     23 C          -7.7462    4.4349   23.4247 C.3     1  UNL1        0.0594
     24 S          -5.8485    4.0641   21.5791 S.2     1  UNL1       -0.0698
     25 C          -4.3609    3.8739   21.6107 C.ar    1  UNL1        0.0617
     26 C          -3.3518    3.6693   20.5199 C.ar    1  UNL1        0.0996
     27 CL         -3.7939    3.6292   19.0871 Cl      1  UNL1       -0.0785
@<TRIPOS>BOND
     1    11    12    1
     2    12    13    2
     3    12    14   am
     4    14     9    1
     5     9    10    1
     6     9     7    1
     7     7     8    2
     8     8     1    1
     9     1     2   ar
    10     2     3   ar
    11     3     4   ar
    12     4    16    1
    13    16    17    1
    14    17    18   ar
    15    18    19   ar
    16    19    20   ar
    17    20    21   ar
    18    21    22   ar
    19    22    23    1
    20    22    24   ar
    21    24    25   ar
    22    25    26   ar
    23    26    27    1
    24     4     5   ar
    25     5     6   ar
    26     6     1   ar
    27    26    17   ar
    28    25    20   ar
    29    14    15    1
@<TRIPOS>MOLECULE
*****
 27 29 0 0 0
SMALL
GASTEIGER

@<TRIPOS>ATOM
      1 C           2.4703   -0.4641   20.9012 C.ar    1  UNL1        0.0191
      2 C           2.6645    0.7649   21.7392 C.ar    1  UNL1        0.0063
      3 C           1.5340    1.7334   21.9233 C.ar    1  UNL1        0.0581
      4 C           0.2093    1.4730   21.2695 C.ar    1  UNL1        0.2297
      5 N           0.0151    0.2441   20.4316 N.ar    1  UNL1       -0.2098
      6 C           1.1458   -0.7244   20.2474 C.ar    1  UNL1        0.1020
      7 C           3.4869   -2.5351   19.7065 C.2     1  UNL1       -0.0069
      8 C           3.6009   -1.4325   20.7171 C.2     1  UNL1       -0.0014
      9 C           4.6174   -3.5035   19.5224 C.3     1  UNL1        0.0939
     10 C           4.3546   -4.8616   18.9420 C.3     1  UNL1        0.0262
     11 C           8.3273   -2.1111   19.3043 C.3     1  UNL1        0.0946
     12 C           6.9341   -2.5006   18.9080 C.2     1  UNL1        0.2232
     13 O           6.4641   -2.2767   17.5013 O.2     1  UNL1       -0.2751
     14 N           6.0107   -3.1140   19.9187 N.am    1  UNL1       -0.3022
     15 H           6.3192   -3.2610   20.8420 H       1  UNL1        0.1497
     16 O          -0.9213    2.4415   21.4536 O.3     1  UNL1       -0.4352
     17 C          -1.5573    3.0877   20.2586 C.ar    1  UNL1        0.1582
     18 C          -0.7168    3.4699   19.0765 C.ar    1  UNL1        0.0400
     19 C          -1.3529    4.1162   17.8815 C.ar    1  UNL1        0.0228
     20 C          -2.8294    4.3802   17.8688 C.ar    1  UNL1        0.0885
     21 N          -3.7296    4.9981   16.8403 N.ar    1  UNL1       -0.2427
     22 C          -5.1265    4.9978   17.3869 C.ar    1  UNL1        0.0886
     23 C          -6.3462    5.5233   16.6896 C.3     1  UNL1        0.0594
     24 S          -5.0896    4.3797   18.7531 S.2     1  UNL1       -0.0698
     25 C          -3.6698    3.9980   19.0509 C.ar    1  UNL1        0.0617
     26 C          -3.0338    3.3517   20.2458 C.ar    1  UNL1        0.0996
     27 CL         -3.8743    2.9695   21.4280 Cl      1  UNL1       -0.0785
@<TRIPOS>BOND
     1    11    12    1
     2    12    13    2
     3    12    14   am
     4    14     9    1
     5     9    10    1
     6     9     7    1
     7     7     8    2
     8     8     1    1
     9     1     2   ar
    10     2     3   ar
    11     3     4   ar
    12     4    16    1
    13    16    17    1
    14    17    18   ar
    15    18    19   ar
    16    19    20   ar
    17    20    21   ar
    18    21    22   ar
    19    22    23    1
    20    22    24   ar
    21    24    25   ar
    22    25    26   ar
    23    26    27    1
    24     4     5   ar
    25     5     6   ar
    26     6     1   ar
    27    26    17   ar
    28    25    20   ar
    29    14    15    1
@<TRIPOS>MOLECULE
*****
 27 29 0 0 0
SMALL
GASTEIGER

@<TRIPOS>ATOM
      1 C           8.3026   -8.4652   27.2073 C.ar    1  UNL1        0.0191
      2 C           7.3135   -8.0424   26.1618 C.ar    1  UNL1        0.0063
      3 C           7.3450   -6.6434   25.6217 C.ar    1  UNL1        0.0581
      4 C           8.3656   -5.6671   26.1271 C.ar    1  UNL1        0.2297
      5 N           9.3546   -6.0899   27.1726 N.ar    1  UNL1       -0.2098
      6 C           9.3231   -7.4890   27.7127 C.ar    1  UNL1        0.1020
      7 C           6.9889  -10.6427   27.7388 C.2     1  UNL1       -0.0069
      8 C           8.2711   -9.8643   27.7474 C.2     1  UNL1       -0.0014
      9 C           6.9574  -12.0418   28.2789 C.3     1  UNL1        0.0939
     10 C           8.2287  -12.8293   28.3961 C.3     1  UNL1        0.0262
     11 C           3.5070  -13.9964   28.1238 C.3     1  UNL1        0.0946
     12 C           4.8097  -13.3848   27.7010 C.2     1  UNL1        0.2232
     13 O           5.2676  -13.5047   26.2777 O.2     1  UNL1       -0.2751
     14 N           5.6546  -12.6533   28.7017 N.am    1  UNL1       -0.3022
     15 H           5.3540  -12.5747   29.6359 H       1  UNL1        0.1497
     16 O           8.3971   -4.2681   25.5871 O.3     1  UNL1       -0.4352
     17 C           7.4452   -3.8617   24.5013 C.ar    1  UNL1        0.1582
     18 C           6.1375   -3.2167   24.8530 C.ar    1  UNL1        0.0400
     19 C           5.1856   -2.8103   23.7672 C.ar    1  UNL1        0.0228
     20 C           5.5416   -3.0489   22.3298 C.ar    1  UNL1        0.0885
     21 N           4.8102   -2.7575   21.0530 N.ar    1  UNL1       -0.2427
     22 C           5.6660   -3.2224   19.9122 C.ar    1  UNL1        0.0886
     23 C           5.3220   -3.1256   18.4554 C.3     1  UNL1        0.0594
     24 S           6.9263   -3.8012   20.4839 S.2     1  UNL1       -0.0698
     25 C           6.8494   -3.6940   21.9781 C.ar    1  UNL1        0.0617
     26 C           7.8012   -4.1003   23.0638 C.ar    1  UNL1        0.0996
     27 CL          9.1089   -4.7453   22.7122 Cl      1  UNL1       -0.0785
@<TRIPOS>BOND
     1    11    12    1
     2    12    13    2
     3    12    14   am
     4    14     9    1
     5     9    10    1
     6     9     7    1
     7     7     8    2
     8     8     1    1
     9     1     2   ar
    10     2     3   ar
    11     3     4   ar
    12     4    16    1
    13    16    17    1
    14    17    18   ar
    15    18    19   ar
    16    19    20   ar
    17    20    21   ar
    18    21    22   ar
    19    22    23    1
    20    22    24   ar
    21    24    25   ar
    22    25    26   ar
    23    26    27    1
    24     4     5   ar
    25     5     6   ar
    26     6     1   ar
    27    26    17   ar
    28    25    20   ar
    29    14    15    1
@<TRIPOS>MOLECULE
*****
 27 29 0 0 0
SMALL
GASTEIGER

@<TRIPOS>ATOM
      1 C           5.5152   -3.4908   23.2563 C.ar    1  UNL1        0.0191
      2 C           6.7808   -4.2736   23.4453 C.ar    1  UNL1        0.0063
      3 C           7.6405   -4.0297   24.6500 C.ar    1  UNL1        0.0581
      4 C           7.2348   -3.0032   25.6657 C.ar    1  UNL1        0.2297
      5 N           5.9692   -2.2205   25.4767 N.ar    1  UNL1       -0.2098
      6 C           5.1094   -2.4644   24.2719 C.ar    1  UNL1        0.1020
      7 C           5.2528   -3.6654   20.6774 C.2     1  UNL1       -0.0069
      8 C           4.6554   -3.7347   22.0516 C.2     1  UNL1       -0.0014
      9 C           4.3930   -3.9093   19.4727 C.3     1  UNL1        0.0939
     10 C           3.3909   -5.0255   19.4801 C.3     1  UNL1        0.0262
     11 C           3.9928   -0.8310   17.0001 C.3     1  UNL1        0.0946
     12 C           3.8505   -1.7033   18.2121 C.2     1  UNL1        0.2232
     13 O           3.0234   -1.2419   19.3753 O.2     1  UNL1       -0.2751
     14 N           4.5353   -3.0370   18.2608 N.am    1  UNL1       -0.3022
     15 H           5.0782   -3.3398   17.4973 H       1  UNL1        0.1497
     16 O           8.0946   -2.7593   26.8704 O.3     1  UNL1       -0.4352
     17 C           7.5580   -3.0374   28.2434 C.ar    1  UNL1        0.1582
     18 C           7.6653   -4.4155   28.8256 C.ar    1  UNL1        0.0400
     19 C           7.1287   -4.6935   30.1986 C.ar    1  UNL1        0.0228
     20 C           6.4850   -3.5933   30.9892 C.ar    1  UNL1        0.0885
     21 N           5.8701   -3.5677   32.3571 N.ar    1  UNL1       -0.2427
     22 C           5.3828   -2.1737   32.6202 C.ar    1  UNL1        0.0886
     23 C           4.7014   -1.6989   33.8693 C.3     1  UNL1        0.0594
     24 S           5.6966   -1.3377   31.4149 S.2     1  UNL1       -0.0698
     25 C           6.3778   -2.2151   30.4069 C.ar    1  UNL1        0.0617
     26 C           6.9143   -1.9371   29.0340 C.ar    1  UNL1        0.0996
     27 CL          6.8071   -0.5589   28.4517 Cl      1  UNL1       -0.0785
@<TRIPOS>BOND
     1    11    12    1
     2    12    13    2
     3    12    14   am
     4    14     9    1
     5     9    10    1
     6     9     7    1
     7     7     8    2
     8     8     1    1
     9     1     2   ar
    10     2     3   ar
    11     3     4   ar
    12     4    16    1
    13    16    17    1
    14    17    18   ar
    15    18    19   ar
    16    19    20   ar
    17    20    21   ar
    18    21    22   ar
    19    22    23    1
    20    22    24   ar
    21    24    25   ar
    22    25    26   ar
    23    26    27    1
    24     4     5   ar
    25     5     6   ar
    26     6     1   ar
    27    26    17   ar
    28    25    20   ar
    29    14    15    1
@<TRIPOS>MOLECULE
*****
 27 29 0 0 0
SMALL
GASTEIGER

@<TRIPOS>ATOM
      1 C           1.9921   -0.4164   20.2681 C.ar    1  UNL1        0.0191
      2 C           2.8256    0.8304   20.2337 C.ar    1  UNL1        0.0063
      3 C           2.1751    2.1720   20.3973 C.ar    1  UNL1        0.0581
      4 C           0.6913    2.2671   20.5953 C.ar    1  UNL1        0.2297
      5 N          -0.1421    1.0204   20.6297 N.ar    1  UNL1       -0.2098
      6 C           0.5084   -0.3214   20.4661 C.ar    1  UNL1        0.1020
      7 C           4.0025   -1.8611   19.4800 C.2     1  UNL1       -0.0069
      8 C           2.6426   -1.7580   20.1046 C.2     1  UNL1       -0.0014
      9 C           4.6530   -3.2027   19.3165 C.3     1  UNL1        0.0939
     10 C           3.8143   -4.4126   19.0281 C.3     1  UNL1        0.0262
     11 C           8.2333   -3.9953   20.8340 C.3     1  UNL1        0.0946
     12 C           6.7443   -3.8635   20.7092 C.2     1  UNL1        0.2232
     13 O           5.8578   -4.2605   21.8522 O.2     1  UNL1       -0.2751
     14 N           6.1419   -3.3346   19.4413 N.am    1  UNL1       -0.3022
     15 H           6.7238   -3.0740   18.6911 H       1  UNL1        0.1497
     16 O           0.0408    3.6088   20.7588 O.3     1  UNL1       -0.4352
     17 C          -1.4542    3.7267   20.7236 C.ar    1  UNL1        0.1582
     18 C          -2.1695    3.8061   19.4076 C.ar    1  UNL1        0.0400
     19 C          -3.6645    3.9241   19.3724 C.ar    1  UNL1        0.0228
     20 C          -4.4441    3.9626   20.6533 C.ar    1  UNL1        0.0885
     21 N          -5.9141    4.0730   20.9306 N.ar    1  UNL1       -0.2427
     22 C          -6.1073    4.0618   22.4180 C.ar    1  UNL1        0.0886
     23 C          -7.4205    4.1522   23.1373 C.3     1  UNL1        0.0594
     24 S          -4.7567    3.9445   23.0601 S.2     1  UNL1       -0.0698
     25 C          -3.7288    3.8831   21.9694 C.ar    1  UNL1        0.0617
     26 C          -2.2338    3.7652   22.0045 C.ar    1  UNL1        0.0996
     27 CL         -1.5185    3.6858   23.3206 Cl      1  UNL1       -0.0785
@<TRIPOS>BOND
     1    11    12    1
     2    12    13    2
     3    12    14   am
     4    14     9    1
     5     9    10    1
     6     9     7    1
     7     7     8    2
     8     8     1    1
     9     1     2   ar
    10     2     3   ar
    11     3     4   ar
    12     4    16    1
    13    16    17    1
    14    17    18   ar
    15    18    19   ar
    16    19    20   ar
    17    20    21   ar
    18    21    22   ar
    19    22    23    1
    20    22    24   ar
    21    24    25   ar
    22    25    26   ar
    23    26    27    1
    24     4     5   ar
    25     5     6   ar
    26     6     1   ar
    27    26    17   ar
    28    25    20   ar
    29    14    15    1
@<TRIPOS>MOLECULE
*****
 27 29 0 0 0
SMALL
GASTEIGER

@<TRIPOS>ATOM
      1 C         -16.3986    1.5715   20.2261 C.ar    1  UNL1        0.0191
      2 C         -16.7152    0.1533   20.5984 C.ar    1  UNL1        0.0063
      3 C         -16.2053   -0.9758   19.7527 C.ar    1  UNL1        0.0581
      4 C         -15.3789   -0.6867   18.5347 C.ar    1  UNL1        0.2297
      5 N         -15.0624    0.7314   18.1624 N.ar    1  UNL1       -0.2098
      6 C         -15.5722    1.8606   19.0082 C.ar    1  UNL1        0.1020
      7 C         -17.1384    2.4936   22.5396 C.2     1  UNL1       -0.0069
      8 C         -16.9085    2.7005   21.0718 C.2     1  UNL1       -0.0014
      9 C         -17.6483    3.6227   23.3853 C.3     1  UNL1        0.0939
     10 C         -18.8255    4.4312   22.9263 C.3     1  UNL1        0.0262
     11 C         -14.9586    4.9071   26.0056 C.3     1  UNL1        0.0946
     12 C         -15.6259    4.5866   24.7010 C.2     1  UNL1        0.2232
     13 O         -14.9382    4.9094   23.4076 O.2     1  UNL1       -0.2751
     14 N         -16.9810    3.9432   24.6899 N.am    1  UNL1       -0.3022
     15 H         -17.4323    3.7313   25.5388 H       1  UNL1        0.1497
     16 O         -14.8690   -1.8158   17.6889 O.3     1  UNL1       -0.4352
     17 C         -13.5651   -2.4761   18.0264 C.ar    1  UNL1        0.1582
     18 C         -12.3707   -1.6405   18.3802 C.ar    1  UNL1        0.0400
     19 C         -11.0668   -2.3008   18.7176 C.ar    1  UNL1        0.0228
     20 C         -10.9573   -3.7967   18.7013 C.ar    1  UNL1        0.0885
     21 N          -9.8121   -4.7224   18.9869 N.ar    1  UNL1       -0.2427
     22 C         -10.2988   -6.1301   18.8096 C.ar    1  UNL1        0.0886
     23 C          -9.4828   -7.3750   18.9950 C.3     1  UNL1        0.0594
     24 S         -11.7447   -6.0744   18.4145 S.2     1  UNL1       -0.0698
     25 C         -12.1517   -4.6323   18.3475 C.ar    1  UNL1        0.0617
     26 C         -13.4556   -3.9720   18.0100 C.ar    1  UNL1        0.0996
     27 CL        -14.6500   -4.8075   17.6562 Cl      1  UNL1       -0.0785
@<TRIPOS>BOND
     1    11    12    1
     2    12    13    2
     3    12    14   am
     4    14     9    1
     5     9    10    1
     6     9     7    1
     7     7     8    2
     8     8     1    1
     9     1     2   ar
    10     2     3   ar
    11     3     4   ar
    12     4    16    1
    13    16    17    1
    14    17    18   ar
    15    18    19   ar
    16    19    20   ar
    17    20    21   ar
    18    21    22   ar
    19    22    23    1
    20    22    24   ar
    21    24    25   ar
    22    25    26   ar
    23    26    27    1
    24     4     5   ar
    25     5     6   ar
    26     6     1   ar
    27    26    17   ar
    28    25    20   ar
    29    14    15    1
