@<TRIPOS>MOLECULE
*****
 32 35 0 0 0
SMALL
GASTEIGER

@<TRIPOS>ATOM
      1 O           6.7906   -6.0406   31.7395 O.2     1  UNL1       -0.2699
      2 C           6.8695   -4.6928   31.0860 C.2     1  UNL1        0.2494
      3 N           6.8738   -4.5837   29.5900 N.am    1  UNL1       -0.2660
      4 C           6.9527   -3.2359   28.9365 C.3     1  UNL1        0.1160
      5 C           6.9569   -3.1268   27.4404 C.3     1  UNL1        0.1197
      6 N           6.8822   -4.3656   26.5980 N.am    1  UNL1       -0.2555
      7 C           6.8032   -5.7134   27.2515 C.2     1  UNL1        0.2497
      8 O           6.7285   -6.9522   26.4090 O.2     1  UNL1       -0.2727
      9 C           6.7990   -5.8225   28.7475 C.3     1  UNL1        0.1799
     10 C           6.9443   -3.4540   31.9286 C.ar    1  UNL1        0.0537
     11 C           5.6844   -2.7940   32.4052 C.ar    1  UNL1        0.0068
     12 C           5.7592   -1.5552   33.2477 C.ar    1  UNL1        0.0298
     13 C           7.0938   -0.9765   33.6136 C.ar    1  UNL1        0.1401
     14 F           7.1686    0.2623   34.4562 F       1  UNL1       -0.2042
     15 C           8.3536   -1.6365   33.1371 C.ar    1  UNL1        0.0298
     16 C           8.2789   -2.8753   32.2945 C.ar    1  UNL1        0.0068
     17 C           6.8864   -4.2565   25.1020 C.ar    1  UNL1        0.0541
     18 C           8.0034   -4.8673   24.3086 C.ar    1  UNL1        0.0180
     19 C           8.0075   -4.7582   22.8125 C.ar    1  UNL1        0.0382
     20 C           6.8949   -4.0383   22.1099 C.ar    1  UNL1        0.1386
     21 C           5.7780   -3.4275   22.9033 C.ar    1  UNL1        0.0382
     22 C           5.7737   -3.5366   24.3993 C.ar    1  UNL1        0.0180
     23 O           6.8991   -3.9292   20.6139 O.3     1  UNL1       -0.4754
     24 C           7.2202   -2.6188   19.9584 C.3     1  UNL1        0.2068
     25 C           6.7796   -2.3577   18.5485 C.3     1  UNL1        0.0646
     26 C           5.3858   -2.7104   18.1208 C.3     1  UNL1        0.0759
     27 N           4.2346   -1.8361   18.5209 N.3     1  UNL1       -0.2726
     28 C           3.8442   -0.6702   17.6616 C.3     1  UNL1        0.0721
     29 C           2.6929    0.2042   18.0618 C.3     1  UNL1        0.0174
     30 C           1.9320   -0.0873   19.3211 C.3     1  UNL1        0.0029
     31 C           2.3224   -1.2532   20.1804 C.3     1  UNL1        0.0174
     32 C           3.4736   -2.1276   19.7803 C.3     1  UNL1        0.0721
@<TRIPOS>BOND
     1     1     2    2
     2     2    10    1
     3    10    11   ar
     4    11    12   ar
     5    12    13   ar
     6    13    14    1
     7    13    15   ar
     8    15    16   ar
     9     2     3   am
    10     3     4    1
    11     4     5    1
    12     5     6    1
    13     6    17    1
    14    17    18   ar
    15    18    19   ar
    16    19    20   ar
    17    20    23    1
    18    23    24    1
    19    24    25    1
    20    25    26    1
    21    26    27    1
    22    27    28    1
    23    28    29    1
    24    29    30    1
    25    30    31    1
    26    31    32    1
    27    20    21   ar
    28    21    22   ar
    29     6     7   am
    30     7     8    2
    31     7     9    1
    32    16    10   ar
    33     9     3    1
    34    22    17   ar
    35    32    27    1
@<TRIPOS>MOLECULE
*****
 32 35 0 0 0
SMALL
GASTEIGER

@<TRIPOS>ATOM
      1 O          -1.8446    2.9663   25.1926 O.2     1  UNL1       -0.2699
      2 C          -0.5823    2.2172   25.5013 C.2     1  UNL1        0.2494
      3 N           0.2677    1.6875   24.3847 N.am    1  UNL1       -0.2660
      4 C           1.5300    0.9384   24.6934 C.3     1  UNL1        0.1160
      5 C           2.3800    0.4087   23.5767 C.3     1  UNL1        0.1197
      6 N           1.9677    0.6283   22.1513 N.am    1  UNL1       -0.2555
      7 C           0.7054    1.3774   21.8426 C.2     1  UNL1        0.2497
      8 O           0.2930    1.5969   20.4172 O.2     1  UNL1       -0.2727
      9 C          -0.1446    1.9070   22.9592 C.3     1  UNL1        0.1799
     10 C          -0.1700    1.9977   26.9268 C.ar    1  UNL1        0.0537
     11 C           0.7051    3.0012   27.6175 C.ar    1  UNL1        0.0068
     12 C           1.1173    2.7817   29.0429 C.ar    1  UNL1        0.0298
     13 C           0.6545    1.5586   29.7776 C.ar    1  UNL1        0.1401
     14 F           1.0668    1.3391   31.2031 F       1  UNL1       -0.2042
     15 C          -0.2205    0.5550   29.0869 C.ar    1  UNL1        0.0298
     16 C          -0.6328    0.7746   27.6615 C.ar    1  UNL1        0.0068
     17 C           2.8177    0.0986   21.0347 C.ar    1  UNL1        0.0541
     18 C           3.9790    0.9027   20.5298 C.ar    1  UNL1        0.0180
     19 C           4.8290    0.3730   19.4130 C.ar    1  UNL1        0.0382
     20 C           4.5177   -0.9607   18.8013 C.ar    1  UNL1        0.1386
     21 C           3.3565   -1.7648   19.3062 C.ar    1  UNL1        0.0382
     22 C           2.5065   -1.2352   20.4229 C.ar    1  UNL1        0.0180
     23 O           5.3677   -1.4904   17.6847 O.3     1  UNL1       -0.4754
     24 C           6.5285   -2.3908   17.9878 C.3     1  UNL1        0.2068
     25 C           7.6406   -1.9089   18.8717 C.3     1  UNL1        0.0646
     26 C           7.8622   -2.5445   20.2121 C.3     1  UNL1        0.0759
     27 N           6.7611   -2.5504   21.2307 N.3     1  UNL1       -0.2726
     28 C           6.6374   -1.4192   22.2080 C.3     1  UNL1        0.0721
     29 C           5.5362   -1.4251   23.2265 C.3     1  UNL1        0.0174
     30 C           4.5588   -2.5621   23.2678 C.3     1  UNL1        0.0029
     31 C           4.6825   -3.6933   22.2905 C.3     1  UNL1        0.0174
     32 C           5.7836   -3.6875   21.2719 C.3     1  UNL1        0.0721
@<TRIPOS>BOND
     1     1     2    2
     2     2    10    1
     3    10    11   ar
     4    11    12   ar
     5    12    13   ar
     6    13    14    1
     7    13    15   ar
     8    15    16   ar
     9     2     3   am
    10     3     4    1
    11     4     5    1
    12     5     6    1
    13     6    17    1
    14    17    18   ar
    15    18    19   ar
    16    19    20   ar
    17    20    23    1
    18    23    24    1
    19    24    25    1
    20    25    26    1
    21    26    27    1
    22    27    28    1
    23    28    29    1
    24    29    30    1
    25    30    31    1
    26    31    32    1
    27    20    21   ar
    28    21    22   ar
    29     6     7   am
    30     7     8    2
    31     7     9    1
    32    16    10   ar
    33     9     3    1
    34    22    17   ar
    35    32    27    1
@<TRIPOS>MOLECULE
*****
 32 35 0 0 0
SMALL
GASTEIGER

@<TRIPOS>ATOM
      1 O           9.5358   -6.7047   26.3779 O.2     1  UNL1       -0.2699
      2 C           8.4849   -5.6345   26.3687 C.2     1  UNL1        0.2494
      3 N           7.9544   -5.1155   25.0652 N.am    1  UNL1       -0.2660
      4 C           6.9035   -4.0452   25.0559 C.3     1  UNL1        0.1160
      5 C           6.3730   -3.5262   23.7523 C.3     1  UNL1        0.1197
      6 N           6.8935   -4.0774   22.4580 N.am    1  UNL1       -0.2555
      7 C           7.9444   -5.1477   22.4673 C.2     1  UNL1        0.2497
      8 O           8.4648   -5.6990   21.1730 O.2     1  UNL1       -0.2727
      9 C           8.4749   -5.6667   23.7708 C.3     1  UNL1        0.1799
     10 C           7.9645   -5.0832   27.6630 C.ar    1  UNL1        0.0537
     11 C           7.2363   -5.9788   28.6209 C.ar    1  UNL1        0.0068
     12 C           6.7159   -5.4275   29.9152 C.ar    1  UNL1        0.0298
     13 C           6.9237   -3.9806   30.2516 C.ar    1  UNL1        0.1401
     14 F           6.4032   -3.4293   31.5460 F       1  UNL1       -0.2042
     15 C           7.6519   -3.0849   29.2938 C.ar    1  UNL1        0.0298
     16 C           8.1722   -3.6362   27.9995 C.ar    1  UNL1        0.0068
     17 C           6.3630   -3.5584   21.1545 C.ar    1  UNL1        0.0541
     18 C           4.9248   -3.7781   20.7893 C.ar    1  UNL1        0.0180
     19 C           4.3944   -3.2590   19.4857 C.ar    1  UNL1        0.0382
     20 C           5.3021   -2.5204   18.5474 C.ar    1  UNL1        0.1386
     21 C           6.7403   -2.3007   18.9127 C.ar    1  UNL1        0.0382
     22 C           7.2707   -2.8197   20.2162 C.ar    1  UNL1        0.0180
     23 O           4.7716   -2.0014   17.2439 O.3     1  UNL1       -0.4754
     24 C           4.3757   -0.5603   17.1158 C.3     1  UNL1        0.2068
     25 C           3.1058   -0.0723   17.7479 C.3     1  UNL1        0.0646
     26 C           3.1626    0.8430   18.9349 C.3     1  UNL1        0.0759
     27 N           3.5658    0.3072   20.2766 N.3     1  UNL1       -0.2726
     28 C           2.5631   -0.4127   21.1289 C.3     1  UNL1        0.0721
     29 C           2.9664   -0.9485   22.4707 C.3     1  UNL1        0.0174
     30 C           4.3723   -0.7644   22.9602 C.3     1  UNL1        0.0029
     31 C           5.3750   -0.0445   22.1079 C.3     1  UNL1        0.0174
     32 C           4.9717    0.4913   20.7661 C.3     1  UNL1        0.0721
@<TRIPOS>BOND
     1     1     2    2
     2     2    10    1
     3    10    11   ar
     4    11    12   ar
     5    12    13   ar
     6    13    14    1
     7    13    15   ar
     8    15    16   ar
     9     2     3   am
    10     3     4    1
    11     4     5    1
    12     5     6    1
    13     6    17    1
    14    17    18   ar
    15    18    19   ar
    16    19    20   ar
    17    20    23    1
    18    23    24    1
    19    24    25    1
    20    25    26    1
    21    26    27    1
    22    27    28    1
    23    28    29    1
    24    29    30    1
    25    30    31    1
    26    31    32    1
    27    20    21   ar
    28    21    22   ar
    29     6     7   am
    30     7     8    2
    31     7     9    1
    32    16    10   ar
    33     9     3    1
    34    22    17   ar
    35    32    27    1
@<TRIPOS>MOLECULE
*****
 32 35 0 0 0
SMALL
GASTEIGER

@<TRIPOS>ATOM
      1 O          -4.4759    5.1948   20.4606 O.2     1  UNL1       -0.2699
      2 C          -3.5033    4.4798   21.3511 C.2     1  UNL1        0.2494
      3 N          -2.2630    3.8691   20.7693 N.am    1  UNL1       -0.2660
      4 C          -1.2904    3.1541   21.6597 C.3     1  UNL1        0.1160
      5 C          -0.0500    2.5433   21.0779 C.3     1  UNL1        0.1197
      6 N           0.2177    2.6475   19.6057 N.am    1  UNL1       -0.2555
      7 C          -0.7549    3.3625   18.7152 C.2     1  UNL1        0.2497
      8 O          -0.4871    3.4667   17.2431 O.2     1  UNL1       -0.2727
      9 C          -1.9952    3.9733   19.2970 C.3     1  UNL1        0.1799
     10 C          -3.7711    4.3756   22.8233 C.ar    1  UNL1        0.0537
     11 C          -3.1141    5.3314   23.7746 C.ar    1  UNL1        0.0068
     12 C          -3.3819    5.2271   25.2468 C.ar    1  UNL1        0.0298
     13 C          -4.3067    4.1672   25.7677 C.ar    1  UNL1        0.1401
     14 F          -4.5745    4.0630   27.2400 F       1  UNL1       -0.2042
     15 C          -4.9636    3.2115   24.8164 C.ar    1  UNL1        0.0298
     16 C          -4.6958    3.3157   23.3443 C.ar    1  UNL1        0.0068
     17 C           1.4580    2.0367   19.0239 C.ar    1  UNL1        0.0541
     18 C           2.7289    2.8314   18.9652 C.ar    1  UNL1        0.0180
     19 C           3.9692    2.2206   18.3834 C.ar    1  UNL1        0.0382
     20 C           3.9387    0.8151   17.8603 C.ar    1  UNL1        0.1386
     21 C           2.6679    0.0204   17.9190 C.ar    1  UNL1        0.0382
     22 C           1.4276    0.6312   18.5008 C.ar    1  UNL1        0.0180
     23 O           5.1790    0.2043   17.2785 O.3     1  UNL1       -0.4754
     24 C           5.4808   -1.2465   17.5112 C.3     1  UNL1        0.2068
     25 C           6.5483   -1.6434   18.4873 C.3     1  UNL1        0.0646
     26 C           6.1817   -1.9896   19.9000 C.3     1  UNL1        0.0759
     27 N           5.1594   -1.1713   20.6316 N.3     1  UNL1       -0.2726
     28 C           3.7917   -1.7323   20.8858 C.3     1  UNL1        0.0721
     29 C           2.7694   -0.9139   21.6174 C.3     1  UNL1        0.0174
     30 C           3.1149    0.4654   22.0949 C.3     1  UNL1        0.0029
     31 C           4.4826    1.0264   21.8407 C.3     1  UNL1        0.0174
     32 C           5.5049    0.2081   21.1091 C.3     1  UNL1        0.0721
@<TRIPOS>BOND
     1     1     2    2
     2     2    10    1
     3    10    11   ar
     4    11    12   ar
     5    12    13   ar
     6    13    14    1
     7    13    15   ar
     8    15    16   ar
     9     2     3   am
    10     3     4    1
    11     4     5    1
    12     5     6    1
    13     6    17    1
    14    17    18   ar
    15    18    19   ar
    16    19    20   ar
    17    20    23    1
    18    23    24    1
    19    24    25    1
    20    25    26    1
    21    26    27    1
    22    27    28    1
    23    28    29    1
    24    29    30    1
    25    30    31    1
    26    31    32    1
    27    20    21   ar
    28    21    22   ar
    29     6     7   am
    30     7     8    2
    31     7     9    1
    32    16    10   ar
    33     9     3    1
    34    22    17   ar
    35    32    27    1
@<TRIPOS>MOLECULE
*****
 32 35 0 0 0
SMALL
GASTEIGER

@<TRIPOS>ATOM
      1 O          -1.7742    3.4804   20.7123 O.2     1  UNL1       -0.2699
      2 C          -0.6286    2.6820   21.2601 C.2     1  UNL1        0.2494
      3 N          -0.4620    2.5293   22.7429 N.am    1  UNL1       -0.2660
      4 C           0.6836    1.7308   23.2906 C.3     1  UNL1        0.1160
      5 C           0.8502    1.5782   24.7736 C.3     1  UNL1        0.1197
      6 N          -0.1288    2.2240   25.7087 N.am    1  UNL1       -0.2555
      7 C          -1.2744    3.0224   25.1609 C.2     1  UNL1        0.2497
      8 O          -2.2534    3.6682   26.0960 O.2     1  UNL1       -0.2727
      9 C          -1.4410    3.1751   23.6781 C.3     1  UNL1        0.1799
     10 C           0.3504    2.0362   20.3249 C.ar    1  UNL1        0.0537
     11 C           1.3581    2.8757   19.5970 C.ar    1  UNL1        0.0068
     12 C           2.3371    2.2299   18.6619 C.ar    1  UNL1        0.0298
     13 C           2.3083    0.7445   18.4546 C.ar    1  UNL1        0.1401
     14 F           3.2874    0.0987   17.5194 F       1  UNL1       -0.2042
     15 C           1.3007   -0.0950   19.1824 C.ar    1  UNL1        0.0298
     16 C           0.3217    0.5508   20.1175 C.ar    1  UNL1        0.0068
     17 C           0.0378    2.0713   27.1915 C.ar    1  UNL1        0.0541
     18 C           0.8799    3.0491   27.9563 C.ar    1  UNL1        0.0180
     19 C           1.0465    2.8964   29.4392 C.ar    1  UNL1        0.0382
     20 C           0.3711    1.7659   30.1573 C.ar    1  UNL1        0.1386
     21 C          -0.4710    0.7881   29.3926 C.ar    1  UNL1        0.0382
     22 C          -0.6376    0.9408   27.9097 C.ar    1  UNL1        0.0180
     23 O           0.5377    1.6132   31.6402 O.3     1  UNL1       -0.4754
     24 C           1.8179    2.0349   32.2984 C.3     1  UNL1        0.2068
     25 C           2.8183    1.0013   32.7240 C.3     1  UNL1        0.0646
     26 C           3.9762    0.6660   31.8313 C.3     1  UNL1        0.0759
     27 N           3.7646    0.5124   30.3543 N.3     1  UNL1       -0.2726
     28 C           4.3837    1.4921   29.4020 C.3     1  UNL1        0.0721
     29 C           4.1721    1.3384   27.9250 C.3     1  UNL1        0.0174
     30 C           3.3415    0.2050   27.4002 C.3     1  UNL1        0.0029
     31 C           2.7224   -0.7748   28.3525 C.3     1  UNL1        0.0174
     32 C           2.9340   -0.6211   29.8295 C.3     1  UNL1        0.0721
@<TRIPOS>BOND
     1     1     2    2
     2     2    10    1
     3    10    11   ar
     4    11    12   ar
     5    12    13   ar
     6    13    14    1
     7    13    15   ar
     8    15    16   ar
     9     2     3   am
    10     3     4    1
    11     4     5    1
    12     5     6    1
    13     6    17    1
    14    17    18   ar
    15    18    19   ar
    16    19    20   ar
    17    20    23    1
    18    23    24    1
    19    24    25    1
    20    25    26    1
    21    26    27    1
    22    27    28    1
    23    28    29    1
    24    29    30    1
    25    30    31    1
    26    31    32    1
    27    20    21   ar
    28    21    22   ar
    29     6     7   am
    30     7     8    2
    31     7     9    1
    32    16    10   ar
    33     9     3    1
    34    22    17   ar
    35    32    27    1
@<TRIPOS>MOLECULE
*****
 32 35 0 0 0
SMALL
GASTEIGER

@<TRIPOS>ATOM
      1 O          -4.1358    5.4872   20.5333 O.2     1  UNL1       -0.2699
      2 C          -3.2238    4.6574   21.3877 C.2     1  UNL1        0.2494
      3 N          -2.0183    4.0023   20.7814 N.am    1  UNL1       -0.2660
      4 C          -1.1064    3.1726   21.6357 C.3     1  UNL1        0.1160
      5 C           0.0992    2.5174   21.0294 C.3     1  UNL1        0.1197
      6 N           0.3927    2.6920   19.5688 N.am    1  UNL1       -0.2555
      7 C          -0.5193    3.5217   18.7145 C.2     1  UNL1        0.2497
      8 O          -0.2258    3.6963   17.2539 O.2     1  UNL1       -0.2727
      9 C          -1.7248    4.1768   19.3208 C.3     1  UNL1        0.1799
     10 C          -3.5173    4.4829   22.8483 C.ar    1  UNL1        0.0537
     11 C          -4.4478    3.3973   23.3018 C.ar    1  UNL1        0.0068
     12 C          -4.7413    3.2228   24.7624 C.ar    1  UNL1        0.0298
     13 C          -4.1044    4.1339   25.7695 C.ar    1  UNL1        0.1401
     14 F          -4.3979    3.9593   27.2301 F       1  UNL1       -0.2042
     15 C          -3.1739    5.2195   25.3160 C.ar    1  UNL1        0.0298
     16 C          -2.8804    5.3940   23.8554 C.ar    1  UNL1        0.0068
     17 C           1.5981    2.0368   18.9626 C.ar    1  UNL1        0.0541
     18 C           1.5186    0.6182   18.4819 C.ar    1  UNL1        0.0180
     19 C           2.7242   -0.0370   17.8756 C.ar    1  UNL1        0.0382
     20 C           4.0091    0.7265   17.7501 C.ar    1  UNL1        0.1386
     21 C           4.0887    2.1452   18.2307 C.ar    1  UNL1        0.0382
     22 C           2.8832    2.8004   18.8370 C.ar    1  UNL1        0.0180
     23 O           5.2146    0.0714   17.1438 O.3     1  UNL1       -0.4754
     24 C           6.5898    0.5439   17.5120 C.3     1  UNL1        0.2068
     25 C           7.4846   -0.3272   18.3431 C.3     1  UNL1        0.0646
     26 C           6.9735   -0.9253   19.6202 C.3     1  UNL1        0.0759
     27 N           5.8276   -1.8927   19.5894 N.3     1  UNL1       -0.2726
     28 C           4.6594   -1.7013   20.5106 C.3     1  UNL1        0.0721
     29 C           3.5135   -2.6688   20.4798 C.3     1  UNL1        0.0174
     30 C           3.5359   -3.8277   19.5277 C.3     1  UNL1        0.0029
     31 C           4.7040   -4.0191   18.6065 C.3     1  UNL1        0.0174
     32 C           5.8499   -3.0517   18.6373 C.3     1  UNL1        0.0721
@<TRIPOS>BOND
     1     1     2    2
     2     2    10    1
     3    10    11   ar
     4    11    12   ar
     5    12    13   ar
     6    13    14    1
     7    13    15   ar
     8    15    16   ar
     9     2     3   am
    10     3     4    1
    11     4     5    1
    12     5     6    1
    13     6    17    1
    14    17    18   ar
    15    18    19   ar
    16    19    20   ar
    17    20    23    1
    18    23    24    1
    19    24    25    1
    20    25    26    1
    21    26    27    1
    22    27    28    1
    23    28    29    1
    24    29    30    1
    25    30    31    1
    26    31    32    1
    27    20    21   ar
    28    21    22   ar
    29     6     7   am
    30     7     8    2
    31     7     9    1
    32    16    10   ar
    33     9     3    1
    34    22    17   ar
    35    32    27    1
@<TRIPOS>MOLECULE
*****
 32 35 0 0 0
SMALL
GASTEIGER

@<TRIPOS>ATOM
      1 O           0.5529    0.9704   18.6110 O.2     1  UNL1       -0.2699
      2 C           1.5261    0.4366   19.6199 C.2     1  UNL1        0.2494
      3 N           1.3909    0.8141   21.0652 N.am    1  UNL1       -0.2660
      4 C           2.3641    0.2803   22.0741 C.3     1  UNL1        0.1160
      5 C           2.2288    0.6579   23.5195 C.3     1  UNL1        0.1197
      6 N           1.1203    1.5692   23.9560 N.am    1  UNL1       -0.2555
      7 C           0.1470    2.1030   22.9472 C.2     1  UNL1        0.2497
      8 O          -0.9615    3.0144   23.3836 O.2     1  UNL1       -0.2727
      9 C           0.2823    1.7255   21.5018 C.3     1  UNL1        0.1799
     10 C           2.6347   -0.4748   19.1833 C.ar    1  UNL1        0.0537
     11 C           3.6626    0.0100   18.2043 C.ar    1  UNL1        0.0068
     12 C           4.7711   -0.9014   17.7678 C.ar    1  UNL1        0.0298
     13 C           4.8516   -2.2976   18.3103 C.ar    1  UNL1        0.1401
     14 F           5.9602   -3.2090   17.8737 F       1  UNL1       -0.2042
     15 C           3.8238   -2.7824   19.2892 C.ar    1  UNL1        0.0298
     16 C           2.7153   -1.8710   19.7257 C.ar    1  UNL1        0.0068
     17 C           0.9850    1.9468   25.4014 C.ar    1  UNL1        0.0541
     18 C           1.8905    2.9861   25.9930 C.ar    1  UNL1        0.0180
     19 C           1.7552    3.3636   27.4385 C.ar    1  UNL1        0.0382
     20 C           0.7144    2.7018   28.2922 C.ar    1  UNL1        0.1386
     21 C          -0.1910    1.6625   27.7006 C.ar    1  UNL1        0.0382
     22 C          -0.0557    1.2850   26.2552 C.ar    1  UNL1        0.0180
     23 O           0.5792    3.0793   29.7376 O.3     1  UNL1       -0.4754
     24 C           0.4810    2.0109   30.7858 C.3     1  UNL1        0.2068
     25 C           1.6640    1.7017   31.6547 C.3     1  UNL1        0.0646
     26 C           2.5872    0.5764   31.2921 C.3     1  UNL1        0.0759
     27 N           3.0971    0.4476   29.8874 N.3     1  UNL1       -0.2726
     28 C           2.4947   -0.5667   28.9609 C.3     1  UNL1        0.0721
     29 C           3.0046   -0.6954   27.5561 C.3     1  UNL1        0.0174
     30 C           4.1169    0.1901   27.0778 C.3     1  UNL1        0.0029
     31 C           4.7192    1.2043   28.0043 C.3     1  UNL1        0.0174
     32 C           4.2094    1.3332   29.4090 C.3     1  UNL1        0.0721
@<TRIPOS>BOND
     1     1     2    2
     2     2    10    1
     3    10    11   ar
     4    11    12   ar
     5    12    13   ar
     6    13    14    1
     7    13    15   ar
     8    15    16   ar
     9     2     3   am
    10     3     4    1
    11     4     5    1
    12     5     6    1
    13     6    17    1
    14    17    18   ar
    15    18    19   ar
    16    19    20   ar
    17    20    23    1
    18    23    24    1
    19    24    25    1
    20    25    26    1
    21    26    27    1
    22    27    28    1
    23    28    29    1
    24    29    30    1
    25    30    31    1
    26    31    32    1
    27    20    21   ar
    28    21    22   ar
    29     6     7   am
    30     7     8    2
    31     7     9    1
    32    16    10   ar
    33     9     3    1
    34    22    17   ar
    35    32    27    1
@<TRIPOS>MOLECULE
*****
 32 35 0 0 0
SMALL
GASTEIGER

@<TRIPOS>ATOM
      1 O           9.4256   -4.8161   21.8401 O.2     1  UNL1       -0.2699
      2 C           8.2872   -4.7485   22.8144 C.2     1  UNL1        0.2494
      3 N           7.0722   -3.9298   22.4926 N.am    1  UNL1       -0.2660
      4 C           5.9337   -3.8622   23.4669 C.3     1  UNL1        0.1160
      5 C           4.7187   -3.0434   23.1450 C.3     1  UNL1        0.1197
      6 N           4.6423   -2.2924   21.8488 N.am    1  UNL1       -0.2555
      7 C           5.7807   -2.3601   20.8745 C.2     1  UNL1        0.2497
      8 O           5.7043   -1.6090   19.5783 O.2     1  UNL1       -0.2727
      9 C           6.9957   -3.1787   21.1963 C.3     1  UNL1        0.1799
     10 C           8.3637   -5.4996   24.1106 C.ar    1  UNL1        0.0537
     11 C           8.0960   -6.9752   24.1393 C.ar    1  UNL1        0.0068
     12 C           8.1726   -7.7262   25.4355 C.ar    1  UNL1        0.0298
     13 C           8.5167   -7.0015   26.7030 C.ar    1  UNL1        0.1401
     14 F           8.5932   -7.7526   27.9992 F       1  UNL1       -0.2042
     15 C           8.7843   -5.5259   26.6743 C.ar    1  UNL1        0.0298
     16 C           8.7078   -4.7749   25.3781 C.ar    1  UNL1        0.0068
     17 C           3.4273   -1.4737   21.5270 C.ar    1  UNL1        0.0541
     18 C           2.9616   -0.4152   22.4822 C.ar    1  UNL1        0.0180
     19 C           1.7466    0.4035   22.1603 C.ar    1  UNL1        0.0382
     20 C           0.9973    0.1636   20.8832 C.ar    1  UNL1        0.1386
     21 C           1.4631   -0.8949   19.9279 C.ar    1  UNL1        0.0382
     22 C           2.6780   -1.7136   20.2498 C.ar    1  UNL1        0.0180
     23 O          -0.2176    0.9823   20.5614 O.3     1  UNL1       -0.4754
     24 C          -0.3555    2.3695   21.1151 C.3     1  UNL1        0.2068
     25 C          -0.3439    3.5507   20.1905 C.3     1  UNL1        0.0646
     26 C           0.9566    4.1988   19.8180 C.3     1  UNL1        0.0759
     27 N           2.2058    3.3738   19.7240 N.3     1  UNL1       -0.2726
     28 C           3.2208    3.4214   20.8273 C.3     1  UNL1        0.0721
     29 C           4.4701    2.5964   20.7332 C.3     1  UNL1        0.0174
     30 C           4.7043    1.7239   19.5358 C.3     1  UNL1        0.0029
     31 C           3.6893    1.6764   18.4324 C.3     1  UNL1        0.0174
     32 C           2.4400    2.5013   18.5265 C.3     1  UNL1        0.0721
@<TRIPOS>BOND
     1     1     2    2
     2     2    10    1
     3    10    11   ar
     4    11    12   ar
     5    12    13   ar
     6    13    14    1
     7    13    15   ar
     8    15    16   ar
     9     2     3   am
    10     3     4    1
    11     4     5    1
    12     5     6    1
    13     6    17    1
    14    17    18   ar
    15    18    19   ar
    16    19    20   ar
    17    20    23    1
    18    23    24    1
    19    24    25    1
    20    25    26    1
    21    26    27    1
    22    27    28    1
    23    28    29    1
    24    29    30    1
    25    30    31    1
    26    31    32    1
    27    20    21   ar
    28    21    22   ar
    29     6     7   am
    30     7     8    2
    31     7     9    1
    32    16    10   ar
    33     9     3    1
    34    22    17   ar
    35    32    27    1
@<TRIPOS>MOLECULE
*****
 32 35 0 0 0
SMALL
GASTEIGER

@<TRIPOS>ATOM
      1 O           3.8120    0.9456   20.2282 O.2     1  UNL1       -0.2699
      2 C           4.0222   -0.3039   21.0311 C.2     1  UNL1        0.2494
      3 N           4.0109   -0.2431   22.5298 N.am    1  UNL1       -0.2660
      4 C           4.2211   -1.4925   23.3327 C.3     1  UNL1        0.1160
      5 C           4.2097   -1.4316   24.8315 C.3     1  UNL1        0.1197
      6 N           3.9881   -0.1214   25.5273 N.am    1  UNL1       -0.2555
      7 C           3.7779    1.1280   24.7243 C.2     1  UNL1        0.2497
      8 O           3.5563    2.4383   25.4201 O.2     1  UNL1       -0.2727
      9 C           3.7893    1.0672   23.2256 C.3     1  UNL1        0.1799
     10 C           4.2439   -1.6142   20.3353 C.ar    1  UNL1        0.0537
     11 C           3.0716   -2.4077   19.8395 C.ar    1  UNL1        0.0068
     12 C           3.2932   -3.7180   19.1437 C.ar    1  UNL1        0.0298
     13 C           4.6872   -4.2346   18.9437 C.ar    1  UNL1        0.1401
     14 F           4.9088   -5.5449   18.2479 F       1  UNL1       -0.2042
     15 C           5.8595   -3.4410   19.4395 C.ar    1  UNL1        0.0298
     16 C           5.6378   -2.1308   20.1353 C.ar    1  UNL1        0.0068
     17 C           3.9767   -0.0606   27.0259 C.ar    1  UNL1        0.0541
     18 C           2.8178   -0.6279   27.7908 C.ar    1  UNL1        0.0180
     19 C           2.8065   -0.5671   29.2896 C.ar    1  UNL1        0.0382
     20 C           3.9540    0.0611   30.0234 C.ar    1  UNL1        0.1386
     21 C           5.1129    0.6284   29.2585 C.ar    1  UNL1        0.0382
     22 C           5.1243    0.5676   27.7598 C.ar    1  UNL1        0.0180
     23 O           3.9426    0.1219   31.5221 O.3     1  UNL1       -0.4754
     24 C           2.8080    0.7939   32.2369 C.3     1  UNL1        0.2068
     25 C           2.2488    2.0828   31.7114 C.3     1  UNL1        0.0646
     26 C           0.8146    2.1569   31.2784 C.3     1  UNL1        0.0759
     27 N           0.4478    1.8878   29.8491 N.3     1  UNL1       -0.2726
     28 C           1.0687    2.6981   28.7501 C.3     1  UNL1        0.0721
     29 C           0.7018    2.4290   27.3207 C.3     1  UNL1        0.0174
     30 C          -0.2859    1.3495   26.9904 C.3     1  UNL1        0.0029
     31 C          -0.9068    0.5392   28.0894 C.3     1  UNL1        0.0174
     32 C          -0.5400    0.8083   29.5187 C.3     1  UNL1        0.0721
@<TRIPOS>BOND
     1     1     2    2
     2     2    10    1
     3    10    11   ar
     4    11    12   ar
     5    12    13   ar
     6    13    14    1
     7    13    15   ar
     8    15    16   ar
     9     2     3   am
    10     3     4    1
    11     4     5    1
    12     5     6    1
    13     6    17    1
    14    17    18   ar
    15    18    19   ar
    16    19    20   ar
    17    20    23    1
    18    23    24    1
    19    24    25    1
    20    25    26    1
    21    26    27    1
    22    27    28    1
    23    28    29    1
    24    29    30    1
    25    30    31    1
    26    31    32    1
    27    20    21   ar
    28    21    22   ar
    29     6     7   am
    30     7     8    2
    31     7     9    1
    32    16    10   ar
    33     9     3    1
    34    22    17   ar
    35    32    27    1
