@<TRIPOS>MOLECULE
*****
 36 40 0 0 0
SMALL
GASTEIGER

@<TRIPOS>ATOM
      1 N          -8.9074  -18.2221   21.2539 N.3     1  UNL1       -0.2641
      2 C          -9.5329  -18.9019   22.4357 C.3     1  UNL1        0.0981
      3 C          -8.7982  -20.0010   23.1443 C.3     1  UNL1        0.0224
      4 C          -9.4237  -20.6808   24.3261 C.3     1  UNL1        0.0065
      5 C         -10.7840  -20.2615   24.7992 C.3     1  UNL1        0.0277
      6 C         -11.5187  -19.1624   24.0906 C.ar    1  UNL1       -0.0073
      7 C         -12.8790  -18.7431   24.5638 C.ar    1  UNL1       -0.0015
      8 C         -13.6137  -17.6440   23.8552 C.ar    1  UNL1        0.0203
      9 C         -12.9882  -16.9642   22.6734 C.ar    1  UNL1        0.0985
     10 N         -11.6279  -17.3835   22.2002 N.ar    1  UNL1       -0.2471
     11 C         -10.8931  -18.4826   22.9089 C.ar    1  UNL1        0.0695
     12 C          -8.8703  -18.9140   19.9236 C.3     1  UNL1        0.0989
     13 C          -6.5258  -19.9289   20.3964 C.2     1  UNL1       -0.0122
     14 C          -7.8256  -19.9547   19.6483 C.2     1  UNL1       -0.0120
     15 C          -5.4812  -20.9695   20.1212 C.3     1  UNL1        0.0953
     16 N          -4.0966  -20.5547   19.7200 N.3     1  UNL1       -0.2900
     17 H          -4.1930  -19.7034   19.1665 H       1  UNL1        0.1239
     18 C          -3.0639  -20.2733   20.7709 C.3     1  UNL1        0.0974
     19 C          -2.6236  -18.8632   21.0311 C.ar    1  UNL1        0.0128
     20 C          -1.5245  -18.2570   20.2099 C.ar    1  UNL1        0.0002
     21 C          -1.0841  -16.8470   20.4702 C.ar    1  UNL1        0.0204
     22 C          -1.7429  -16.0430   21.5517 C.ar    1  UNL1        0.0989
     23 N          -2.8420  -16.6492   22.3729 N.ar    1  UNL1       -0.2426
     24 C          -3.2824  -18.0592   22.1127 C.ar    1  UNL1        0.0959
     25 C          -8.3189  -16.8504   21.4025 C.3     1  UNL1        0.0888
     26 C          -7.7154  -16.4308   22.7101 C.3     1  UNL1        0.0748
     27 C          -8.6000  -16.1469   23.8877 C.3     1  UNL1        0.0432
     28 C          -7.9964  -15.7273   25.1953 C.ar    1  UNL1       -0.0234
     29 C          -8.8810  -15.4434   26.3729 C.ar    1  UNL1       -0.0045
     30 C          -8.2774  -15.0238   27.6804 C.ar    1  UNL1       -0.0003
     31 C          -6.7892  -14.8881   27.8103 C.ar    1  UNL1       -0.0003
     32 C          -5.9046  -15.1719   26.6327 C.ar    1  UNL1       -0.0032
     33 C          -6.5082  -15.5915   25.3252 C.ar    1  UNL1       -0.0103
     34 C          -5.6236  -15.8754   24.1475 C.3     1  UNL1        0.0953
     35 N          -6.2272  -16.2950   22.8400 N.3     1  UNL1       -0.2934
     36 H          -5.8273  -17.2046   22.6095 H       1  UNL1        0.1236
@<TRIPOS>BOND
     1    13    14    2
     2    14    12    1
     3    12     1    1
     4     1    25    1
     5    26    25    1
     6    26    27    1
     7    27    28    1
     8    28    29   ar
     9    29    30   ar
    10    30    31   ar
    11    31    32   ar
    12    32    33   ar
    13    33    34    1
    14    34    35    1
    15     2     1    1
    16     2     3    1
    17     3     4    1
    18     4     5    1
    19     5     6    1
    20     6     7   ar
    21     7     8   ar
    22     8     9   ar
    23     9    10   ar
    24    10    11   ar
    25    13    15    1
    26    15    16    1
    27    16    18    1
    28    18    19    1
    29    19    20   ar
    30    20    21   ar
    31    21    22   ar
    32    22    23   ar
    33    23    24   ar
    34    35    26    1
    35    11     2    1
    36    24    19   ar
    37    33    28   ar
    38    11     6   ar
    39    35    36    1
    40    16    17    1
@<TRIPOS>MOLECULE
*****
 36 40 0 0 0
SMALL
GASTEIGER

@<TRIPOS>ATOM
      1 N         -10.8522  -17.1035   21.0838 N.3     1  UNL1       -0.2641
      2 C         -11.5203  -17.6946   22.2898 C.3     1  UNL1        0.0981
      3 C         -12.8805  -17.2164   22.7035 C.3     1  UNL1        0.0224
      4 C         -13.5486  -17.8074   23.9094 C.3     1  UNL1        0.0065
      5 C         -12.8565  -18.8767   24.7017 C.3     1  UNL1        0.0277
      6 C         -11.4963  -19.3548   24.2880 C.ar    1  UNL1       -0.0073
      7 C         -10.8041  -20.4241   25.0803 C.ar    1  UNL1       -0.0015
      8 C          -9.4439  -20.9023   24.6666 C.ar    1  UNL1        0.0203
      9 C          -8.7759  -20.3113   23.4606 C.ar    1  UNL1        0.0985
     10 N          -9.4679  -19.2420   22.6683 N.ar    1  UNL1       -0.2471
     11 C         -10.8282  -18.7638   23.0820 C.ar    1  UNL1        0.0695
     12 C         -10.9635  -17.7880   19.7538 C.3     1  UNL1        0.0989
     13 C          -8.6127  -18.8915   19.8328 C.2     1  UNL1       -0.0122
     14 C         -10.0546  -18.9343   19.4218 C.2     1  UNL1       -0.0120
     15 C          -7.7039  -20.0376   19.5007 C.3     1  UNL1        0.0953
     16 N          -6.6971  -20.5122   20.5063 N.3     1  UNL1       -0.2900
     17 H          -6.8889  -21.5003   20.6713 H       1  UNL1        0.1239
     18 C          -5.2309  -20.3992   20.2104 C.3     1  UNL1        0.0974
     19 C          -4.3479  -19.5738   21.0988 C.ar    1  UNL1        0.0128
     20 C          -4.9333  -18.8510   22.2755 C.ar    1  UNL1        0.0002
     21 C          -4.0502  -18.0256   23.1637 C.ar    1  UNL1        0.0204
     22 C          -2.5818  -17.9232   22.8753 C.ar    1  UNL1        0.0989
     23 N          -1.9964  -18.6461   21.6986 N.ar    1  UNL1       -0.2426
     24 C          -2.8794  -19.4714   20.8103 C.ar    1  UNL1        0.0959
     25 C         -10.0728  -15.8280   21.2079 C.3     1  UNL1        0.0888
     26 C          -9.0300  -15.6871   22.2770 C.3     1  UNL1        0.0748
     27 C          -9.4185  -15.7914   23.7220 C.3     1  UNL1        0.0432
     28 C          -8.3757  -15.6505   24.7911 C.ar    1  UNL1       -0.0234
     29 C          -8.7642  -15.7547   26.2361 C.ar    1  UNL1       -0.0045
     30 C          -7.7215  -15.6139   27.3051 C.ar    1  UNL1       -0.0003
     31 C          -6.2902  -15.3689   26.9290 C.ar    1  UNL1       -0.0003
     32 C          -5.9017  -15.2647   25.4840 C.ar    1  UNL1       -0.0032
     33 C          -6.9445  -15.4055   24.4150 C.ar    1  UNL1       -0.0103
     34 C          -6.5560  -15.3013   22.9699 C.3     1  UNL1        0.0953
     35 N          -7.5987  -15.4421   21.9009 N.3     1  UNL1       -0.2934
     36 H          -7.3116  -16.2228   21.3105 H       1  UNL1        0.1236
@<TRIPOS>BOND
     1    13    14    2
     2    14    12    1
     3    12     1    1
     4     1    25    1
     5    26    25    1
     6    26    27    1
     7    27    28    1
     8    28    29   ar
     9    29    30   ar
    10    30    31   ar
    11    31    32   ar
    12    32    33   ar
    13    33    34    1
    14    34    35    1
    15     2     1    1
    16     2     3    1
    17     3     4    1
    18     4     5    1
    19     5     6    1
    20     6     7   ar
    21     7     8   ar
    22     8     9   ar
    23     9    10   ar
    24    10    11   ar
    25    13    15    1
    26    15    16    1
    27    16    18    1
    28    18    19    1
    29    19    20   ar
    30    20    21   ar
    31    21    22   ar
    32    22    23   ar
    33    23    24   ar
    34    35    26    1
    35    11     2    1
    36    24    19   ar
    37    33    28   ar
    38    11     6   ar
    39    35    36    1
    40    16    17    1
@<TRIPOS>MOLECULE
*****
 36 40 0 0 0
SMALL
GASTEIGER

@<TRIPOS>ATOM
      1 N          -8.8718  -18.0285   21.3916 N.3     1  UNL1       -0.2641
      2 C         -10.2939  -17.5516   21.3758 C.3     1  UNL1        0.0981
      3 C         -10.7905  -16.7110   20.2371 C.3     1  UNL1        0.0224
      4 C         -12.2126  -16.2341   20.2213 C.3     1  UNL1        0.0065
      5 C         -13.1381  -16.5980   21.3442 C.3     1  UNL1        0.0277
      6 C         -12.6416  -17.4387   22.4829 C.ar    1  UNL1       -0.0073
      7 C         -13.5671  -17.8026   23.6058 C.ar    1  UNL1       -0.0015
      8 C         -13.0706  -18.6433   24.7445 C.ar    1  UNL1        0.0203
      9 C         -11.6485  -19.1201   24.7603 C.ar    1  UNL1        0.0985
     10 N         -10.7229  -18.7562   23.6374 N.ar    1  UNL1       -0.2471
     11 C         -11.2195  -17.9155   22.4987 C.ar    1  UNL1        0.0695
     12 C          -8.5717  -19.4956   21.3058 C.3     1  UNL1        0.0989
     13 C          -6.2142  -20.2807   20.5470 C.2     1  UNL1       -0.0122
     14 C          -7.2002  -20.0016   21.6423 C.2     1  UNL1       -0.0120
     15 C          -4.8428  -20.7867   20.8835 C.3     1  UNL1        0.0953
     16 N          -3.7798  -20.8323   19.8261 N.3     1  UNL1       -0.2900
     17 H          -4.1298  -21.4364   19.0825 H       1  UNL1        0.1239
     18 C          -3.3176  -19.5640   19.1721 C.3     1  UNL1        0.0974
     19 C          -2.7532  -18.4524   20.0063 C.ar    1  UNL1        0.0128
     20 C          -1.5276  -17.7189   19.5483 C.ar    1  UNL1        0.0002
     21 C          -0.9632  -16.6074   20.3825 C.ar    1  UNL1        0.0204
     22 C          -1.6244  -16.2294   21.6748 C.ar    1  UNL1        0.0989
     23 N          -2.8500  -16.9629   22.1328 N.ar    1  UNL1       -0.2426
     24 C          -3.4144  -18.0744   21.2985 C.ar    1  UNL1        0.0959
     25 C          -7.7498  -17.0382   21.4932 C.3     1  UNL1        0.0888
     26 C          -7.2934  -16.5573   22.8387 C.3     1  UNL1        0.0748
     27 C          -8.2994  -16.2728   23.9144 C.3     1  UNL1        0.0432
     28 C          -7.8430  -15.7918   25.2599 C.ar    1  UNL1       -0.0234
     29 C          -8.8489  -15.5073   26.3356 C.ar    1  UNL1       -0.0045
     30 C          -8.3925  -15.0264   27.6810 C.ar    1  UNL1       -0.0003
     31 C          -6.9301  -14.8301   27.9509 C.ar    1  UNL1       -0.0003
     32 C          -5.9241  -15.1146   26.8753 C.ar    1  UNL1       -0.0032
     33 C          -6.3806  -15.5955   25.5298 C.ar    1  UNL1       -0.0103
     34 C          -5.3746  -15.8800   24.4541 C.3     1  UNL1        0.0953
     35 N          -5.8310  -16.3609   23.1086 N.3     1  UNL1       -0.2934
     36 H          -5.3786  -17.2610   22.9485 H       1  UNL1        0.1236
@<TRIPOS>BOND
     1    13    14    2
     2    14    12    1
     3    12     1    1
     4     1    25    1
     5    26    25    1
     6    26    27    1
     7    27    28    1
     8    28    29   ar
     9    29    30   ar
    10    30    31   ar
    11    31    32   ar
    12    32    33   ar
    13    33    34    1
    14    34    35    1
    15     2     1    1
    16     2     3    1
    17     3     4    1
    18     4     5    1
    19     5     6    1
    20     6     7   ar
    21     7     8   ar
    22     8     9   ar
    23     9    10   ar
    24    10    11   ar
    25    13    15    1
    26    15    16    1
    27    16    18    1
    28    18    19    1
    29    19    20   ar
    30    20    21   ar
    31    21    22   ar
    32    22    23   ar
    33    23    24   ar
    34    35    26    1
    35    11     2    1
    36    24    19   ar
    37    33    28   ar
    38    11     6   ar
    39    35    36    1
    40    16    17    1
@<TRIPOS>MOLECULE
*****
 36 40 0 0 0
SMALL
GASTEIGER

@<TRIPOS>ATOM
      1 N          -8.8795  -17.6416   21.4889 N.3     1  UNL1       -0.2641
      2 C         -10.3566  -17.3941   21.4053 C.3     1  UNL1        0.0981
      3 C         -10.9364  -16.7157   20.1997 C.3     1  UNL1        0.0224
      4 C         -12.4134  -16.4682   20.1161 C.3     1  UNL1        0.0065
      5 C         -13.3108  -16.8990   21.2382 C.3     1  UNL1        0.0277
      6 C         -12.7310  -17.5774   22.4439 C.ar    1  UNL1       -0.0073
      7 C         -13.6284  -18.0082   23.5660 C.ar    1  UNL1       -0.0015
      8 C         -13.0486  -18.6866   24.7717 C.ar    1  UNL1        0.0203
      9 C         -11.5715  -18.9341   24.8553 C.ar    1  UNL1        0.0985
     10 N         -10.6742  -18.5033   23.7332 N.ar    1  UNL1       -0.2471
     11 C         -11.2539  -17.8249   22.5274 C.ar    1  UNL1        0.0695
     12 C          -7.9872  -16.6365   22.1548 C.3     1  UNL1        0.0989
     13 C          -8.5797  -15.8899   24.5718 C.2     1  UNL1       -0.0122
     14 C          -7.7459  -16.7111   23.6335 C.2     1  UNL1       -0.0120
     15 C          -8.3383  -15.9645   26.0503 C.3     1  UNL1        0.0953
     16 N          -7.4595  -14.9493   26.7190 N.3     1  UNL1       -0.2900
     17 H          -7.7834  -14.8686   27.6828 H       1  UNL1        0.1239
     18 C          -5.9761  -15.1636   26.7773 C.3     1  UNL1        0.0974
     19 C          -5.2453  -15.6819   25.5741 C.ar    1  UNL1        0.0128
     20 C          -4.5608  -17.0154   25.6292 C.ar    1  UNL1        0.0002
     21 C          -3.8301  -17.5336   24.4261 C.ar    1  UNL1        0.0204
     22 C          -3.7839  -16.7183   23.1679 C.ar    1  UNL1        0.0989
     23 N          -4.4684  -15.3847   23.1128 N.ar    1  UNL1       -0.2426
     24 C          -5.1991  -14.8665   24.3159 C.ar    1  UNL1        0.0959
     25 C          -8.2948  -18.8942   20.9066 C.3     1  UNL1        0.0888
     26 C          -6.8188  -19.1455   20.9973 C.3     1  UNL1        0.0748
     27 C          -5.8951  -18.5693   19.9653 C.3     1  UNL1        0.0432
     28 C          -4.4191  -18.8206   20.0560 C.ar    1  UNL1       -0.0234
     29 C          -3.4954  -18.2445   19.0241 C.ar    1  UNL1       -0.0045
     30 C          -2.0194  -18.4958   19.1148 C.ar    1  UNL1       -0.0003
     31 C          -1.4671  -19.3232   20.2374 C.ar    1  UNL1       -0.0003
     32 C          -2.3907  -19.8994   21.2693 C.ar    1  UNL1       -0.0032
     33 C          -3.8667  -19.6481   21.1786 C.ar    1  UNL1       -0.0103
     34 C          -4.7904  -20.2242   22.2106 C.3     1  UNL1        0.0953
     35 N          -6.2664  -19.9729   22.1199 N.3     1  UNL1       -0.2934
     36 H          -6.5406  -19.5123   22.9877 H       1  UNL1        0.1236
@<TRIPOS>BOND
     1    13    14    2
     2    14    12    1
     3    12     1    1
     4     1    25    1
     5    26    25    1
     6    26    27    1
     7    27    28    1
     8    28    29   ar
     9    29    30   ar
    10    30    31   ar
    11    31    32   ar
    12    32    33   ar
    13    33    34    1
    14    34    35    1
    15     2     1    1
    16     2     3    1
    17     3     4    1
    18     4     5    1
    19     5     6    1
    20     6     7   ar
    21     7     8   ar
    22     8     9   ar
    23     9    10   ar
    24    10    11   ar
    25    13    15    1
    26    15    16    1
    27    16    18    1
    28    18    19    1
    29    19    20   ar
    30    20    21   ar
    31    21    22   ar
    32    22    23   ar
    33    23    24   ar
    34    35    26    1
    35    11     2    1
    36    24    19   ar
    37    33    28   ar
    38    11     6   ar
    39    35    36    1
    40    16    17    1
@<TRIPOS>MOLECULE
*****
 36 40 0 0 0
SMALL
GASTEIGER

@<TRIPOS>ATOM
      1 N          -7.4685  -18.4274   21.7453 N.3     1  UNL1       -0.2641
      2 C          -8.8367  -18.8596   22.1825 C.3     1  UNL1        0.0981
      3 C          -8.9964  -20.0559   23.0731 C.3     1  UNL1        0.0224
      4 C         -10.3646  -20.4881   23.5104 C.3     1  UNL1        0.0065
      5 C         -11.5731  -19.7240   23.0570 C.3     1  UNL1        0.0277
      6 C         -11.4134  -18.5277   22.1663 C.ar    1  UNL1       -0.0073
      7 C         -12.6220  -17.7635   21.7129 C.ar    1  UNL1       -0.0015
      8 C         -12.4622  -16.5672   20.8223 C.ar    1  UNL1        0.0203
      9 C         -11.0940  -16.1350   20.3850 C.ar    1  UNL1        0.0985
     10 N          -9.8855  -16.8991   20.8384 N.ar    1  UNL1       -0.2471
     11 C         -10.0452  -18.0955   21.7291 C.ar    1  UNL1        0.0695
     12 C          -6.9416  -17.0826   22.1502 C.3     1  UNL1        0.0989
     13 C          -5.6212  -15.6121   23.8367 C.2     1  UNL1       -0.0122
     14 C          -6.3189  -16.8971   23.5022 C.2     1  UNL1       -0.0120
     15 C          -4.9985  -15.4267   25.1886 C.3     1  UNL1        0.0953
     16 N          -5.5701  -14.4237   26.1465 N.3     1  UNL1       -0.2900
     17 H          -5.8625  -13.6197   25.5911 H       1  UNL1        0.1239
     18 C          -6.7342  -14.7959   27.0160 C.3     1  UNL1        0.0974
     19 C          -7.8049  -15.7041   26.4877 C.ar    1  UNL1        0.0128
     20 C          -8.5771  -15.3188   25.2608 C.ar    1  UNL1        0.0002
     21 C          -9.6477  -16.2269   24.7326 C.ar    1  UNL1        0.0204
     22 C          -9.9461  -17.5203   25.4312 C.ar    1  UNL1        0.0989
     23 N          -9.1738  -17.9056   26.6580 N.ar    1  UNL1       -0.2426
     24 C          -8.1032  -16.9975   27.1863 C.ar    1  UNL1        0.0959
     25 C          -6.6271  -19.3399   20.9031 C.3     1  UNL1        0.0888
     26 C          -5.1362  -19.1764   20.8795 C.3     1  UNL1        0.0748
     27 C          -4.4666  -18.5739   19.6801 C.3     1  UNL1        0.0432
     28 C          -2.9757  -18.4103   19.6565 C.ar    1  UNL1       -0.0234
     29 C          -2.3062  -17.8078   18.4571 C.ar    1  UNL1       -0.0045
     30 C          -0.8153  -17.6443   18.4336 C.ar    1  UNL1       -0.0003
     31 C           0.0060  -18.0834   19.6095 C.ar    1  UNL1       -0.0003
     32 C          -0.6636  -18.6859   20.8089 C.ar    1  UNL1       -0.0032
     33 C          -2.1544  -18.8494   20.8324 C.ar    1  UNL1       -0.0103
     34 C          -2.8240  -19.4519   22.0319 C.3     1  UNL1        0.0953
     35 N          -4.3149  -19.6154   22.0554 N.3     1  UNL1       -0.2934
     36 H          -4.6555  -19.0944   22.8634 H       1  UNL1        0.1236
@<TRIPOS>BOND
     1    13    14    2
     2    14    12    1
     3    12     1    1
     4     1    25    1
     5    26    25    1
     6    26    27    1
     7    27    28    1
     8    28    29   ar
     9    29    30   ar
    10    30    31   ar
    11    31    32   ar
    12    32    33   ar
    13    33    34    1
    14    34    35    1
    15     2     1    1
    16     2     3    1
    17     3     4    1
    18     4     5    1
    19     5     6    1
    20     6     7   ar
    21     7     8   ar
    22     8     9   ar
    23     9    10   ar
    24    10    11   ar
    25    13    15    1
    26    15    16    1
    27    16    18    1
    28    18    19    1
    29    19    20   ar
    30    20    21   ar
    31    21    22   ar
    32    22    23   ar
    33    23    24   ar
    34    35    26    1
    35    11     2    1
    36    24    19   ar
    37    33    28   ar
    38    11     6   ar
    39    35    36    1
    40    16    17    1
@<TRIPOS>MOLECULE
*****
 36 40 0 0 0
SMALL
GASTEIGER

@<TRIPOS>ATOM
      1 N          -6.7099  -19.0369   22.5526 N.3     1  UNL1       -0.2641
      2 C          -8.1626  -19.3858   22.6870 C.3     1  UNL1        0.0981
      3 C          -8.7264  -19.7456   24.0296 C.3     1  UNL1        0.0224
      4 C         -10.1791  -20.0945   24.1639 C.3     1  UNL1        0.0065
      5 C         -11.0679  -20.0836   22.9557 C.3     1  UNL1        0.0277
      6 C         -10.5040  -19.7238   21.6131 C.ar    1  UNL1       -0.0073
      7 C         -11.3929  -19.7129   20.4048 C.ar    1  UNL1       -0.0015
      8 C         -10.8290  -19.3531   19.0622 C.ar    1  UNL1        0.0203
      9 C          -9.3763  -19.0042   18.9278 C.ar    1  UNL1        0.0985
     10 N          -8.4875  -19.0151   20.1361 N.ar    1  UNL1       -0.2471
     11 C          -9.0514  -19.3749   21.4787 C.ar    1  UNL1        0.0695
     12 C          -6.2105  -17.7066   23.0331 C.3     1  UNL1        0.0989
     13 C          -7.4743  -16.2957   24.8113 C.2     1  UNL1       -0.0122
     14 C          -7.1850  -16.6188   23.3755 C.2     1  UNL1       -0.0120
     15 C          -8.4487  -15.2079   25.1536 C.3     1  UNL1        0.0953
     16 N          -9.8268  -15.2218   24.5614 N.3     1  UNL1       -0.2900
     17 H          -9.8816  -14.4270   23.9245 H       1  UNL1        0.1239
     18 C         -10.3031  -16.4219   23.7981 C.3     1  UNL1        0.0974
     19 C         -10.8590  -16.2588   22.4144 C.ar    1  UNL1        0.0128
     20 C         -12.3041  -16.5582   22.1466 C.ar    1  UNL1        0.0002
     21 C         -12.8599  -16.3950   20.7630 C.ar    1  UNL1        0.0204
     22 C         -11.9705  -15.9324   19.6472 C.ar    1  UNL1        0.0989
     23 N         -10.5254  -15.6330   19.9150 N.ar    1  UNL1       -0.2426
     24 C          -9.9696  -15.7962   21.2986 C.ar    1  UNL1        0.0959
     25 C          -5.7566  -20.0183   21.9378 C.3     1  UNL1        0.0888
     26 C          -4.4070  -19.5605   21.4698 C.3     1  UNL1        0.0748
     27 C          -4.2396  -19.0145   20.0828 C.3     1  UNL1        0.0432
     28 C          -2.8899  -18.5567   19.6148 C.ar    1  UNL1       -0.0234
     29 C          -2.7225  -18.0107   18.2278 C.ar    1  UNL1       -0.0045
     30 C          -1.3729  -17.5530   17.7598 C.ar    1  UNL1       -0.0003
     31 C          -0.1907  -17.6412   18.6789 C.ar    1  UNL1       -0.0003
     32 C          -0.3582  -18.1871   20.0659 C.ar    1  UNL1       -0.0032
     33 C          -1.7078  -18.6449   20.5338 C.ar    1  UNL1       -0.0103
     34 C          -1.8752  -19.1909   21.9209 C.3     1  UNL1        0.0953
     35 N          -3.2248  -19.6487   22.3888 N.3     1  UNL1       -0.2934
     36 H          -3.4528  -19.0965   23.2156 H       1  UNL1        0.1236
@<TRIPOS>BOND
     1    13    14    2
     2    14    12    1
     3    12     1    1
     4     1    25    1
     5    26    25    1
     6    26    27    1
     7    27    28    1
     8    28    29   ar
     9    29    30   ar
    10    30    31   ar
    11    31    32   ar
    12    32    33   ar
    13    33    34    1
    14    34    35    1
    15     2     1    1
    16     2     3    1
    17     3     4    1
    18     4     5    1
    19     5     6    1
    20     6     7   ar
    21     7     8   ar
    22     8     9   ar
    23     9    10   ar
    24    10    11   ar
    25    13    15    1
    26    15    16    1
    27    16    18    1
    28    18    19    1
    29    19    20   ar
    30    20    21   ar
    31    21    22   ar
    32    22    23   ar
    33    23    24   ar
    34    35    26    1
    35    11     2    1
    36    24    19   ar
    37    33    28   ar
    38    11     6   ar
    39    35    36    1
    40    16    17    1
@<TRIPOS>MOLECULE
*****
 36 40 0 0 0
SMALL
GASTEIGER

@<TRIPOS>ATOM
      1 N           7.4076   -2.6724   21.0865 N.3     1  UNL1       -0.2641
      2 C           6.1201   -2.8050   20.3282 C.3     1  UNL1        0.0981
      3 C           5.1199   -3.8498   20.7256 C.3     1  UNL1        0.0224
      4 C           3.8324   -3.9824   19.9674 C.3     1  UNL1        0.0065
      5 C           3.5452   -3.0702   18.8118 C.3     1  UNL1        0.0277
      6 C           4.5454   -2.0254   18.4145 C.ar    1  UNL1       -0.0073
      7 C           4.2582   -1.1131   17.2589 C.ar    1  UNL1       -0.0015
      8 C           5.2584   -0.0683   16.8616 C.ar    1  UNL1        0.0203
      9 C           6.5458    0.0643   17.6198 C.ar    1  UNL1        0.0985
     10 N           6.8331   -0.8479   18.7753 N.ar    1  UNL1       -0.2471
     11 C           5.8329   -1.8928   19.1727 C.ar    1  UNL1        0.0695
     12 C           7.6968   -1.4204   21.8602 C.3     1  UNL1        0.0989
     13 C           5.7911   -1.4503   23.6258 C.2     1  UNL1       -0.0122
     14 C           6.5907   -0.7173   22.5899 C.2     1  UNL1       -0.0120
     15 C           4.6851   -0.7472   24.3555 C.3     1  UNL1        0.0953
     16 N           3.4068   -0.4183   23.6429 N.3     1  UNL1       -0.2900
     17 H           3.4220    0.5848   23.4587 H       1  UNL1        0.1239
     18 C           3.0775   -1.0922   22.3439 C.3     1  UNL1        0.0974
     19 C           2.7441   -0.2687   21.1352 C.ar    1  UNL1        0.0128
     20 C           1.4735   -0.5249   20.3803 C.ar    1  UNL1        0.0002
     21 C           1.1401    0.2985   19.1717 C.ar    1  UNL1        0.0204
     22 C           2.0774    1.3782   18.7179 C.ar    1  UNL1        0.0989
     23 N           3.3481    1.6343   19.4728 N.ar    1  UNL1       -0.2426
     24 C           3.6814    0.8109   20.6814 C.ar    1  UNL1        0.0959
     25 C           8.4058   -3.7918   21.0709 C.3     1  UNL1        0.0888
     26 C           8.3688   -4.8446   22.1389 C.3     1  UNL1        0.0748
     27 C           7.6965   -4.5603   23.4493 C.3     1  UNL1        0.0432
     28 C           7.6596   -5.6131   24.5172 C.ar    1  UNL1       -0.0234
     29 C           6.9872   -5.3288   25.8276 C.ar    1  UNL1       -0.0045
     30 C           6.9503   -6.3816   26.8955 C.ar    1  UNL1       -0.0003
     31 C           7.5857   -7.7185   26.6529 C.ar    1  UNL1       -0.0003
     32 C           8.2580   -8.0028   25.3426 C.ar    1  UNL1       -0.0032
     33 C           8.2949   -6.9501   24.2747 C.ar    1  UNL1       -0.0103
     34 C           8.9673   -7.2343   22.9642 C.3     1  UNL1        0.0953
     35 N           9.0042   -6.1816   21.8964 N.3     1  UNL1       -0.2934
     36 H           8.5488   -6.5793   21.0749 H       1  UNL1        0.1236
@<TRIPOS>BOND
     1    13    14    2
     2    14    12    1
     3    12     1    1
     4     1    25    1
     5    26    25    1
     6    26    27    1
     7    27    28    1
     8    28    29   ar
     9    29    30   ar
    10    30    31   ar
    11    31    32   ar
    12    32    33   ar
    13    33    34    1
    14    34    35    1
    15     2     1    1
    16     2     3    1
    17     3     4    1
    18     4     5    1
    19     5     6    1
    20     6     7   ar
    21     7     8   ar
    22     8     9   ar
    23     9    10   ar
    24    10    11   ar
    25    13    15    1
    26    15    16    1
    27    16    18    1
    28    18    19    1
    29    19    20   ar
    30    20    21   ar
    31    21    22   ar
    32    22    23   ar
    33    23    24   ar
    34    35    26    1
    35    11     2    1
    36    24    19   ar
    37    33    28   ar
    38    11     6   ar
    39    35    36    1
    40    16    17    1
@<TRIPOS>MOLECULE
*****
 36 40 0 0 0
SMALL
GASTEIGER

@<TRIPOS>ATOM
      1 N           7.2006   -4.2562   23.1836 N.3     1  UNL1       -0.2641
      2 C           7.7232   -5.3873   24.0187 C.3     1  UNL1        0.0981
      3 C           8.4785   -6.5104   23.3721 C.3     1  UNL1        0.0224
      4 C           9.0011   -7.6415   24.2072 C.3     1  UNL1        0.0065
      5 C           8.7683   -7.6496   25.6890 C.3     1  UNL1        0.0277
      6 C           8.0130   -6.5265   26.3357 C.ar    1  UNL1       -0.0073
      7 C           7.7802   -6.5345   27.8175 C.ar    1  UNL1       -0.0015
      8 C           7.0249   -5.4114   28.4641 C.ar    1  UNL1        0.0203
      9 C           6.5024   -4.2803   27.6290 C.ar    1  UNL1        0.0985
     10 N           6.7351   -4.2722   26.1472 N.ar    1  UNL1       -0.2471
     11 C           7.4905   -5.3953   25.5005 C.ar    1  UNL1        0.0695
     12 C           8.1228   -3.1552   22.7507 C.3     1  UNL1        0.0989
     13 C           7.6309   -2.3620   20.3260 C.2     1  UNL1       -0.0122
     14 C           8.5331   -3.0425   21.3123 C.2     1  UNL1       -0.0120
     15 C           8.0412   -2.2494   18.8877 C.3     1  UNL1        0.0953
     16 N           6.9969   -2.1719   17.8137 N.3     1  UNL1       -0.2900
     17 H           7.1396   -2.9783   17.2056 H       1  UNL1        0.1239
     18 C           5.5427   -2.1586   18.1811 C.3     1  UNL1        0.0974
     19 C           4.8269   -0.8529   18.3625 C.ar    1  UNL1        0.0128
     20 C           5.4641    0.2476   19.1580 C.ar    1  UNL1        0.0002
     21 C           4.7483    1.5532   19.3394 C.ar    1  UNL1        0.0204
     22 C           3.3953    1.7583   18.7253 C.ar    1  UNL1        0.0989
     23 N           2.7580    0.6579   17.9298 N.ar    1  UNL1       -0.2426
     24 C           3.4738   -0.6477   17.7484 C.ar    1  UNL1        0.0959
     25 C           5.7559   -4.2260   22.7813 C.3     1  UNL1        0.0888
     26 C           4.9000   -3.0496   23.1468 C.3     1  UNL1        0.0748
     27 C           4.0689   -2.3721   22.0979 C.3     1  UNL1        0.0432
     28 C           3.2129   -1.1957   22.4633 C.ar    1  UNL1       -0.0234
     29 C           2.3819   -0.5182   21.4144 C.ar    1  UNL1       -0.0045
     30 C           1.5260    0.6581   21.7799 C.ar    1  UNL1       -0.0003
     31 C           1.5012    1.1569   23.1944 C.ar    1  UNL1       -0.0003
     32 C           2.3322    0.4794   24.2433 C.ar    1  UNL1       -0.0032
     33 C           3.1881   -0.6969   23.8777 C.ar    1  UNL1       -0.0103
     34 C           4.0193   -1.3744   24.9267 C.3     1  UNL1        0.0953
     35 N           4.8752   -2.5508   24.5612 N.3     1  UNL1       -0.2934
     36 H           4.5683   -3.3303   25.1430 H       1  UNL1        0.1236
@<TRIPOS>BOND
     1    13    14    2
     2    14    12    1
     3    12     1    1
     4     1    25    1
     5    26    25    1
     6    26    27    1
     7    27    28    1
     8    28    29   ar
     9    29    30   ar
    10    30    31   ar
    11    31    32   ar
    12    32    33   ar
    13    33    34    1
    14    34    35    1
    15     2     1    1
    16     2     3    1
    17     3     4    1
    18     4     5    1
    19     5     6    1
    20     6     7   ar
    21     7     8   ar
    22     8     9   ar
    23     9    10   ar
    24    10    11   ar
    25    13    15    1
    26    15    16    1
    27    16    18    1
    28    18    19    1
    29    19    20   ar
    30    20    21   ar
    31    21    22   ar
    32    22    23   ar
    33    23    24   ar
    34    35    26    1
    35    11     2    1
    36    24    19   ar
    37    33    28   ar
    38    11     6   ar
    39    35    36    1
    40    16    17    1
@<TRIPOS>MOLECULE
*****
 36 40 0 0 0
SMALL
GASTEIGER

@<TRIPOS>ATOM
      1 N          -8.3834  -16.5831   23.6056 N.3     1  UNL1       -0.2641
      2 C          -9.5773  -17.4303   23.9320 C.3     1  UNL1        0.0981
      3 C          -9.5119  -18.4153   25.0614 C.3     1  UNL1        0.0224
      4 C         -10.7059  -19.2625   25.3878 C.3     1  UNL1        0.0065
      5 C         -11.9653  -19.1248   24.5849 C.3     1  UNL1        0.0277
      6 C         -12.0308  -18.1398   23.4556 C.ar    1  UNL1       -0.0073
      7 C         -13.2903  -18.0020   22.6526 C.ar    1  UNL1       -0.0015
      8 C         -13.3558  -17.0170   21.5232 C.ar    1  UNL1        0.0203
      9 C         -12.1618  -16.1698   21.1968 C.ar    1  UNL1        0.0985
     10 N         -10.9023  -16.3075   21.9997 N.ar    1  UNL1       -0.2471
     11 C         -10.8368  -17.2926   23.1291 C.ar    1  UNL1        0.0695
     12 C          -7.7325  -15.7596   24.6771 C.3     1  UNL1        0.0989
     13 C          -5.2960  -16.1917   23.8854 C.2     1  UNL1       -0.0122
     14 C          -6.3192  -15.2870   24.5055 C.2     1  UNL1       -0.0120
     15 C          -3.8828  -15.7192   23.7139 C.3     1  UNL1        0.0953
     16 N          -3.3534  -15.4197   22.3427 N.3     1  UNL1       -0.2900
     17 H          -3.0948  -14.4330   22.3359 H       1  UNL1        0.1239
     18 C          -2.1745  -16.1799   21.8113 C.3     1  UNL1        0.0974
     19 C          -2.3592  -17.5652   21.2663 C.ar    1  UNL1        0.0128
     20 C          -2.8924  -17.7600   19.8779 C.ar    1  UNL1        0.0002
     21 C          -3.0770  -19.1452   19.3330 C.ar    1  UNL1        0.0204
     22 C          -2.7284  -20.3356   20.1764 C.ar    1  UNL1        0.0989
     23 N          -2.1951  -20.1408   21.5648 N.ar    1  UNL1       -0.2426
     24 C          -2.0105  -18.7556   22.1097 C.ar    1  UNL1        0.0959
     25 C          -7.8402  -16.5593   22.2076 C.3     1  UNL1        0.0888
     26 C          -7.5724  -17.8463   21.4850 C.3     1  UNL1        0.0748
     27 C          -8.5329  -18.3343   20.4414 C.3     1  UNL1        0.0432
     28 C          -8.2651  -19.6213   19.7188 C.ar    1  UNL1       -0.0234
     29 C          -9.2256  -20.1093   18.6752 C.ar    1  UNL1       -0.0045
     30 C          -8.9578  -21.3962   17.9526 C.ar    1  UNL1       -0.0003
     31 C          -7.7295  -22.1951   18.2738 C.ar    1  UNL1       -0.0003
     32 C          -6.7691  -21.7071   19.3174 C.ar    1  UNL1       -0.0032
     33 C          -7.0369  -20.4202   20.0399 C.ar    1  UNL1       -0.0103
     34 C          -6.0763  -19.9320   21.0836 C.3     1  UNL1        0.0953
     35 N          -6.3441  -18.6451   21.8061 N.3     1  UNL1       -0.2934
     36 H          -5.5437  -18.0374   21.6317 H       1  UNL1        0.1236
@<TRIPOS>BOND
     1    13    14    2
     2    14    12    1
     3    12     1    1
     4     1    25    1
     5    26    25    1
     6    26    27    1
     7    27    28    1
     8    28    29   ar
     9    29    30   ar
    10    30    31   ar
    11    31    32   ar
    12    32    33   ar
    13    33    34    1
    14    34    35    1
    15     2     1    1
    16     2     3    1
    17     3     4    1
    18     4     5    1
    19     5     6    1
    20     6     7   ar
    21     7     8   ar
    22     8     9   ar
    23     9    10   ar
    24    10    11   ar
    25    13    15    1
    26    15    16    1
    27    16    18    1
    28    18    19    1
    29    19    20   ar
    30    20    21   ar
    31    21    22   ar
    32    22    23   ar
    33    23    24   ar
    34    35    26    1
    35    11     2    1
    36    24    19   ar
    37    33    28   ar
    38    11     6   ar
    39    35    36    1
    40    16    17    1
