@<TRIPOS>MOLECULE
*****
 37 41 0 0 0
SMALL
GASTEIGER

@<TRIPOS>ATOM
      1 N          -8.7049  -18.0022   21.3078 N.3     1  UNL1       -0.2679
      2 C         -10.1377  -17.5587   21.2964 C.3     1  UNL1        0.0978
      3 C         -10.6617  -16.7445   20.1508 C.3     1  UNL1        0.0224
      4 C         -12.0946  -16.3010   20.1393 C.3     1  UNL1        0.0065
      5 C         -13.0035  -16.6716   21.2736 C.3     1  UNL1        0.0277
      6 C         -12.4795  -17.4857   22.4192 C.ar    1  UNL1       -0.0073
      7 C         -13.3884  -17.8564   23.5535 C.ar    1  UNL1       -0.0015
      8 C         -12.8644  -18.6706   24.6992 C.ar    1  UNL1        0.0203
      9 C         -11.4315  -19.1141   24.7106 C.ar    1  UNL1        0.0985
     10 N         -10.5226  -18.7435   23.5763 N.ar    1  UNL1       -0.2471
     11 C         -11.0466  -17.9293   22.4306 C.ar    1  UNL1        0.0695
     12 C          -8.3693  -19.4579   21.1727 C.3     1  UNL1        0.0725
     13 C          -7.1811  -20.0237   21.8928 C.3     1  UNL1        0.0187
     14 C          -6.5181  -20.5151   19.9386 C.3     1  UNL1        0.0014
     15 C          -5.8476  -20.0823   21.2086 C.3     1  UNL1        0.0158
     16 C          -5.1770  -19.6495   22.4787 C.3     1  UNL1        0.0014
     17 C          -4.5140  -20.1410   20.5245 C.3     1  UNL1        0.0685
     18 N          -3.2566  -19.9208   21.3122 N.3     1  UNL1       -0.2984
     19 H          -2.6771  -20.7496   21.1797 H       1  UNL1        0.1232
     20 C          -2.3873  -18.7335   21.0209 C.3     1  UNL1        0.0590
     21 C          -1.3301  -18.8203   19.9604 C.3     1  UNL1        0.0478
     22 C          -0.4608  -17.6330   19.6690 C.3     1  UNL1        0.1435
     23 O          -0.6487  -16.3591   20.4383 O.3     1  UNL1       -0.3537
     24 C          -1.7060  -16.2724   21.4988 C.3     1  UNL1        0.1435
     25 C          -2.5752  -17.4596   21.7901 C.3     1  UNL1        0.0478
     26 C          -7.6076  -16.9901   21.4543 C.3     1  UNL1        0.0886
     27 C          -7.1911  -16.5276   22.8191 C.3     1  UNL1        0.0748
     28 C          -8.2279  -16.2651   23.8708 C.3     1  UNL1        0.0432
     29 C          -7.8114  -15.8026   25.2357 C.ar    1  UNL1       -0.0234
     30 C          -8.8482  -15.5401   26.2874 C.ar    1  UNL1       -0.0045
     31 C          -8.4317  -15.0776   27.6522 C.ar    1  UNL1       -0.0003
     32 C          -6.9784  -14.8777   27.9652 C.ar    1  UNL1       -0.0003
     33 C          -5.9416  -15.1402   26.9135 C.ar    1  UNL1       -0.0032
     34 C          -6.3581  -15.6027   25.5488 C.ar    1  UNL1       -0.0103
     35 C          -5.3213  -15.8652   24.4970 C.3     1  UNL1        0.0953
     36 N          -5.7378  -16.3277   23.1322 N.3     1  UNL1       -0.2934
     37 H          -5.2760  -17.2228   22.9709 H       1  UNL1        0.1236
@<TRIPOS>BOND
     1    14    15    1
     2    15    16    1
     3    15    13    1
     4    13    12    1
     5    12     1    1
     6     1    26    1
     7    27    26    1
     8    27    28    1
     9    28    29    1
    10    29    30   ar
    11    30    31   ar
    12    31    32   ar
    13    32    33   ar
    14    33    34   ar
    15    34    35    1
    16    35    36    1
    17     2     1    1
    18     2     3    1
    19     3     4    1
    20     4     5    1
    21     5     6    1
    22     6     7   ar
    23     7     8   ar
    24     8     9   ar
    25     9    10   ar
    26    10    11   ar
    27    15    17    1
    28    17    18    1
    29    18    20    1
    30    20    21    1
    31    21    22    1
    32    22    23    1
    33    23    24    1
    34    24    25    1
    35    36    27    1
    36    11     2    1
    37    25    20    1
    38    34    29   ar
    39    11     6   ar
    40    36    37    1
    41    18    19    1
@<TRIPOS>MOLECULE
*****
 37 41 0 0 0
SMALL
GASTEIGER

@<TRIPOS>ATOM
      1 N          -8.3395  -18.4845   21.3214 N.3     1  UNL1       -0.2679
      2 C          -9.3303  -18.9127   22.3630 C.3     1  UNL1        0.0978
      3 C          -8.9821  -20.0118   23.3226 C.3     1  UNL1        0.0224
      4 C          -9.9729  -20.4399   24.3642 C.3     1  UNL1        0.0065
      5 C         -11.3119  -19.7690   24.4463 C.3     1  UNL1        0.0277
      6 C         -11.6602  -18.6700   23.4867 C.ar    1  UNL1       -0.0073
      7 C         -12.9993  -17.9990   23.5688 C.ar    1  UNL1       -0.0015
      8 C         -13.3475  -16.9000   22.6092 C.ar    1  UNL1        0.0203
      9 C         -12.3567  -16.4718   21.5676 C.ar    1  UNL1        0.0985
     10 N         -11.0177  -17.1427   21.4855 N.ar    1  UNL1       -0.2471
     11 C         -10.6694  -18.2418   22.4451 C.ar    1  UNL1        0.0695
     12 C          -8.0304  -19.3875   20.1642 C.3     1  UNL1        0.0725
     13 C          -6.8651  -20.3291   20.2380 C.3     1  UNL1        0.0187
     14 C          -5.1611  -19.0904   19.9893 C.3     1  UNL1        0.0014
     15 C          -5.6734  -19.9830   21.0805 C.3     1  UNL1        0.0158
     16 C          -6.1856  -20.8756   22.1718 C.3     1  UNL1        0.0014
     17 C          -4.4816  -19.6369   21.9231 C.3     1  UNL1        0.0685
     18 N          -3.0969  -19.8438   21.3847 N.3     1  UNL1       -0.2984
     19 H          -3.1935  -20.3779   20.5211 H       1  UNL1        0.1232
     20 C          -2.2310  -18.6607   21.0676 C.3     1  UNL1        0.0590
     21 C          -2.4106  -17.3763   21.8213 C.3     1  UNL1        0.0478
     22 C          -1.5446  -16.1932   21.5042 C.3     1  UNL1        0.1435
     23 O          -0.4990  -16.2947   20.4334 O.3     1  UNL1       -0.3537
     24 C          -0.3194  -17.5792   19.6798 C.3     1  UNL1        0.1435
     25 C          -1.1854  -18.7622   19.9969 C.3     1  UNL1        0.0478
     26 C          -7.6577  -17.1535   21.4370 C.3     1  UNL1        0.0886
     27 C          -7.2131  -16.6526   22.7792 C.3     1  UNL1        0.0748
     28 C          -8.2290  -16.3422   23.8382 C.3     1  UNL1        0.0432
     29 C          -7.7844  -15.8413   25.1804 C.ar    1  UNL1       -0.0234
     30 C          -8.8003  -15.5309   26.2393 C.ar    1  UNL1       -0.0045
     31 C          -8.3556  -15.0301   27.5815 C.ar    1  UNL1       -0.0003
     32 C          -6.8950  -14.8396   27.8646 C.ar    1  UNL1       -0.0003
     33 C          -5.8790  -15.1499   26.8057 C.ar    1  UNL1       -0.0032
     34 C          -6.3237  -15.6508   25.4635 C.ar    1  UNL1       -0.0103
     35 C          -5.3077  -15.9612   24.4045 C.3     1  UNL1        0.0953
     36 N          -5.7524  -16.4621   23.0624 N.3     1  UNL1       -0.2934
     37 H          -5.3049  -17.3680   22.9231 H       1  UNL1        0.1236
@<TRIPOS>BOND
     1    14    15    1
     2    15    16    1
     3    15    13    1
     4    13    12    1
     5    12     1    1
     6     1    26    1
     7    27    26    1
     8    27    28    1
     9    28    29    1
    10    29    30   ar
    11    30    31   ar
    12    31    32   ar
    13    32    33   ar
    14    33    34   ar
    15    34    35    1
    16    35    36    1
    17     2     1    1
    18     2     3    1
    19     3     4    1
    20     4     5    1
    21     5     6    1
    22     6     7   ar
    23     7     8   ar
    24     8     9   ar
    25     9    10   ar
    26    10    11   ar
    27    15    17    1
    28    17    18    1
    29    18    20    1
    30    20    21    1
    31    21    22    1
    32    22    23    1
    33    23    24    1
    34    24    25    1
    35    36    27    1
    36    11     2    1
    37    25    20    1
    38    34    29   ar
    39    11     6   ar
    40    36    37    1
    41    18    19    1
@<TRIPOS>MOLECULE
*****
 37 41 0 0 0
SMALL
GASTEIGER

@<TRIPOS>ATOM
      1 N          -7.7950  -19.6005   21.4748 N.3     1  UNL1       -0.2679
      2 C          -8.4597  -19.2288   22.7671 C.3     1  UNL1        0.0978
      3 C          -9.2393  -20.2566   23.5323 C.3     1  UNL1        0.0224
      4 C          -9.9040  -19.8849   24.8246 C.3     1  UNL1        0.0065
      5 C          -9.7890  -18.4853   25.3517 C.3     1  UNL1        0.0277
      6 C          -9.0093  -17.4574   24.5865 C.ar    1  UNL1       -0.0073
      7 C          -8.8943  -16.0577   25.1135 C.ar    1  UNL1       -0.0015
      8 C          -8.1146  -15.0299   24.3483 C.ar    1  UNL1        0.0203
      9 C          -7.4500  -15.4016   23.0560 C.ar    1  UNL1        0.0985
     10 N          -7.5650  -16.8012   22.5289 N.ar    1  UNL1       -0.2471
     11 C          -8.3447  -17.8292   23.2942 C.ar    1  UNL1        0.0695
     12 C          -8.4745  -19.3066   20.1702 C.3     1  UNL1        0.0725
     13 C          -9.9016  -19.7173   19.9587 C.3     1  UNL1        0.0187
     14 C         -10.4958  -17.6853   19.8248 C.3     1  UNL1        0.0014
     15 C         -11.0128  -18.8964   20.5430 C.3     1  UNL1        0.0158
     16 C         -11.5298  -20.1075   21.2613 C.3     1  UNL1        0.0014
     17 C         -12.1239  -18.0756   21.1274 C.3     1  UNL1        0.0685
     18 N         -12.0825  -17.6784   22.5733 N.3     1  UNL1       -0.2984
     19 H         -12.0104  -16.6612   22.5973 H       1  UNL1        0.1232
     20 C         -13.2115  -18.0541   23.4868 C.3     1  UNL1        0.0590
     21 C         -12.9709  -18.1854   24.9616 C.3     1  UNL1        0.0478
     22 C         -14.0998  -18.5611   25.8751 C.3     1  UNL1        0.1435
     23 O         -15.4692  -18.8054   25.3139 O.3     1  UNL1       -0.3537
     24 C         -15.7097  -18.6741   23.8391 C.3     1  UNL1        0.1435
     25 C         -14.5809  -18.2984   22.9256 C.3     1  UNL1        0.0478
     26 C          -6.4509  -20.2661   21.4871 C.3     1  UNL1        0.0886
     27 C          -5.2022  -19.4350   21.4753 C.3     1  UNL1        0.0748
     28 C          -4.3329  -19.4048   20.2533 C.3     1  UNL1        0.0432
     29 C          -3.0842  -18.5736   20.2415 C.ar    1  UNL1       -0.0234
     30 C          -2.2148  -18.5435   19.0195 C.ar    1  UNL1       -0.0045
     31 C          -0.9662  -17.7123   19.0077 C.ar    1  UNL1       -0.0003
     32 C          -0.5870  -16.9114   20.2179 C.ar    1  UNL1       -0.0003
     33 C          -1.4563  -16.9416   21.4399 C.ar    1  UNL1       -0.0032
     34 C          -2.7049  -17.7727   21.4517 C.ar    1  UNL1       -0.0103
     35 C          -3.5743  -17.8029   22.6737 C.3     1  UNL1        0.0953
     36 N          -4.8229  -18.6340   22.6855 N.3     1  UNL1       -0.2934
     37 H          -5.5982  -17.9981   22.8725 H       1  UNL1        0.1236
@<TRIPOS>BOND
     1    14    15    1
     2    15    16    1
     3    15    13    1
     4    13    12    1
     5    12     1    1
     6     1    26    1
     7    27    26    1
     8    27    28    1
     9    28    29    1
    10    29    30   ar
    11    30    31   ar
    12    31    32   ar
    13    32    33   ar
    14    33    34   ar
    15    34    35    1
    16    35    36    1
    17     2     1    1
    18     2     3    1
    19     3     4    1
    20     4     5    1
    21     5     6    1
    22     6     7   ar
    23     7     8   ar
    24     8     9   ar
    25     9    10   ar
    26    10    11   ar
    27    15    17    1
    28    17    18    1
    29    18    20    1
    30    20    21    1
    31    21    22    1
    32    22    23    1
    33    23    24    1
    34    24    25    1
    35    36    27    1
    36    11     2    1
    37    25    20    1
    38    34    29   ar
    39    11     6   ar
    40    36    37    1
    41    18    19    1
@<TRIPOS>MOLECULE
*****
 37 41 0 0 0
SMALL
GASTEIGER

@<TRIPOS>ATOM
      1 N          -7.2391  -17.1793   22.5337 N.3     1  UNL1       -0.2679
      2 C          -6.5904  -16.3668   23.6149 C.3     1  UNL1        0.0978
      3 C          -5.3453  -15.5840   23.3200 C.3     1  UNL1        0.0224
      4 C          -4.6965  -14.7714   24.4011 C.3     1  UNL1        0.0065
      5 C          -5.2928  -14.7416   25.7771 C.3     1  UNL1        0.0277
      6 C          -6.5379  -15.5244   26.0720 C.ar    1  UNL1       -0.0073
      7 C          -7.1343  -15.4946   27.4481 C.ar    1  UNL1       -0.0015
      8 C          -8.3793  -16.2773   27.7430 C.ar    1  UNL1        0.0203
      9 C          -9.0281  -17.0899   26.6619 C.ar    1  UNL1        0.0985
     10 N          -8.4318  -17.1197   25.2859 N.ar    1  UNL1       -0.2471
     11 C          -7.1867  -16.3369   24.9909 C.ar    1  UNL1        0.0695
     12 C          -6.8144  -18.5997   22.3058 C.3     1  UNL1        0.0725
     13 C          -6.6378  -19.1147   20.9080 C.3     1  UNL1        0.0187
     14 C          -5.1739  -18.8807   19.3908 C.3     1  UNL1        0.0014
     15 C          -5.3792  -19.8368   20.5282 C.3     1  UNL1        0.0158
     16 C          -5.5845  -20.7929   21.6656 C.3     1  UNL1        0.0014
     17 C          -4.1206  -20.5590   20.1483 C.3     1  UNL1        0.0685
     18 N          -2.8535  -20.3101   20.9117 N.3     1  UNL1       -0.2984
     19 H          -2.1385  -20.9088   20.4987 H       1  UNL1        0.1232
     20 C          -2.2761  -18.9271   20.9761 C.3     1  UNL1        0.0590
     21 C          -2.7459  -17.9664   22.0278 C.3     1  UNL1        0.0478
     22 C          -2.1684  -16.5835   22.0922 C.3     1  UNL1        0.1435
     23 O          -1.1211  -16.1613   21.1048 O.3     1  UNL1       -0.3537
     24 C          -0.6513  -17.1221   20.0530 C.3     1  UNL1        0.1435
     25 C          -1.2288  -18.5050   19.9887 C.3     1  UNL1        0.0478
     26 C          -8.3127  -16.5715   21.6806 C.3     1  UNL1        0.0886
     27 C          -9.7565  -16.7804   22.0299 C.3     1  UNL1        0.0748
     28 C         -10.1272  -17.6197   23.2165 C.3     1  UNL1        0.0432
     29 C         -11.5710  -17.8286   23.5658 C.ar    1  UNL1       -0.0234
     30 C         -11.9417  -18.6678   24.7525 C.ar    1  UNL1       -0.0045
     31 C         -13.3854  -18.8767   25.1017 C.ar    1  UNL1       -0.0003
     32 C         -14.4584  -18.2463   24.2642 C.ar    1  UNL1       -0.0003
     33 C         -14.0877  -17.4071   23.0776 C.ar    1  UNL1       -0.0032
     34 C         -12.6440  -17.1982   22.7283 C.ar    1  UNL1       -0.0103
     35 C         -12.2732  -16.3589   21.5416 C.3     1  UNL1        0.0953
     36 N         -10.8295  -16.1501   21.1924 N.3     1  UNL1       -0.2934
     37 H         -10.6646  -15.1437   21.2113 H       1  UNL1        0.1236
@<TRIPOS>BOND
     1    14    15    1
     2    15    16    1
     3    15    13    1
     4    13    12    1
     5    12     1    1
     6     1    26    1
     7    27    26    1
     8    27    28    1
     9    28    29    1
    10    29    30   ar
    11    30    31   ar
    12    31    32   ar
    13    32    33   ar
    14    33    34   ar
    15    34    35    1
    16    35    36    1
    17     2     1    1
    18     2     3    1
    19     3     4    1
    20     4     5    1
    21     5     6    1
    22     6     7   ar
    23     7     8   ar
    24     8     9   ar
    25     9    10   ar
    26    10    11   ar
    27    15    17    1
    28    17    18    1
    29    18    20    1
    30    20    21    1
    31    21    22    1
    32    22    23    1
    33    23    24    1
    34    24    25    1
    35    36    27    1
    36    11     2    1
    37    25    20    1
    38    34    29   ar
    39    11     6   ar
    40    36    37    1
    41    18    19    1
@<TRIPOS>MOLECULE
*****
 37 41 0 0 0
SMALL
GASTEIGER

@<TRIPOS>ATOM
      1 N         -15.6124   -2.1376   19.6523 N.3     1  UNL1       -0.2679
      2 C         -15.7023   -0.6415   19.5903 C.3     1  UNL1        0.0978
      3 C         -16.6465    0.0913   20.4966 C.3     1  UNL1        0.0224
      4 C         -16.7364    1.5873   20.4346 C.3     1  UNL1        0.0065
      5 C         -15.8821    2.3505   19.4663 C.3     1  UNL1        0.0277
      6 C         -14.9379    1.6177   18.5600 C.ar    1  UNL1       -0.0073
      7 C         -14.0835    2.3809   17.5917 C.ar    1  UNL1       -0.0015
      8 C         -13.1393    1.6481   16.6854 C.ar    1  UNL1        0.0203
      9 C         -13.0494    0.1521   16.7474 C.ar    1  UNL1        0.0985
     10 N         -13.9037   -0.6111   17.7157 N.ar    1  UNL1       -0.2471
     11 C         -14.8480    0.1217   18.6220 C.ar    1  UNL1        0.0695
     12 C         -16.5489   -2.9796   18.8375 C.3     1  UNL1        0.0725
     13 C         -16.9768   -4.3265   19.3405 C.3     1  UNL1        0.0187
     14 C         -18.3214   -5.9403   19.6360 C.3     1  UNL1        0.0014
     15 C         -17.7277   -5.2602   18.4382 C.3     1  UNL1        0.0158
     16 C         -17.1339   -4.5801   17.2404 C.3     1  UNL1        0.0014
     17 C         -18.4785   -6.1939   17.5359 C.3     1  UNL1        0.0685
     18 N         -17.7298   -7.1510   16.6564 N.3     1  UNL1       -0.2984
     19 H         -17.0219   -6.6062   16.1640 H       1  UNL1        0.1232
     20 C         -17.0264   -8.3306   17.2597 C.3     1  UNL1        0.0590
     21 C         -17.8207   -9.4914   17.7809 C.3     1  UNL1        0.0478
     22 C         -17.1173  -10.6710   18.3842 C.3     1  UNL1        0.1435
     23 O         -15.6197  -10.6897   18.4662 O.3     1  UNL1       -0.3537
     24 C         -14.8254   -9.5288   17.9450 C.3     1  UNL1        0.1435
     25 C         -15.5288   -8.3493   17.3418 C.3     1  UNL1        0.0478
     26 C         -14.5859   -2.7915   20.5290 C.3     1  UNL1        0.0886
     27 C         -13.3504   -3.3870   19.9216 C.3     1  UNL1        0.0748
     28 C         -13.2567   -4.8695   19.7134 C.3     1  UNL1        0.0432
     29 C         -12.0211   -5.4650   19.1060 C.ar    1  UNL1       -0.0234
     30 C         -11.9274   -6.9475   18.8978 C.ar    1  UNL1       -0.0045
     31 C         -10.6919   -7.5429   18.2904 C.ar    1  UNL1       -0.0003
     32 C          -9.5502   -6.6558   17.8911 C.ar    1  UNL1       -0.0003
     33 C          -9.6439   -5.1733   18.0993 C.ar    1  UNL1       -0.0032
     34 C         -10.8794   -4.5779   18.7067 C.ar    1  UNL1       -0.0103
     35 C         -10.9732   -3.0953   18.9149 C.3     1  UNL1        0.0953
     36 N         -12.2086   -2.4999   19.5223 N.3     1  UNL1       -0.2934
     37 H         -12.5774   -1.8323   18.8450 H       1  UNL1        0.1236
@<TRIPOS>BOND
     1    14    15    1
     2    15    16    1
     3    15    13    1
     4    13    12    1
     5    12     1    1
     6     1    26    1
     7    27    26    1
     8    27    28    1
     9    28    29    1
    10    29    30   ar
    11    30    31   ar
    12    31    32   ar
    13    32    33   ar
    14    33    34   ar
    15    34    35    1
    16    35    36    1
    17     2     1    1
    18     2     3    1
    19     3     4    1
    20     4     5    1
    21     5     6    1
    22     6     7   ar
    23     7     8   ar
    24     8     9   ar
    25     9    10   ar
    26    10    11   ar
    27    15    17    1
    28    17    18    1
    29    18    20    1
    30    20    21    1
    31    21    22    1
    32    22    23    1
    33    23    24    1
    34    24    25    1
    35    36    27    1
    36    11     2    1
    37    25    20    1
    38    34    29   ar
    39    11     6   ar
    40    36    37    1
    41    18    19    1
@<TRIPOS>MOLECULE
*****
 37 41 0 0 0
SMALL
GASTEIGER

@<TRIPOS>ATOM
      1 N           3.6473    0.6217   25.7448 N.3     1  UNL1       -0.2679
      2 C           2.2375    0.9560   26.1328 C.3     1  UNL1        0.0978
      3 C           1.1829    1.1006   25.0759 C.3     1  UNL1        0.0224
      4 C          -0.2269    1.4348   25.4639 C.3     1  UNL1        0.0065
      5 C          -0.5823    1.6246   26.9088 C.3     1  UNL1        0.0277
      6 C           0.4723    1.4800   27.9657 C.ar    1  UNL1       -0.0073
      7 C           0.1170    1.6697   29.4106 C.ar    1  UNL1       -0.0015
      8 C           1.1715    1.5252   30.4675 C.ar    1  UNL1        0.0203
      9 C           2.5814    1.1909   30.0795 C.ar    1  UNL1        0.0985
     10 N           2.9367    1.0012   28.6346 N.ar    1  UNL1       -0.2471
     11 C           1.8821    1.1457   27.5777 C.ar    1  UNL1        0.0695
     12 C           4.5924    1.7135   25.3390 C.3     1  UNL1        0.0725
     13 C           4.2982    2.5486   24.1281 C.3     1  UNL1        0.0187
     14 C           3.4806    2.4936   22.1714 C.3     1  UNL1        0.0014
     15 C           4.7989    2.1189   22.7810 C.3     1  UNL1        0.0158
     16 C           6.1173    1.7443   23.3906 C.3     1  UNL1        0.0014
     17 C           5.2997    1.6893   21.4339 C.3     1  UNL1        0.0685
     18 N           6.2413    0.5273   21.3194 N.3     1  UNL1       -0.2984
     19 H           5.9355   -0.1678   22.0004 H       1  UNL1        0.1232
     20 C           6.3944   -0.1877   20.0097 C.3     1  UNL1        0.0590
     21 C           7.2370   -1.4258   19.9251 C.3     1  UNL1        0.0478
     22 C           7.3901   -2.1408   18.6153 C.3     1  UNL1        0.1435
     23 O           6.7006   -1.6177   17.3902 O.3     1  UNL1       -0.3537
     24 C           5.8580   -0.3795   17.4749 C.3     1  UNL1        0.1435
     25 C           5.7049    0.3354   18.7846 C.3     1  UNL1        0.0478
     26 C           4.1121   -0.8043   25.7626 C.3     1  UNL1        0.0886
     27 C           4.2383   -1.5681   24.4778 C.3     1  UNL1        0.0748
     28 C           3.5218   -1.0924   23.2489 C.3     1  UNL1        0.0432
     29 C           3.6481   -1.8562   21.9641 C.ar    1  UNL1       -0.0234
     30 C           2.9316   -1.3804   20.7352 C.ar    1  UNL1       -0.0045
     31 C           3.0579   -2.1443   19.4505 C.ar    1  UNL1       -0.0003
     32 C           3.9007   -3.3839   19.3946 C.ar    1  UNL1       -0.0003
     33 C           4.6172   -3.8596   20.6235 C.ar    1  UNL1       -0.0032
     34 C           4.4909   -3.0958   21.9083 C.ar    1  UNL1       -0.0103
     35 C           5.2074   -3.5716   23.1373 C.3     1  UNL1        0.0953
     36 N           5.0811   -2.8077   24.4220 N.3     1  UNL1       -0.2934
     37 H           6.0249   -2.5348   24.6962 H       1  UNL1        0.1236
@<TRIPOS>BOND
     1    14    15    1
     2    15    16    1
     3    15    13    1
     4    13    12    1
     5    12     1    1
     6     1    26    1
     7    27    26    1
     8    27    28    1
     9    28    29    1
    10    29    30   ar
    11    30    31   ar
    12    31    32   ar
    13    32    33   ar
    14    33    34   ar
    15    34    35    1
    16    35    36    1
    17     2     1    1
    18     2     3    1
    19     3     4    1
    20     4     5    1
    21     5     6    1
    22     6     7   ar
    23     7     8   ar
    24     8     9   ar
    25     9    10   ar
    26    10    11   ar
    27    15    17    1
    28    17    18    1
    29    18    20    1
    30    20    21    1
    31    21    22    1
    32    22    23    1
    33    23    24    1
    34    24    25    1
    35    36    27    1
    36    11     2    1
    37    25    20    1
    38    34    29   ar
    39    11     6   ar
    40    36    37    1
    41    18    19    1
@<TRIPOS>MOLECULE
*****
 37 41 0 0 0
SMALL
GASTEIGER

@<TRIPOS>ATOM
      1 N          -7.9500  -18.7076   21.4138 N.3     1  UNL1       -0.2679
      2 C          -9.3425  -18.9284   21.9258 C.3     1  UNL1        0.0978
      3 C          -9.6157  -20.0319   22.9044 C.3     1  UNL1        0.0224
      4 C         -11.0082  -20.2527   23.4164 C.3     1  UNL1        0.0065
      5 C         -12.1276  -19.3700   22.9498 C.3     1  UNL1        0.0277
      6 C         -11.8544  -18.2665   21.9712 C.ar    1  UNL1       -0.0073
      7 C         -12.9739  -17.3837   21.5045 C.ar    1  UNL1       -0.0015
      8 C         -12.7007  -16.2803   20.5260 C.ar    1  UNL1        0.0203
      9 C         -11.3082  -16.0595   20.0140 C.ar    1  UNL1        0.0985
     10 N         -10.1888  -16.9422   20.4806 N.ar    1  UNL1       -0.2471
     11 C         -10.4619  -18.0457   21.4592 C.ar    1  UNL1        0.0695
     12 C          -7.3419  -19.6827   20.4498 C.3     1  UNL1        0.0725
     13 C          -6.1515  -19.2830   19.6293 C.3     1  UNL1        0.0187
     14 C          -5.5227  -21.0889   20.5476 C.3     1  UNL1        0.0014
     15 C          -4.8298  -19.9580   19.8469 C.3     1  UNL1        0.0158
     16 C          -4.1369  -18.8271   19.1462 C.3     1  UNL1        0.0014
     17 C          -3.5081  -20.6330   20.0645 C.3     1  UNL1        0.0685
     18 N          -2.6246  -20.2042   21.1983 N.3     1  UNL1       -0.2984
     19 H          -1.7314  -20.6803   21.0719 H       1  UNL1        0.1232
     20 C          -2.3155  -18.7503   21.3998 C.3     1  UNL1        0.0590
     21 C          -1.2484  -18.0895   20.5785 C.3     1  UNL1        0.0478
     22 C          -0.9394  -16.6355   20.7800 C.3     1  UNL1        0.1435
     23 O          -1.6975  -15.8424   21.8029 O.3     1  UNL1       -0.3537
     24 C          -2.7646  -16.5033   22.6242 C.3     1  UNL1        0.1435
     25 C          -3.0736  -17.9572   22.4227 C.3     1  UNL1        0.0478
     26 C          -7.1655  -17.5117   21.8658 C.3     1  UNL1        0.0886
     27 C          -7.4593  -16.8805   23.1946 C.3     1  UNL1        0.0748
     28 C          -6.3423  -16.3097   24.0170 C.3     1  UNL1        0.0432
     29 C          -6.6360  -15.6786   25.3457 C.ar    1  UNL1       -0.0234
     30 C          -5.5190  -15.1077   26.1682 C.ar    1  UNL1       -0.0045
     31 C          -5.8128  -14.4766   27.4968 C.ar    1  UNL1       -0.0003
     32 C          -7.2235  -14.4163   28.0030 C.ar    1  UNL1       -0.0003
     33 C          -8.3405  -14.9871   27.1806 C.ar    1  UNL1       -0.0032
     34 C          -8.0467  -15.6182   25.8519 C.ar    1  UNL1       -0.0103
     35 C          -9.1637  -16.1891   25.0294 C.3     1  UNL1        0.0953
     36 N          -8.8700  -16.8202   23.7008 N.3     1  UNL1       -0.2934
     37 H          -9.4108  -16.3068   23.0049 H       1  UNL1        0.1236
@<TRIPOS>BOND
     1    14    15    1
     2    15    16    1
     3    15    13    1
     4    13    12    1
     5    12     1    1
     6     1    26    1
     7    27    26    1
     8    27    28    1
     9    28    29    1
    10    29    30   ar
    11    30    31   ar
    12    31    32   ar
    13    32    33   ar
    14    33    34   ar
    15    34    35    1
    16    35    36    1
    17     2     1    1
    18     2     3    1
    19     3     4    1
    20     4     5    1
    21     5     6    1
    22     6     7   ar
    23     7     8   ar
    24     8     9   ar
    25     9    10   ar
    26    10    11   ar
    27    15    17    1
    28    17    18    1
    29    18    20    1
    30    20    21    1
    31    21    22    1
    32    22    23    1
    33    23    24    1
    34    24    25    1
    35    36    27    1
    36    11     2    1
    37    25    20    1
    38    34    29   ar
    39    11     6   ar
    40    36    37    1
    41    18    19    1
@<TRIPOS>MOLECULE
*****
 37 41 0 0 0
SMALL
GASTEIGER

@<TRIPOS>ATOM
      1 N           6.2166   -1.9667   26.6410 N.3     1  UNL1       -0.2679
      2 C           6.5533   -3.3652   27.0663 C.3     1  UNL1        0.0978
      3 C           6.8303   -4.4170   26.0334 C.3     1  UNL1        0.0224
      4 C           7.1670   -5.8155   26.4587 C.3     1  UNL1        0.0065
      5 C           7.2266   -6.1622   27.9169 C.3     1  UNL1        0.0277
      6 C           6.9495   -5.1103   28.9497 C.ar    1  UNL1       -0.0073
      7 C           7.0091   -5.4570   30.4080 C.ar    1  UNL1       -0.0015
      8 C           6.7320   -4.4052   31.4408 C.ar    1  UNL1        0.0203
      9 C           6.3953   -3.0067   31.0155 C.ar    1  UNL1        0.0985
     10 N           6.3357   -2.6600   29.5574 N.ar    1  UNL1       -0.2471
     11 C           6.6128   -3.7119   28.5244 C.ar    1  UNL1        0.0695
     12 C           7.2985   -0.9328   26.5392 C.3     1  UNL1        0.0725
     13 C           8.3001   -1.0025   25.4248 C.3     1  UNL1        0.0187
     14 C           7.3554    0.6114   24.4234 C.3     1  UNL1        0.0014
     15 C           7.8706   -0.7361   24.0125 C.3     1  UNL1        0.0158
     16 C           8.3857   -2.0836   23.6017 C.3     1  UNL1        0.0014
     17 C           7.4410   -0.4697   22.6003 C.3     1  UNL1        0.0685
     18 N           7.7181   -1.4818   21.5285 N.3     1  UNL1       -0.2984
     19 H           7.4060   -2.3840   21.8877 H       1  UNL1        0.1232
     20 C           7.1050   -1.3215   20.1689 C.3     1  UNL1        0.0590
     21 C           7.2727   -2.3988   19.1387 C.3     1  UNL1        0.0478
     22 C           6.6596   -2.2384   17.7791 C.3     1  UNL1        0.1435
     23 O           5.8788   -1.0007   17.4498 O.3     1  UNL1       -0.3537
     24 C           5.7112    0.0767   18.4800 C.3     1  UNL1        0.1435
     25 C           6.3243   -0.0837   19.8395 C.3     1  UNL1        0.0478
     26 C           4.7980   -1.6022   26.3175 C.3     1  UNL1        0.0886
     27 C           4.3430   -1.5543   24.8889 C.3     1  UNL1        0.0748
     28 C           4.7039   -2.6664   23.9492 C.3     1  UNL1        0.0432
     29 C           4.2489   -2.6186   22.5206 C.ar    1  UNL1       -0.0234
     30 C           4.6097   -3.7307   21.5810 C.ar    1  UNL1       -0.0045
     31 C           4.1547   -3.6828   20.1525 C.ar    1  UNL1       -0.0003
     32 C           3.3390   -2.5228   19.6636 C.ar    1  UNL1       -0.0003
     33 C           2.9782   -1.4107   20.6033 C.ar    1  UNL1       -0.0032
     34 C           3.4331   -1.4586   22.0318 C.ar    1  UNL1       -0.0103
     35 C           3.0723   -0.3465   22.9715 C.3     1  UNL1        0.0953
     36 N           3.5273   -0.3943   24.4000 N.3     1  UNL1       -0.2934
     37 H           2.6874   -0.3608   24.9778 H       1  UNL1        0.1236
@<TRIPOS>BOND
     1    14    15    1
     2    15    16    1
     3    15    13    1
     4    13    12    1
     5    12     1    1
     6     1    26    1
     7    27    26    1
     8    27    28    1
     9    28    29    1
    10    29    30   ar
    11    30    31   ar
    12    31    32   ar
    13    32    33   ar
    14    33    34   ar
    15    34    35    1
    16    35    36    1
    17     2     1    1
    18     2     3    1
    19     3     4    1
    20     4     5    1
    21     5     6    1
    22     6     7   ar
    23     7     8   ar
    24     8     9   ar
    25     9    10   ar
    26    10    11   ar
    27    15    17    1
    28    17    18    1
    29    18    20    1
    30    20    21    1
    31    21    22    1
    32    22    23    1
    33    23    24    1
    34    24    25    1
    35    36    27    1
    36    11     2    1
    37    25    20    1
    38    34    29   ar
    39    11     6   ar
    40    36    37    1
    41    18    19    1
@<TRIPOS>MOLECULE
*****
 37 41 0 0 0
SMALL
GASTEIGER

@<TRIPOS>ATOM
      1 N         -15.6854   -1.8688   19.7806 N.3     1  UNL1       -0.2679
      2 C         -15.4305   -0.4839   19.2638 C.3     1  UNL1        0.0978
      3 C         -14.4879   -0.2733   18.1161 C.3     1  UNL1        0.0224
      4 C         -14.2331    1.1116   17.5993 C.3     1  UNL1        0.0065
      5 C         -14.9209    2.2859   18.2302 C.3     1  UNL1        0.0277
      6 C         -15.8635    2.0753   19.3778 C.ar    1  UNL1       -0.0073
      7 C         -16.5513    3.2496   20.0087 C.ar    1  UNL1       -0.0015
      8 C         -17.4939    3.0390   21.1563 C.ar    1  UNL1        0.0203
      9 C         -17.7487    1.6541   21.6731 C.ar    1  UNL1        0.0985
     10 N         -17.0609    0.4798   21.0423 N.ar    1  UNL1       -0.2471
     11 C         -16.1183    0.6904   19.8946 C.ar    1  UNL1        0.0695
     12 C         -16.9390   -2.5952   19.3926 C.3     1  UNL1        0.0725
     13 C         -16.9683   -3.4269   18.1446 C.3     1  UNL1        0.0187
     14 C         -18.1715   -4.4942   19.5277 C.3     1  UNL1        0.0014
     15 C         -17.6369   -4.7696   18.1536 C.3     1  UNL1        0.0158
     16 C         -17.1024   -5.0450   16.7794 C.3     1  UNL1        0.0014
     17 C         -18.3056   -6.1123   18.1626 C.3     1  UNL1        0.0685
     18 N         -17.9519   -7.1192   19.2166 N.3     1  UNL1       -0.2984
     19 H         -18.8304   -7.4407   19.6232 H       1  UNL1        0.1232
     20 C         -17.1699   -8.3456   18.8500 C.3     1  UNL1        0.0590
     21 C         -15.7687   -8.2143   18.3310 C.3     1  UNL1        0.0478
     22 C         -14.9867   -9.4408   17.9643 C.3     1  UNL1        0.1435
     23 O         -15.6060  -10.7985   18.1167 O.3     1  UNL1       -0.3537
     24 C         -17.0072  -10.9297   18.6357 C.3     1  UNL1        0.1435
     25 C         -17.7892   -9.7033   19.0023 C.3     1  UNL1        0.0478
     26 C         -14.6865   -2.5273   20.6853 C.3     1  UNL1        0.0886
     27 C         -13.7656   -3.5811   20.1452 C.3     1  UNL1        0.0748
     28 C         -12.4674   -3.1864   19.5059 C.3     1  UNL1        0.0432
     29 C         -11.5465   -4.2402   18.9658 C.ar    1  UNL1       -0.0234
     30 C         -10.2483   -3.8456   18.3264 C.ar    1  UNL1       -0.0045
     31 C          -9.3275   -4.8993   17.7864 C.ar    1  UNL1       -0.0003
     32 C          -9.7049   -6.3477   17.8856 C.ar    1  UNL1       -0.0003
     33 C         -11.0031   -6.7423   18.5249 C.ar    1  UNL1       -0.0032
     34 C         -11.9239   -5.6885   19.0650 C.ar    1  UNL1       -0.0103
     35 C         -13.2223   -6.0831   19.7044 C.3     1  UNL1        0.0953
     36 N         -14.1431   -5.0294   20.2445 N.3     1  UNL1       -0.2934
     37 H         -14.2738   -5.2324   21.2355 H       1  UNL1        0.1236
@<TRIPOS>BOND
     1    14    15    1
     2    15    16    1
     3    15    13    1
     4    13    12    1
     5    12     1    1
     6     1    26    1
     7    27    26    1
     8    27    28    1
     9    28    29    1
    10    29    30   ar
    11    30    31   ar
    12    31    32   ar
    13    32    33   ar
    14    33    34   ar
    15    34    35    1
    16    35    36    1
    17     2     1    1
    18     2     3    1
    19     3     4    1
    20     4     5    1
    21     5     6    1
    22     6     7   ar
    23     7     8   ar
    24     8     9   ar
    25     9    10   ar
    26    10    11   ar
    27    15    17    1
    28    17    18    1
    29    18    20    1
    30    20    21    1
    31    21    22    1
    32    22    23    1
    33    23    24    1
    34    24    25    1
    35    36    27    1
    36    11     2    1
    37    25    20    1
    38    34    29   ar
    39    11     6   ar
    40    36    37    1
    41    18    19    1
