@<TRIPOS>MOLECULE
*****
 24 26 0 0 0
SMALL
GASTEIGER

@<TRIPOS>ATOM
      1 C          -8.2414  -17.9337   22.4140 C.3     1  UNL1        0.1301
      2 C          -8.5412  -18.8490   21.2641 C.3     1  UNL1        0.0388
      3 C          -9.6913  -17.9411   22.7980 C.ar    1  UNL1        0.0059
      4 C         -10.5733  -16.7883   22.4193 C.ar    1  UNL1       -0.0008
      5 C         -12.0233  -16.7956   22.8033 C.ar    1  UNL1        0.0112
      6 C         -12.5914  -17.9557   23.5659 C.ar    1  UNL1        0.0577
      7 CL        -14.0414  -17.9630   23.9499 Cl      1  UNL1       -0.0822
      8 C         -11.7095  -19.1084   23.9446 C.ar    1  UNL1        0.0112
      9 C         -10.2594  -19.1011   23.5607 C.ar    1  UNL1       -0.0008
     10 C          -7.9415  -17.0184   23.5640 C.ar    1  UNL1        0.0059
     11 C          -8.7788  -17.0769   24.8072 C.ar    1  UNL1       -0.0017
     12 C          -8.4789  -16.1616   25.9571 C.ar    1  UNL1       -0.0002
     13 C          -7.3418  -15.1879   25.8638 C.ar    1  UNL1       -0.0000
     14 C          -6.5045  -15.1294   24.6206 C.ar    1  UNL1       -0.0002
     15 C          -6.8044  -16.0447   23.4707 C.ar    1  UNL1       -0.0017
     16 O          -6.7914  -17.9264   22.0301 O.3     1  UNL1       -0.3504
     17 C          -6.0300  -19.2163   21.9509 C.3     1  UNL1        0.1442
     18 C          -4.6043  -19.2753   22.4138 C.3     1  UNL1        0.0480
     19 C          -3.2679  -19.0927   19.4423 C.3     1  UNL1        0.0896
     20 N          -3.0078  -18.1565   20.5850 N.3     1  UNL1       -0.2727
     21 C          -2.0878  -16.9721   20.5626 C.3     1  UNL1        0.0721
     22 C          -2.1335  -16.3240   21.9146 C.3     1  UNL1        0.0187
     23 C          -3.0817  -17.1079   22.7726 C.3     1  UNL1        0.0175
     24 C          -3.6221  -18.2405   21.9509 C.3     1  UNL1        0.0601
@<TRIPOS>BOND
     1    19    20    1
     2    20    21    1
     3    21    22    1
     4    22    23    1
     5    23    24    1
     6    24    18    1
     7    18    17    1
     8    17    16    1
     9    16     1    1
    10     1     2    1
    11     1    10    1
    12    10    11   ar
    13    11    12   ar
    14    12    13   ar
    15    13    14   ar
    16    14    15   ar
    17     1     3    1
    18     3     4   ar
    19     4     5   ar
    20     5     6   ar
    21     6     7    1
    22     6     8   ar
    23     8     9   ar
    24    24    20    1
    25    15    10   ar
    26     9     3   ar
@<TRIPOS>MOLECULE
*****
 24 26 0 0 0
SMALL
GASTEIGER

@<TRIPOS>ATOM
      1 C          -9.0642  -17.7282   21.9220 C.3     1  UNL1        0.1301
      2 C          -9.5215  -18.5839   20.7781 C.3     1  UNL1        0.0388
      3 C         -10.4233  -17.8374   22.5471 C.ar    1  UNL1        0.0059
      4 C         -10.7685  -19.0309   23.3877 C.ar    1  UNL1       -0.0008
      5 C         -12.1276  -19.1401   24.0128 C.ar    1  UNL1        0.0112
      6 C         -13.1415  -18.0559   23.7975 C.ar    1  UNL1        0.0577
      7 CL        -14.5007  -18.1652   24.4227 Cl      1  UNL1       -0.0822
      8 C         -12.7964  -16.8625   22.9569 C.ar    1  UNL1        0.0112
      9 C         -11.4372  -16.7532   22.3317 C.ar    1  UNL1       -0.0008
     10 C          -8.6068  -16.8725   23.0660 C.ar    1  UNL1        0.0059
     11 C          -7.7846  -15.6458   22.8031 C.ar    1  UNL1       -0.0017
     12 C          -7.3273  -14.7901   23.9470 C.ar    1  UNL1       -0.0002
     13 C          -7.6921  -15.1612   25.3539 C.ar    1  UNL1       -0.0000
     14 C          -8.5143  -16.3879   25.6168 C.ar    1  UNL1       -0.0002
     15 C          -8.9717  -17.2435   24.4728 C.ar    1  UNL1       -0.0017
     16 O          -7.7050  -17.6190   21.2968 O.3     1  UNL1       -0.3504
     17 C          -6.8977  -18.8560   21.0363 C.3     1  UNL1        0.1442
     18 C          -5.9971  -19.4025   22.1042 C.3     1  UNL1        0.0480
     19 C          -3.5428  -20.3969   20.1971 C.3     1  UNL1        0.0896
     20 N          -3.4435  -19.4004   21.3140 N.3     1  UNL1       -0.2727
     21 C          -2.1989  -18.6861   21.7503 C.3     1  UNL1        0.0721
     22 C          -2.5577  -17.7876   22.8965 C.3     1  UNL1        0.0187
     23 C          -4.0242  -17.9466   23.1686 C.3     1  UNL1        0.0175
     24 C          -4.5717  -18.9434   22.1905 C.3     1  UNL1        0.0601
@<TRIPOS>BOND
     1    19    20    1
     2    20    21    1
     3    21    22    1
     4    22    23    1
     5    23    24    1
     6    24    18    1
     7    18    17    1
     8    17    16    1
     9    16     1    1
    10     1     2    1
    11     1    10    1
    12    10    11   ar
    13    11    12   ar
    14    12    13   ar
    15    13    14   ar
    16    14    15   ar
    17     1     3    1
    18     3     4   ar
    19     4     5   ar
    20     5     6   ar
    21     6     7    1
    22     6     8   ar
    23     8     9   ar
    24    24    20    1
    25    15    10   ar
    26     9     3   ar
@<TRIPOS>MOLECULE
*****
 24 26 0 0 0
SMALL
GASTEIGER

@<TRIPOS>ATOM
      1 C          -8.3817  -17.2060   22.7861 C.3     1  UNL1        0.1301
      2 C          -8.2556  -16.3131   23.9847 C.3     1  UNL1        0.0388
      3 C          -9.8278  -17.4373   23.1105 C.ar    1  UNL1        0.0059
      4 C         -10.8670  -16.4628   22.6409 C.ar    1  UNL1       -0.0008
      5 C         -12.3131  -16.6941   22.9653 C.ar    1  UNL1        0.0112
      6 C         -12.7201  -17.8999   23.7593 C.ar    1  UNL1        0.0577
      7 CL        -14.1662  -18.1312   24.0837 Cl      1  UNL1       -0.0822
      8 C         -11.6809  -18.8744   24.2289 C.ar    1  UNL1        0.0112
      9 C         -10.2348  -18.6431   23.9045 C.ar    1  UNL1       -0.0008
     10 C          -8.5078  -18.0989   21.5874 C.ar    1  UNL1        0.0059
     11 C          -7.3365  -18.9211   21.1380 C.ar    1  UNL1       -0.0017
     12 C          -7.4627  -19.8140   19.9394 C.ar    1  UNL1       -0.0002
     13 C          -8.7602  -19.8847   19.1901 C.ar    1  UNL1       -0.0000
     14 C          -9.9315  -19.0626   19.6395 C.ar    1  UNL1       -0.0002
     15 C          -9.8054  -18.1697   20.8381 C.ar    1  UNL1       -0.0017
     16 O          -6.9356  -16.9747   22.4617 O.3     1  UNL1       -0.3504
     17 C          -6.0332  -16.3335   23.4738 C.3     1  UNL1        0.1442
     18 C          -4.7302  -16.9832   23.8351 C.3     1  UNL1        0.0480
     19 C          -2.2978  -16.0349   21.8772 C.3     1  UNL1        0.0896
     20 N          -2.9000  -17.4076   21.9338 N.3     1  UNL1       -0.2727
     21 C          -2.4899  -18.5853   21.1004 C.3     1  UNL1        0.0721
     22 C          -3.3544  -19.7491   21.4852 C.3     1  UNL1        0.0187
     23 C          -4.2989  -19.2906   22.5565 C.3     1  UNL1        0.0175
     24 C          -4.0181  -17.8435   22.8337 C.3     1  UNL1        0.0601
@<TRIPOS>BOND
     1    19    20    1
     2    20    21    1
     3    21    22    1
     4    22    23    1
     5    23    24    1
     6    24    18    1
     7    18    17    1
     8    17    16    1
     9    16     1    1
    10     1     2    1
    11     1    10    1
    12    10    11   ar
    13    11    12   ar
    14    12    13   ar
    15    13    14   ar
    16    14    15   ar
    17     1     3    1
    18     3     4   ar
    19     4     5   ar
    20     5     6   ar
    21     6     7    1
    22     6     8   ar
    23     8     9   ar
    24    24    20    1
    25    15    10   ar
    26     9     3   ar
@<TRIPOS>MOLECULE
*****
 24 26 0 0 0
SMALL
GASTEIGER

@<TRIPOS>ATOM
      1 C         -15.1160   -6.8622   17.3716 C.3     1  UNL1        0.1301
      2 C         -15.5307   -7.9865   16.4694 C.3     1  UNL1        0.0388
      3 C         -16.2552   -7.1818   18.2935 C.ar    1  UNL1        0.0059
      4 C         -16.1985   -8.4052   19.1597 C.ar    1  UNL1       -0.0008
      5 C         -17.3378   -8.7248   20.0816 C.ar    1  UNL1        0.0112
      6 C         -18.5336   -7.8210   20.1375 C.ar    1  UNL1        0.0577
      7 CL        -19.6729   -8.1407   21.0595 Cl      1  UNL1       -0.0822
      8 C         -18.5903   -6.5977   19.2714 C.ar    1  UNL1        0.0112
      9 C         -17.4510   -6.2781   18.3494 C.ar    1  UNL1       -0.0008
     10 C         -14.7012   -5.7379   18.2739 C.ar    1  UNL1        0.0059
     11 C         -14.9401   -4.3164   17.8591 C.ar    1  UNL1       -0.0017
     12 C         -14.5254   -3.1921   18.7614 C.ar    1  UNL1       -0.0002
     13 C         -13.8718   -3.4895   20.0784 C.ar    1  UNL1       -0.0000
     14 C         -13.6329   -4.9111   20.4931 C.ar    1  UNL1       -0.0002
     15 C         -14.0476   -6.0353   19.5908 C.ar    1  UNL1       -0.0017
     16 O         -13.9767   -6.5427   16.4497 O.3     1  UNL1       -0.3504
     17 C         -12.8018   -7.4707   16.3595 C.3     1  UNL1        0.1442
     18 C         -11.4134   -6.9142   16.2463 C.3     1  UNL1        0.0480
     19 C          -9.4724   -7.7072   18.7469 C.3     1  UNL1        0.0896
     20 N         -10.0028   -6.3375   18.4423 N.3     1  UNL1       -0.2727
     21 C          -9.7342   -5.0919   19.2336 C.3     1  UNL1        0.0721
     22 C         -10.4603   -3.9576   18.5733 C.3     1  UNL1        0.0187
     23 C         -11.1777   -4.5022   17.3739 C.3     1  UNL1        0.0175
     24 C         -10.8950   -5.9730   17.2929 C.3     1  UNL1        0.0601
@<TRIPOS>BOND
     1    19    20    1
     2    20    21    1
     3    21    22    1
     4    22    23    1
     5    23    24    1
     6    24    18    1
     7    18    17    1
     8    17    16    1
     9    16     1    1
    10     1     2    1
    11     1    10    1
    12    10    11   ar
    13    11    12   ar
    14    12    13   ar
    15    13    14   ar
    16    14    15   ar
    17     1     3    1
    18     3     4   ar
    19     4     5   ar
    20     5     6   ar
    21     6     7    1
    22     6     8   ar
    23     8     9   ar
    24    24    20    1
    25    15    10   ar
    26     9     3   ar
@<TRIPOS>MOLECULE
*****
 24 26 0 0 0
SMALL
GASTEIGER

@<TRIPOS>ATOM
      1 C         -14.7096   -5.5186   18.2544 C.3     1  UNL1        0.1301
      2 C         -16.0443   -4.9204   18.5866 C.3     1  UNL1        0.0388
      3 C         -15.2867   -6.8941   18.4127 C.ar    1  UNL1        0.0059
      4 C         -15.1439   -7.8990   17.3082 C.ar    1  UNL1       -0.0008
      5 C         -15.7210   -9.2744   17.4664 C.ar    1  UNL1        0.0112
      6 C         -16.4409   -9.6450   18.7291 C.ar    1  UNL1        0.0577
      7 CL        -17.0180  -11.0206   18.8873 Cl      1  UNL1       -0.0822
      8 C         -16.5837   -8.6402   19.8336 C.ar    1  UNL1        0.0112
      9 C         -16.0065   -7.2647   19.6754 C.ar    1  UNL1       -0.0008
     10 C         -13.3747   -6.1170   17.9222 C.ar    1  UNL1        0.0059
     11 C         -12.8649   -6.0770   16.5121 C.ar    1  UNL1       -0.0017
     12 C         -11.5301   -6.6753   16.1800 C.ar    1  UNL1       -0.0002
     13 C         -10.7052   -7.3136   17.2580 C.ar    1  UNL1       -0.0000
     14 C         -11.2150   -7.3536   18.6681 C.ar    1  UNL1       -0.0002
     15 C         -12.5498   -6.7553   19.0002 C.ar    1  UNL1       -0.0017
     16 O         -14.1325   -4.1432   18.0962 O.3     1  UNL1       -0.3504
     17 C         -13.7127   -3.3622   19.3061 C.3     1  UNL1        0.1442
     18 C         -12.3898   -2.6552   19.3205 C.3     1  UNL1        0.0480
     19 C         -12.3891   -1.6002   16.2324 C.3     1  UNL1        0.0896
     20 N         -11.3571   -2.4893   16.8606 N.3     1  UNL1       -0.2727
     21 C         -10.1438   -3.0496   16.1797 C.3     1  UNL1        0.0721
     22 C          -9.3942   -3.8808   17.1783 C.3     1  UNL1        0.0187
     23 C         -10.1443   -3.8342   18.4764 C.3     1  UNL1        0.0175
     24 C         -11.3575   -2.9742   18.2801 C.3     1  UNL1        0.0601
@<TRIPOS>BOND
     1    19    20    1
     2    20    21    1
     3    21    22    1
     4    22    23    1
     5    23    24    1
     6    24    18    1
     7    18    17    1
     8    17    16    1
     9    16     1    1
    10     1     2    1
    11     1    10    1
    12    10    11   ar
    13    11    12   ar
    14    12    13   ar
    15    13    14   ar
    16    14    15   ar
    17     1     3    1
    18     3     4   ar
    19     4     5   ar
    20     5     6   ar
    21     6     7    1
    22     6     8   ar
    23     8     9   ar
    24    24    20    1
    25    15    10   ar
    26     9     3   ar
@<TRIPOS>MOLECULE
*****
 24 26 0 0 0
SMALL
GASTEIGER

@<TRIPOS>ATOM
      1 C         -12.2626   -2.8875   17.6262 C.3     1  UNL1        0.1301
      2 C         -11.1424   -2.4444   16.7325 C.3     1  UNL1        0.0388
      3 C         -11.5054   -4.1401   17.9542 C.ar    1  UNL1        0.0059
      4 C         -11.9753   -5.4616   17.4222 C.ar    1  UNL1       -0.0008
      5 C         -11.2182   -6.7142   17.7502 C.ar    1  UNL1        0.0112
      6 C          -9.9911   -6.6454   18.6101 C.ar    1  UNL1        0.0577
      7 CL         -9.2339   -7.8982   18.9381 Cl      1  UNL1       -0.0822
      8 C          -9.5212   -5.3241   19.1422 C.ar    1  UNL1        0.0112
      9 C         -10.2784   -4.0713   18.8142 C.ar    1  UNL1       -0.0008
     10 C         -13.3829   -3.3307   18.5200 C.ar    1  UNL1        0.0059
     11 C         -14.6945   -3.7513   17.9262 C.ar    1  UNL1       -0.0017
     12 C         -15.8146   -4.1944   18.8199 C.ar    1  UNL1       -0.0002
     13 C         -15.6232   -4.2170   20.3075 C.ar    1  UNL1       -0.0000
     14 C         -14.3115   -3.7964   20.9013 C.ar    1  UNL1       -0.0002
     15 C         -13.1914   -3.3533   20.0075 C.ar    1  UNL1       -0.0017
     16 O         -13.0198   -1.6349   17.2983 O.3     1  UNL1       -0.3504
     17 C         -12.7111   -0.3598   18.0254 C.3     1  UNL1        0.1442
     18 C         -13.8279    0.5183   18.5070 C.3     1  UNL1        0.0480
     19 C         -15.9789   -0.0516   16.1199 C.3     1  UNL1        0.0896
     20 N         -16.1950   -0.3099   17.5816 N.3     1  UNL1       -0.2727
     21 C         -17.4376   -0.8755   18.2027 C.3     1  UNL1        0.0721
     22 C         -17.2170   -0.9631   19.6838 C.3     1  UNL1        0.0187
     23 C         -15.8380   -0.4517   19.9780 C.3     1  UNL1        0.0175
     24 C         -15.2063   -0.0480   18.6788 C.3     1  UNL1        0.0601
@<TRIPOS>BOND
     1    19    20    1
     2    20    21    1
     3    21    22    1
     4    22    23    1
     5    23    24    1
     6    24    18    1
     7    18    17    1
     8    17    16    1
     9    16     1    1
    10     1     2    1
    11     1    10    1
    12    10    11   ar
    13    11    12   ar
    14    12    13   ar
    15    13    14   ar
    16    14    15   ar
    17     1     3    1
    18     3     4   ar
    19     4     5   ar
    20     5     6   ar
    21     6     7    1
    22     6     8   ar
    23     8     9   ar
    24    24    20    1
    25    15    10   ar
    26     9     3   ar
@<TRIPOS>MOLECULE
*****
 24 26 0 0 0
SMALL
GASTEIGER

@<TRIPOS>ATOM
      1 C          -9.5744  -17.4507   23.0726 C.3     1  UNL1        0.1301
      2 C          -9.2298  -16.8414   24.3992 C.3     1  UNL1        0.0388
      3 C         -10.9683  -17.7182   23.5576 C.ar    1  UNL1        0.0059
      4 C         -11.2020  -18.7090   24.6593 C.ar    1  UNL1       -0.0008
      5 C         -12.5959  -18.9766   25.1443 C.ar    1  UNL1        0.0112
      6 C         -13.7563  -18.2533   24.5276 C.ar    1  UNL1        0.0577
      7 CL        -15.1504  -18.5208   25.0126 Cl      1  UNL1       -0.0822
      8 C         -13.5228  -17.2625   23.4259 C.ar    1  UNL1        0.0112
      9 C         -12.1287  -16.9950   22.9409 C.ar    1  UNL1       -0.0008
     10 C          -9.9190  -18.0601   21.7460 C.ar    1  UNL1        0.0059
     11 C         -10.4502  -17.1975   20.6397 C.ar    1  UNL1       -0.0017
     12 C         -10.7948  -17.8069   19.3132 C.ar    1  UNL1       -0.0002
     13 C         -10.6083  -19.2788   19.0928 C.ar    1  UNL1       -0.0000
     14 C         -10.0771  -20.1414   20.1991 C.ar    1  UNL1       -0.0002
     15 C          -9.7325  -19.5320   21.5256 C.ar    1  UNL1       -0.0017
     16 O          -8.1804  -17.1832   22.5877 O.3     1  UNL1       -0.3504
     17 C          -7.2027  -18.3130   22.4550 C.3     1  UNL1        0.1442
     18 C          -5.7303  -18.0472   22.5626 C.3     1  UNL1        0.0480
     19 C          -2.4781  -17.9566   22.8166 C.3     1  UNL1        0.0896
     20 N          -3.2654  -18.8224   21.8782 N.3     1  UNL1       -0.2727
     21 C          -2.6960  -19.7986   20.8919 C.3     1  UNL1        0.0721
     22 C          -3.8390  -20.4436   20.1656 C.3     1  UNL1        0.0187
     23 C          -5.1147  -19.8660   20.7030 C.3     1  UNL1        0.0175
     24 C          -4.7602  -18.8641   21.7615 C.3     1  UNL1        0.0601
@<TRIPOS>BOND
     1    19    20    1
     2    20    21    1
     3    21    22    1
     4    22    23    1
     5    23    24    1
     6    24    18    1
     7    18    17    1
     8    17    16    1
     9    16     1    1
    10     1     2    1
    11     1    10    1
    12    10    11   ar
    13    11    12   ar
    14    12    13   ar
    15    13    14   ar
    16    14    15   ar
    17     1     3    1
    18     3     4   ar
    19     4     5   ar
    20     5     6   ar
    21     6     7    1
    22     6     8   ar
    23     8     9   ar
    24    24    20    1
    25    15    10   ar
    26     9     3   ar
@<TRIPOS>MOLECULE
*****
 24 26 0 0 0
SMALL
GASTEIGER

@<TRIPOS>ATOM
      1 C         -13.3231   -3.5253   19.6230 C.3     1  UNL1        0.1301
      2 C         -13.9094   -4.3549   20.7266 C.3     1  UNL1        0.0388
      3 C         -12.3519   -4.6253   19.3121 C.ar    1  UNL1        0.0059
      4 C         -12.8441   -6.0300   19.1255 C.ar    1  UNL1       -0.0008
      5 C         -11.8729   -7.1300   18.8147 C.ar    1  UNL1        0.0112
      6 C         -10.4094   -6.8254   18.6904 C.ar    1  UNL1        0.0577
      7 CL         -9.4382   -7.9255   18.3796 Cl      1  UNL1       -0.0822
      8 C          -9.9172   -5.4209   18.8770 C.ar    1  UNL1        0.0112
      9 C         -10.8884   -4.3208   19.1879 C.ar    1  UNL1       -0.0008
     10 C         -12.7368   -2.6958   18.5192 C.ar    1  UNL1        0.0059
     11 C         -11.8436   -1.5359   18.8461 C.ar    1  UNL1       -0.0017
     12 C         -11.2574   -0.7065   17.7424 C.ar    1  UNL1       -0.0002
     13 C         -11.5643   -1.0369   16.3118 C.ar    1  UNL1       -0.0000
     14 C         -12.4574   -2.1968   15.9849 C.ar    1  UNL1       -0.0002
     15 C         -13.0437   -3.0262   17.0886 C.ar    1  UNL1       -0.0017
     16 O         -14.2944   -2.4253   19.9338 O.3     1  UNL1       -0.3504
     17 C         -15.7505   -2.5993   19.6187 C.3     1  UNL1        0.1442
     18 C         -16.5721   -1.4185   19.1931 C.3     1  UNL1        0.0480
     19 C         -17.1341    1.2270   21.0192 C.3     1  UNL1        0.0896
     20 N         -16.1827    1.1398   19.8628 N.3     1  UNL1       -0.2727
     21 C         -15.3227    2.2532   19.3428 C.3     1  UNL1        0.0721
     22 C         -14.5328    1.7253   18.1820 C.3     1  UNL1        0.0187
     23 C         -14.9046    0.2857   17.9847 C.3     1  UNL1        0.0175
     24 C         -15.9244   -0.0763   19.0235 C.3     1  UNL1        0.0601
@<TRIPOS>BOND
     1    19    20    1
     2    20    21    1
     3    21    22    1
     4    22    23    1
     5    23    24    1
     6    24    18    1
     7    18    17    1
     8    17    16    1
     9    16     1    1
    10     1     2    1
    11     1    10    1
    12    10    11   ar
    13    11    12   ar
    14    12    13   ar
    15    13    14   ar
    16    14    15   ar
    17     1     3    1
    18     3     4   ar
    19     4     5   ar
    20     5     6   ar
    21     6     7    1
    22     6     8   ar
    23     8     9   ar
    24    24    20    1
    25    15    10   ar
    26     9     3   ar
@<TRIPOS>MOLECULE
*****
 24 26 0 0 0
SMALL
GASTEIGER

@<TRIPOS>ATOM
      1 C          -6.8411  -18.8114   21.6907 C.3     1  UNL1        0.1301
      2 C          -6.4851  -17.8687   22.8018 C.3     1  UNL1        0.0388
      3 C          -5.4013  -18.8633   21.2734 C.ar    1  UNL1        0.0059
      4 C          -4.3353  -19.1452   22.2904 C.ar    1  UNL1       -0.0008
      5 C          -2.8955  -19.1970   21.8731 C.ar    1  UNL1        0.0112
      6 C          -2.5216  -18.9670   20.4388 C.ar    1  UNL1        0.0577
      7 CL         -1.0817  -19.0189   20.0214 Cl      1  UNL1       -0.0822
      8 C          -3.5875  -18.6852   19.4218 C.ar    1  UNL1        0.0112
      9 C          -5.0274  -18.6333   19.8391 C.ar    1  UNL1       -0.0008
     10 C          -7.1971  -19.7542   20.5796 C.ar    1  UNL1        0.0059
     11 C          -8.3345  -19.4306   19.6569 C.ar    1  UNL1       -0.0017
     12 C          -8.6904  -20.3734   18.5458 C.ar    1  UNL1       -0.0002
     13 C          -7.9089  -21.6398   18.3575 C.ar    1  UNL1       -0.0000
     14 C          -6.7715  -21.9634   19.2803 C.ar    1  UNL1       -0.0002
     15 C          -6.4156  -21.0206   20.3913 C.ar    1  UNL1       -0.0017
     16 O          -8.2809  -18.7596   22.1081 O.3     1  UNL1       -0.3504
     17 C          -8.8346  -19.8105   23.0240 C.3     1  UNL1        0.1442
     18 C         -10.2869  -20.1790   22.9515 C.3     1  UNL1        0.0480
     19 C         -12.4336  -18.7230   24.9316 C.3     1  UNL1        0.0896
     20 N         -12.2890  -18.4819   23.4582 N.3     1  UNL1       -0.2727
     21 C         -13.1055  -17.5292   22.6363 C.3     1  UNL1        0.0721
     22 C         -12.6235  -17.6097   21.2182 C.3     1  UNL1        0.0187
     23 C         -11.5090  -18.6121   21.1636 C.3     1  UNL1        0.0175
     24 C         -11.3022  -19.1511   22.5481 C.3     1  UNL1        0.0601
@<TRIPOS>BOND
     1    19    20    1
     2    20    21    1
     3    21    22    1
     4    22    23    1
     5    23    24    1
     6    24    18    1
     7    18    17    1
     8    17    16    1
     9    16     1    1
    10     1     2    1
    11     1    10    1
    12    10    11   ar
    13    11    12   ar
    14    12    13   ar
    15    13    14   ar
    16    14    15   ar
    17     1     3    1
    18     3     4   ar
    19     4     5   ar
    20     5     6   ar
    21     6     7    1
    22     6     8   ar
    23     8     9   ar
    24    24    20    1
    25    15    10   ar
    26     9     3   ar
