@<TRIPOS>MOLECULE
*****
 35 37 0 0 0
SMALL
GASTEIGER

@<TRIPOS>ATOM
      1 C           3.4953    0.4478   18.4235 C.ar    1  UNL1        0.0293
      2 C           2.0688    0.9107   18.4514 C.ar    1  UNL1        0.0145
      3 C           1.7553    2.3772   18.4201 C.ar    1  UNL1        0.0505
      4 C           2.8685    3.3810   18.3611 C.ar    1  UNL1        0.0170
      5 C           4.2950    2.9181   18.3332 C.ar    1  UNL1        0.0306
      6 C           4.6084    1.4515   18.3645 C.ar    1  UNL1        0.1380
      7 F           6.0349    0.9887   18.3367 F       1  UNL1       -0.2044
      8 C           3.9787   -1.8388   20.9142 C.3     1  UNL1        0.2635
      9 O           4.2765   -3.2271   20.4306 O.2     1  UNL1       -0.4452
     10 C           4.3405   -3.5112   18.9592 C.2     1  UNL1        0.2770
     11 N           4.6383   -4.8996   18.4756 N.pl3   1  UNL1       -0.3133
     12 N           4.1066   -2.4071   17.9712 N.2     1  UNL1       -0.2214
     13 C           3.8087   -1.0187   18.4548 C.3     1  UNL1        0.1433
     14 C           3.7638   -0.7935   16.9725 C.3     1  UNL1        0.0321
     15 C           3.7448   -0.7346   19.9262 C.3     1  UNL1        0.2304
     16 F           3.4469    0.6538   20.4098 F       1  UNL1       -0.2308
     17 H           4.7918   -5.6243   19.1241 H       1  UNL1        0.1466
     18 H           4.6803   -5.0861   17.5099 H       1  UNL1        0.1466
     19 C           3.8508   -1.2706   23.8571 C.3     1  UNL1        0.0762
     20 C           3.9148   -1.5547   22.3856 C.3     1  UNL1        0.3027
     21 F           2.4616   -1.2064   22.2552 F       1  UNL1       -0.2003
     22 F           5.3680   -1.9029   22.5160 F       1  UNL1       -0.2003
     23 N           0.3288    2.8400   18.4479 N.am    1  UNL1       -0.2791
     24 C          -0.3978    2.9526   19.7554 C.2     1  UNL1        0.2688
     25 O           0.3022    2.6024   21.0350 O.2     1  UNL1       -0.2681
     26 H          -0.1306    3.0699   17.6081 H       1  UNL1        0.1552
     27 C          -1.8243    3.4154   19.7833 C.ar    1  UNL1        0.1541
     28 C          -2.2954    4.4529   18.8076 C.ar    1  UNL1        0.1258
     29 N          -3.7219    4.9157   18.8355 N.ar    1  UNL1       -0.2070
     30 C          -4.6773    4.3412   19.8389 C.ar    1  UNL1        0.2469
     31 C          -4.2063    3.3037   20.8146 C.ar    1  UNL1        0.1566
     32 N          -2.7798    2.8409   20.7867 N.ar    1  UNL1       -0.2328
     33 O          -6.1040    4.8040   19.8668 O.3     1  UNL1       -0.4265
     34 C          -7.0981    4.2285   18.9022 C.3     1  UNL1        0.4044
     35 F          -7.1013    2.7556   18.6181 F       1  UNL1       -0.1809
@<TRIPOS>BOND
     1    19    20    1
     2    20    21    1
     3    20    22    1
     4     8    20    1
     5     8     9    1
     6     9    10    1
     7    10    11    1
     8    10    12    2
     9    12    13    1
    10    13    14    1
    11    13     1    1
    12     1     2   ar
    13     2     3   ar
    14     3    23    1
    15    23    24   am
    16    24    25    2
    17    24    27    1
    18    27    28   ar
    19    28    29   ar
    20    29    30   ar
    21    30    33    1
    22    33    34    1
    23    34    35    1
    24    30    31   ar
    25    31    32   ar
    26     3     4   ar
    27     4     5   ar
    28     5     6   ar
    29     6     7    1
    30    13    15    1
    31    15    16    1
    32    15     8    1
    33     6     1   ar
    34    32    27   ar
    35    11    17    1
    36    11    18    1
    37    23    26    1
@<TRIPOS>MOLECULE
*****
 35 37 0 0 0
SMALL
GASTEIGER

@<TRIPOS>ATOM
      1 C           3.6093    0.3493   21.8163 C.ar    1  UNL1        0.0293
      2 C           3.7160   -0.0920   23.2459 C.ar    1  UNL1        0.0145
      3 C           2.5437    0.0641   24.1685 C.ar    1  UNL1        0.0505
      4 C           1.2645    0.6614   23.6615 C.ar    1  UNL1        0.0170
      5 C           1.1578    1.1027   22.2319 C.ar    1  UNL1        0.0306
      6 C           2.3302    0.9466   21.3092 C.ar    1  UNL1        0.1380
      7 F           2.2234    1.3879   19.8796 F       1  UNL1       -0.2044
      8 C           4.7880   -2.1905   19.8604 C.3     1  UNL1        0.2635
      9 O           6.0342   -1.8556   19.0956 O.2     1  UNL1       -0.4452
     10 C           6.6541   -0.4963   19.2299 C.2     1  UNL1        0.2770
     11 N           7.9004   -0.1615   18.4651 N.pl3   1  UNL1       -0.3133
     12 N           6.0278    0.5281   20.1289 N.2     1  UNL1       -0.2214
     13 C           4.7816    0.1932   20.8936 C.3     1  UNL1        0.1433
     14 C           4.9943    1.6067   21.3484 C.3     1  UNL1        0.0321
     15 C           4.1617   -1.1661   20.7593 C.3     1  UNL1        0.2304
     16 F           2.9155   -1.5009   21.5241 F       1  UNL1       -0.2308
     17 H           8.3114   -0.8339   17.8751 H       1  UNL1        0.1466
     18 H           8.3072    0.7306   18.5532 H       1  UNL1        0.1466
     19 C           3.5482   -4.9091   19.5918 C.3     1  UNL1        0.0762
     20 C           4.1681   -3.5498   19.7261 C.3     1  UNL1        0.3027
     21 F           2.9739   -2.9389   19.0548 F       1  UNL1       -0.2003
     22 F           5.3623   -4.1607   20.3974 F       1  UNL1       -0.2003
     23 N           2.6505   -0.3772   25.5981 N.am    1  UNL1       -0.2791
     24 C           2.9061    0.6324   26.6776 C.2     1  UNL1        0.2688
     25 O           3.0549    2.0834   26.3274 O.2     1  UNL1       -0.2681
     26 H           2.5528   -1.3295   25.8280 H       1  UNL1        0.1552
     27 C           3.0129    0.1912   28.1073 C.ar    1  UNL1        0.1541
     28 C           1.7787    0.0834   28.9530 C.ar    1  UNL1        0.1258
     29 N           1.8854   -0.3578   30.3827 N.ar    1  UNL1       -0.2070
     30 C           3.2262   -0.6912   30.9666 C.ar    1  UNL1        0.2469
     31 C           4.4604   -0.5833   30.1208 C.ar    1  UNL1        0.1566
     32 N           4.3537   -0.1422   28.6912 N.ar    1  UNL1       -0.2328
     33 O           3.3330   -1.1324   32.3964 O.3     1  UNL1       -0.4265
     34 C           4.4098   -2.0927   32.8064 C.3     1  UNL1        0.4044
     35 F           4.0799   -3.2541   33.6967 F       1  UNL1       -0.1809
@<TRIPOS>BOND
     1    19    20    1
     2    20    21    1
     3    20    22    1
     4     8    20    1
     5     8     9    1
     6     9    10    1
     7    10    11    1
     8    10    12    2
     9    12    13    1
    10    13    14    1
    11    13     1    1
    12     1     2   ar
    13     2     3   ar
    14     3    23    1
    15    23    24   am
    16    24    25    2
    17    24    27    1
    18    27    28   ar
    19    28    29   ar
    20    29    30   ar
    21    30    33    1
    22    33    34    1
    23    34    35    1
    24    30    31   ar
    25    31    32   ar
    26     3     4   ar
    27     4     5   ar
    28     5     6   ar
    29     6     7    1
    30    13    15    1
    31    15    16    1
    32    15     8    1
    33     6     1   ar
    34    32    27   ar
    35    11    17    1
    36    11    18    1
    37    23    26    1
@<TRIPOS>MOLECULE
*****
 35 37 0 0 0
SMALL
GASTEIGER

@<TRIPOS>ATOM
      1 C           5.7551   -2.1515   19.6011 C.ar    1  UNL1        0.0293
      2 C           5.9310   -2.1795   21.0904 C.ar    1  UNL1        0.0145
      3 C           5.2173   -3.2128   21.9107 C.ar    1  UNL1        0.0505
      4 C           4.3276   -4.2182   21.2415 C.ar    1  UNL1        0.0170
      5 C           4.1517   -4.1901   19.7522 C.ar    1  UNL1        0.0306
      6 C           4.8654   -3.1568   18.9319 C.ar    1  UNL1        0.1380
      7 F           4.6895   -3.1289   17.4426 F       1  UNL1       -0.2044
      8 C           4.9014    0.9070   18.3432 C.3     1  UNL1        0.2635
      9 O           5.9903    1.5810   17.5623 O.2     1  UNL1       -0.4452
     10 C           7.3185    0.9055   17.3906 C.2     1  UNL1        0.2770
     11 N           8.4075    1.5796   16.6096 N.pl3   1  UNL1       -0.3133
     12 N           7.5578   -0.4441   17.9999 N.2     1  UNL1       -0.2214
     13 C           6.4689   -1.1182   18.7808 C.3     1  UNL1        0.1433
     14 C           7.5492   -2.1527   18.8941 C.3     1  UNL1        0.0321
     15 C           5.1407   -0.4426   18.9525 C.3     1  UNL1        0.2304
     16 F           4.0517   -1.1167   19.7335 F       1  UNL1       -0.2308
     17 H           8.2504    2.4654   16.2098 H       1  UNL1        0.1466
     18 H           9.2792    1.1362   16.4970 H       1  UNL1        0.1466
     19 C           2.2450    2.2581   18.6865 C.3     1  UNL1        0.0762
     20 C           3.5732    1.5826   18.5149 C.3     1  UNL1        0.3027
     21 F           2.9353    0.5534   17.6295 F       1  UNL1       -0.2003
     22 F           4.2111    2.6117   19.4003 F       1  UNL1       -0.2003
     23 N           5.3932   -3.2408   23.4000 N.am    1  UNL1       -0.2791
     24 C           6.3869   -4.1777   24.0204 C.2     1  UNL1        0.2688
     25 O           7.2046   -5.0866   23.1514 O.2     1  UNL1       -0.2681
     26 H           4.8565   -2.6442   23.9704 H       1  UNL1        0.1552
     27 C           6.5629   -4.2057   25.5098 C.ar    1  UNL1        0.1541
     28 C           6.8817   -5.4971   26.2031 C.ar    1  UNL1        0.1258
     29 N           7.0577   -5.5253   27.6924 N.ar    1  UNL1       -0.2070
     30 C           6.9149   -4.2620   28.4885 C.ar    1  UNL1        0.2469
     31 C           6.5960   -2.9706   27.7952 C.ar    1  UNL1        0.1566
     32 N           6.4200   -2.9425   26.3059 N.ar    1  UNL1       -0.2328
     33 O           7.0909   -4.2901   29.9780 O.3     1  UNL1       -0.4265
     34 C           7.1548   -5.6028   30.7009 C.3     1  UNL1        0.4044
     35 F           6.6554   -5.7072   32.1116 F       1  UNL1       -0.1809
@<TRIPOS>BOND
     1    19    20    1
     2    20    21    1
     3    20    22    1
     4     8    20    1
     5     8     9    1
     6     9    10    1
     7    10    11    1
     8    10    12    2
     9    12    13    1
    10    13    14    1
    11    13     1    1
    12     1     2   ar
    13     2     3   ar
    14     3    23    1
    15    23    24   am
    16    24    25    2
    17    24    27    1
    18    27    28   ar
    19    28    29   ar
    20    29    30   ar
    21    30    33    1
    22    33    34    1
    23    34    35    1
    24    30    31   ar
    25    31    32   ar
    26     3     4   ar
    27     4     5   ar
    28     5     6   ar
    29     6     7    1
    30    13    15    1
    31    15    16    1
    32    15     8    1
    33     6     1   ar
    34    32    27   ar
    35    11    17    1
    36    11    18    1
    37    23    26    1
@<TRIPOS>MOLECULE
*****
 35 37 0 0 0
SMALL
GASTEIGER

@<TRIPOS>ATOM
      1 C           2.8307    0.6511   19.7752 C.ar    1  UNL1        0.0293
      2 C           3.1878    0.6892   21.2316 C.ar    1  UNL1        0.0145
      3 C           2.1074    0.6308   22.2705 C.ar    1  UNL1        0.0505
      4 C           0.6699    0.5342   21.8531 C.ar    1  UNL1        0.0170
      5 C           0.3128    0.4961   20.3967 C.ar    1  UNL1        0.0306
      6 C           1.3932    0.5545   19.3578 C.ar    1  UNL1        0.1380
      7 F           1.0361    0.5163   17.9015 F       1  UNL1       -0.2044
      8 C           4.8380   -1.6749   18.2833 C.3     1  UNL1        0.2635
      9 O           5.7929   -1.1117   17.2729 O.2     1  UNL1       -0.4452
     10 C           5.8069    0.3621   16.9942 C.2     1  UNL1        0.2770
     11 N           6.7618    0.9253   15.9837 N.pl3   1  UNL1       -0.3133
     12 N           4.8660    1.2727   17.7259 N.2     1  UNL1       -0.2214
     13 C           3.9111    0.7095   18.7363 C.3     1  UNL1        0.1433
     14 C           3.5498    2.1630   18.8185 C.3     1  UNL1        0.0321
     15 C           3.8971   -0.7643   19.0150 C.3     1  UNL1        0.2304
     16 F           2.9421   -1.3275   20.0254 F       1  UNL1       -0.2308
     17 H           7.3794    0.3276   15.5035 H       1  UNL1        0.1466
     18 H           6.7710    1.8926   15.8008 H       1  UNL1        0.1466
     19 C           4.8100   -4.6226   18.8407 C.3     1  UNL1        0.0762
     20 C           4.8240   -3.1487   18.5620 C.3     1  UNL1        0.3027
     21 F           3.3319   -3.1635   18.4091 F       1  UNL1       -0.2003
     22 F           6.3161   -3.1340   18.7148 F       1  UNL1       -0.2003
     23 N           2.4645    0.6690   23.7269 N.am    1  UNL1       -0.2791
     24 C           3.2078   -0.4768   24.3471 C.2     1  UNL1        0.2688
     25 O           3.5940   -1.6608   23.5109 O.2     1  UNL1       -0.2681
     26 H           2.2111    1.4461   24.2756 H       1  UNL1        0.1552
     27 C           3.5650   -0.4387   25.8034 C.ar    1  UNL1        0.1541
     28 C           4.5310   -1.4394   26.3651 C.ar    1  UNL1        0.1258
     29 N           4.8883   -1.4014   27.8214 N.ar    1  UNL1       -0.2070
     30 C           4.2795   -0.3627   28.7161 C.ar    1  UNL1        0.2469
     31 C           3.3135    0.6380   28.1544 C.ar    1  UNL1        0.1566
     32 N           2.9563    0.6000   26.6982 N.ar    1  UNL1       -0.2328
     33 O           4.6367   -0.3247   30.1726 O.3     1  UNL1       -0.4265
     34 C           3.5604   -0.4323   31.2117 C.3     1  UNL1        0.4044
     35 F           2.2753   -1.1361   30.8904 F       1  UNL1       -0.1809
@<TRIPOS>BOND
     1    19    20    1
     2    20    21    1
     3    20    22    1
     4     8    20    1
     5     8     9    1
     6     9    10    1
     7    10    11    1
     8    10    12    2
     9    12    13    1
    10    13    14    1
    11    13     1    1
    12     1     2   ar
    13     2     3   ar
    14     3    23    1
    15    23    24   am
    16    24    25    2
    17    24    27    1
    18    27    28   ar
    19    28    29   ar
    20    29    30   ar
    21    30    33    1
    22    33    34    1
    23    34    35    1
    24    30    31   ar
    25    31    32   ar
    26     3     4   ar
    27     4     5   ar
    28     5     6   ar
    29     6     7    1
    30    13    15    1
    31    15    16    1
    32    15     8    1
    33     6     1   ar
    34    32    27   ar
    35    11    17    1
    36    11    18    1
    37    23    26    1
@<TRIPOS>MOLECULE
*****
 35 37 0 0 0
SMALL
GASTEIGER

@<TRIPOS>ATOM
      1 C           3.5409    0.3115   21.7057 C.ar    1  UNL1        0.0293
      2 C           2.2767    0.7496   21.0275 C.ar    1  UNL1        0.0145
      3 C           1.0270    0.9555   21.8311 C.ar    1  UNL1        0.0505
      4 C           1.0414    0.7231   23.3130 C.ar    1  UNL1        0.0170
      5 C           2.3055    0.2850   23.9911 C.ar    1  UNL1        0.0306
      6 C           3.5553    0.0791   23.1876 C.ar    1  UNL1        0.1380
      7 F           4.8194   -0.3590   23.8658 F       1  UNL1       -0.2044
      8 C           4.8517   -2.3142   19.9585 C.3     1  UNL1        0.2635
      9 O           6.1688   -2.0248   19.3017 O.2     1  UNL1       -0.4452
     10 C           6.7968   -0.6702   19.4451 C.2     1  UNL1        0.2770
     11 N           8.1140   -0.3808   18.7882 N.pl3   1  UNL1       -0.3133
     12 N           6.1077    0.3950   20.2453 N.2     1  UNL1       -0.2214
     13 C           4.7906    0.1056   20.9021 C.3     1  UNL1        0.1433
     14 C           4.9845    1.5317   21.3247 C.3     1  UNL1        0.0321
     15 C           4.1627   -1.2490   20.7587 C.3     1  UNL1        0.2304
     16 F           2.8455   -1.5384   21.4156 F       1  UNL1       -0.2308
     17 H           8.5663   -1.0799   18.2630 H       1  UNL1        0.1466
     18 H           8.5262    0.5083   18.8823 H       1  UNL1        0.1466
     19 C           3.5958   -5.0235   19.6717 C.3     1  UNL1        0.0762
     20 C           4.2237   -3.6689   19.8151 C.3     1  UNL1        0.3027
     21 F           3.1695   -3.0856   18.9216 F       1  UNL1       -0.2003
     22 F           5.2780   -4.2522   20.7085 F       1  UNL1       -0.2003
     23 N          -0.2371    1.3936   21.1529 N.am    1  UNL1       -0.2791
     24 C          -0.5446    2.8549   21.0114 C.2     1  UNL1        0.2688
     25 O           0.4120    3.8780   21.5481 O.2     1  UNL1       -0.2681
     26 H          -0.8649    0.7221   20.8006 H       1  UNL1        0.1552
     27 C          -1.8087    3.2931   20.3331 C.ar    1  UNL1        0.1541
     28 C          -1.7425    4.0432   19.0358 C.ar    1  UNL1        0.1258
     29 N          -3.0065    4.4815   18.3575 N.ar    1  UNL1       -0.2070
     30 C          -4.3368    4.1697   18.9765 C.ar    1  UNL1        0.2469
     31 C          -4.4030    3.4196   20.2738 C.ar    1  UNL1        0.1566
     32 N          -3.1390    2.9813   20.9521 N.ar    1  UNL1       -0.2328
     33 O          -5.6010    4.6080   18.2982 O.3     1  UNL1       -0.4265
     34 C          -6.9150    4.0070   18.7006 C.3     1  UNL1        0.4044
     35 F          -7.1359    2.5293   18.5680 F       1  UNL1       -0.1809
@<TRIPOS>BOND
     1    19    20    1
     2    20    21    1
     3    20    22    1
     4     8    20    1
     5     8     9    1
     6     9    10    1
     7    10    11    1
     8    10    12    2
     9    12    13    1
    10    13    14    1
    11    13     1    1
    12     1     2   ar
    13     2     3   ar
    14     3    23    1
    15    23    24   am
    16    24    25    2
    17    24    27    1
    18    27    28   ar
    19    28    29   ar
    20    29    30   ar
    21    30    33    1
    22    33    34    1
    23    34    35    1
    24    30    31   ar
    25    31    32   ar
    26     3     4   ar
    27     4     5   ar
    28     5     6   ar
    29     6     7    1
    30    13    15    1
    31    15    16    1
    32    15     8    1
    33     6     1   ar
    34    32    27   ar
    35    11    17    1
    36    11    18    1
    37    23    26    1
@<TRIPOS>MOLECULE
*****
 35 37 0 0 0
SMALL
GASTEIGER

@<TRIPOS>ATOM
      1 C           3.6954    0.1388   20.8422 C.ar    1  UNL1        0.0293
      2 C           2.2332    0.4496   20.7185 C.ar    1  UNL1        0.0145
      3 C           1.7479    1.3497   19.6211 C.ar    1  UNL1        0.0505
      4 C           2.7248    1.9391   18.6473 C.ar    1  UNL1        0.0170
      5 C           4.1870    1.6283   18.7710 C.ar    1  UNL1        0.0306
      6 C           4.6724    0.7281   19.8684 C.ar    1  UNL1        0.1380
      7 F           6.1346    0.4174   19.9919 F       1  UNL1       -0.2044
      8 C           4.5532   -3.1624   21.0198 C.3     1  UNL1        0.2635
      9 O           4.9914   -3.6157   22.3808 O.2     1  UNL1       -0.4452
     10 C           5.0242   -2.6419   23.5212 C.2     1  UNL1        0.2770
     11 N           5.4624   -3.0953   24.8823 N.pl3   1  UNL1       -0.3133
     12 N           4.6189   -1.2147   23.3006 N.2     1  UNL1       -0.2214
     13 C           4.1807   -0.7613   21.9395 C.3     1  UNL1        0.1433
     14 C           4.0450    0.5252   22.6987 C.3     1  UNL1        0.0321
     15 C           4.1479   -1.7352   20.7992 C.3     1  UNL1        0.2304
     16 F           3.7097   -1.2818   19.4381 F       1  UNL1       -0.2308
     17 H           5.7285   -4.0320   25.0271 H       1  UNL1        0.1466
     18 H           5.4840   -2.4561   25.6308 H       1  UNL1        0.1466
     19 C           4.4875   -5.1102   18.7390 C.3     1  UNL1        0.0762
     20 C           4.5204   -4.1363   19.8794 C.3     1  UNL1        0.3027
     21 F           3.4889   -4.9496   20.6037 F       1  UNL1       -0.2003
     22 F           5.5518   -3.3230   19.1552 F       1  UNL1       -0.2003
     23 N           0.2857    1.6605   19.4975 N.am    1  UNL1       -0.2791
     24 C          -0.2604    2.9370   20.0654 C.2     1  UNL1        0.2688
     25 O           0.6558    3.9027   20.7568 O.2     1  UNL1       -0.2681
     26 H          -0.3156    1.0267   19.0437 H       1  UNL1        0.1552
     27 C          -1.7226    3.2478   19.9418 C.ar    1  UNL1        0.1541
     28 C          -2.2324    3.9927   18.7437 C.ar    1  UNL1        0.1258
     29 N          -3.6945    4.3036   18.6201 N.ar    1  UNL1       -0.2070
     30 C          -4.6470    3.8697   19.6945 C.ar    1  UNL1        0.2469
     31 C          -4.1373    3.1248   20.8927 C.ar    1  UNL1        0.1566
     32 N          -2.6751    2.8139   21.0163 N.ar    1  UNL1       -0.2328
     33 O          -6.1093    4.1806   19.5710 O.3     1  UNL1       -0.4265
     34 C          -6.8290    4.8615   20.6971 C.3     1  UNL1        0.4044
     35 F          -6.9975    4.1603   22.0124 F       1  UNL1       -0.1809
@<TRIPOS>BOND
     1    19    20    1
     2    20    21    1
     3    20    22    1
     4     8    20    1
     5     8     9    1
     6     9    10    1
     7    10    11    1
     8    10    12    2
     9    12    13    1
    10    13    14    1
    11    13     1    1
    12     1     2   ar
    13     2     3   ar
    14     3    23    1
    15    23    24   am
    16    24    25    2
    17    24    27    1
    18    27    28   ar
    19    28    29   ar
    20    29    30   ar
    21    30    33    1
    22    33    34    1
    23    34    35    1
    24    30    31   ar
    25    31    32   ar
    26     3     4   ar
    27     4     5   ar
    28     5     6   ar
    29     6     7    1
    30    13    15    1
    31    15    16    1
    32    15     8    1
    33     6     1   ar
    34    32    27   ar
    35    11    17    1
    36    11    18    1
    37    23    26    1
@<TRIPOS>MOLECULE
*****
 35 37 0 0 0
SMALL
GASTEIGER

@<TRIPOS>ATOM
      1 C           5.7055    0.9128   34.9443 C.ar    1  UNL1        0.0293
      2 C           5.5349   -0.0483   33.8054 C.ar    1  UNL1        0.0145
      3 C           6.4572    0.0168   32.6243 C.ar    1  UNL1        0.0505
      4 C           7.5502    1.0432   32.5820 C.ar    1  UNL1        0.0170
      5 C           7.7209    2.0044   33.7208 C.ar    1  UNL1        0.0306
      6 C           6.7986    1.9392   34.9020 C.ar    1  UNL1        0.1380
      7 F           6.9693    2.9004   36.0407 F       1  UNL1       -0.2044
      8 C           2.7653    2.4442   35.7661 C.3     1  UNL1        0.2635
      9 O           2.2078    2.0394   37.0985 O.2     1  UNL1       -0.4452
     10 C           2.9381    1.0387   37.9444 C.2     1  UNL1        0.2770
     11 N           2.3805    0.6339   39.2768 N.pl3   1  UNL1       -0.3133
     12 N           4.2257    0.4428   37.4578 N.2     1  UNL1       -0.2214
     13 C           4.7832    0.8477   36.1254 C.3     1  UNL1        0.1433
     14 C           5.8338   -0.1304   36.5609 C.3     1  UNL1        0.0321
     15 C           4.0530    1.8483   35.2796 C.3     1  UNL1        0.2304
     16 F           4.6105    2.2532   33.9471 F       1  UNL1       -0.2308
     17 H           1.5354    1.0250   39.5962 H       1  UNL1        0.1466
     18 H           2.8598   -0.0229   39.8320 H       1  UNL1        0.1466
     19 C           1.3049    4.4456   34.0745 C.3     1  UNL1        0.0762
     20 C           2.0351    3.4449   34.9203 C.3     1  UNL1        0.3027
     21 F           1.6522    2.3559   33.9625 F       1  UNL1       -0.2003
     22 F           2.4180    4.5339   35.8782 F       1  UNL1       -0.2003
     23 N           6.2864   -0.9444   31.4855 N.am    1  UNL1       -0.2791
     24 C           7.0114   -2.2575   31.4972 C.2     1  UNL1        0.2688
     25 O           7.9071   -2.6094   32.6479 O.2     1  UNL1       -0.2681
     26 H           5.6986   -0.7134   30.7303 H       1  UNL1        0.1552
     27 C           6.8407   -3.2188   30.3585 C.ar    1  UNL1        0.1541
     28 C           6.3782   -2.7221   29.0207 C.ar    1  UNL1        0.1258
     29 N           6.2075   -3.6833   27.8819 N.ar    1  UNL1       -0.2070
     30 C           6.4993   -5.1411   28.0808 C.ar    1  UNL1        0.2469
     31 C           6.9619   -5.6378   29.4185 C.ar    1  UNL1        0.1566
     32 N           7.1325   -4.6766   30.5573 N.ar    1  UNL1       -0.2328
     33 O           6.3287   -6.1024   26.9419 O.3     1  UNL1       -0.4265
     34 C           7.4182   -7.0808   26.6167 C.3     1  UNL1        0.4044
     35 F           7.1730   -8.1711   25.6161 F       1  UNL1       -0.1809
@<TRIPOS>BOND
     1    19    20    1
     2    20    21    1
     3    20    22    1
     4     8    20    1
     5     8     9    1
     6     9    10    1
     7    10    11    1
     8    10    12    2
     9    12    13    1
    10    13    14    1
    11    13     1    1
    12     1     2   ar
    13     2     3   ar
    14     3    23    1
    15    23    24   am
    16    24    25    2
    17    24    27    1
    18    27    28   ar
    19    28    29   ar
    20    29    30   ar
    21    30    33    1
    22    33    34    1
    23    34    35    1
    24    30    31   ar
    25    31    32   ar
    26     3     4   ar
    27     4     5   ar
    28     5     6   ar
    29     6     7    1
    30    13    15    1
    31    15    16    1
    32    15     8    1
    33     6     1   ar
    34    32    27   ar
    35    11    17    1
    36    11    18    1
    37    23    26    1
@<TRIPOS>MOLECULE
*****
 35 37 0 0 0
SMALL
GASTEIGER

@<TRIPOS>ATOM
      1 C           4.7140   -1.5342   19.8546 C.ar    1  UNL1        0.0293
      2 C           5.0727   -1.8209   21.2826 C.ar    1  UNL1        0.0145
      3 C           4.8612   -3.1941   21.8479 C.ar    1  UNL1        0.0505
      4 C           4.2909   -4.2807   20.9851 C.ar    1  UNL1        0.0170
      5 C           3.9322   -3.9940   19.5572 C.ar    1  UNL1        0.0306
      6 C           4.1438   -2.6208   18.9919 C.ar    1  UNL1        0.1380
      7 F           3.7851   -2.3341   17.5639 F       1  UNL1       -0.2044
      8 C           2.7601    1.2506   19.5504 C.3     1  UNL1        0.2635
      9 O           3.4402    2.4152   18.8939 O.2     1  UNL1       -0.4452
     10 C           4.8629    2.2918   18.4352 C.2     1  UNL1        0.2770
     11 N           5.5430    3.4565   17.7787 N.pl3   1  UNL1       -0.3133
     12 N           5.6056    1.0037   18.6328 N.2     1  UNL1       -0.2214
     13 C           4.9255   -0.1610   19.2893 C.3     1  UNL1        0.1433
     14 C           6.2748   -0.7614   19.0269 C.3     1  UNL1        0.0321
     15 C           3.5027   -0.0376   19.7480 C.3     1  UNL1        0.2304
     16 F           2.8226   -1.2023   20.4045 F       1  UNL1       -0.2308
     17 H           5.0556    4.3020   17.6490 H       1  UNL1        0.1466
     18 H           6.4769    3.3755   17.4776 H       1  UNL1        0.1466
     19 C          -0.0855    1.4975   20.4679 C.3     1  UNL1        0.0762
     20 C           1.3373    1.3740   20.0091 C.3     1  UNL1        0.3027
     21 F           1.7951    2.1173   21.2289 F       1  UNL1       -0.2003
     22 F           0.8795    0.6307   18.7893 F       1  UNL1       -0.2003
     23 N           5.2199   -3.4808   23.2758 N.am    1  UNL1       -0.2791
     24 C           6.4697   -4.2458   23.5961 C.2     1  UNL1        0.2688
     25 O           7.3608   -4.7242   22.4884 O.2     1  UNL1       -0.2681
     26 H           4.6350   -3.1668   24.0028 H       1  UNL1        0.1552
     27 C           6.8285   -4.5325   25.0241 C.ar    1  UNL1        0.1541
     28 C           6.6873   -3.4595   26.0628 C.ar    1  UNL1        0.1258
     29 N           7.0461   -3.7461   27.4907 N.ar    1  UNL1       -0.2070
     30 C           7.5460   -5.1057   27.8800 C.ar    1  UNL1        0.2469
     31 C           7.6872   -6.1787   26.8413 C.ar    1  UNL1        0.1566
     32 N           7.3285   -5.8921   25.4134 N.ar    1  UNL1       -0.2328
     33 O           7.9048   -5.3924   29.3081 O.3     1  UNL1       -0.4265
     34 C           6.8729   -5.2394   30.3858 C.3     1  UNL1        0.4044
     35 F           6.8855   -6.1573   31.5721 F       1  UNL1       -0.1809
@<TRIPOS>BOND
     1    19    20    1
     2    20    21    1
     3    20    22    1
     4     8    20    1
     5     8     9    1
     6     9    10    1
     7    10    11    1
     8    10    12    2
     9    12    13    1
    10    13    14    1
    11    13     1    1
    12     1     2   ar
    13     2     3   ar
    14     3    23    1
    15    23    24   am
    16    24    25    2
    17    24    27    1
    18    27    28   ar
    19    28    29   ar
    20    29    30   ar
    21    30    33    1
    22    33    34    1
    23    34    35    1
    24    30    31   ar
    25    31    32   ar
    26     3     4   ar
    27     4     5   ar
    28     5     6   ar
    29     6     7    1
    30    13    15    1
    31    15    16    1
    32    15     8    1
    33     6     1   ar
    34    32    27   ar
    35    11    17    1
    36    11    18    1
    37    23    26    1
@<TRIPOS>MOLECULE
*****
 35 37 0 0 0
SMALL
GASTEIGER

@<TRIPOS>ATOM
      1 C           4.7454   -1.8235   22.7222 C.ar    1  UNL1        0.0293
      2 C           3.4852   -1.2513   23.3004 C.ar    1  UNL1        0.0145
      3 C           3.5528   -0.3326   24.4843 C.ar    1  UNL1        0.0505
      4 C           4.8807    0.0138   25.0900 C.ar    1  UNL1        0.0170
      5 C           6.1409   -0.5585   24.5117 C.ar    1  UNL1        0.0306
      6 C           6.0733   -1.4771   23.3279 C.ar    1  UNL1        0.1380
      7 F           7.3335   -2.0494   22.7497 F       1  UNL1       -0.2044
      8 C           4.7078   -1.3602   19.3385 C.3     1  UNL1        0.2635
      9 O           4.6296   -2.6282   18.5410 O.2     1  UNL1       -0.4452
     10 C           4.5755   -3.9531   19.2421 C.2     1  UNL1        0.2770
     11 N           4.4973   -5.2211   18.4445 N.pl3   1  UNL1       -0.3133
     12 N           4.5996   -4.0101   20.7408 N.2     1  UNL1       -0.2214
     13 C           4.6779   -2.7422   21.5383 C.3     1  UNL1        0.1433
     14 C           4.6472   -3.7480   22.6507 C.3     1  UNL1        0.0321
     15 C           4.7319   -1.4172   20.8372 C.3     1  UNL1        0.2304
     16 F           4.8101   -0.1492   21.6348 F       1  UNL1       -0.2308
     17 H           4.4815   -5.1837   17.4608 H       1  UNL1        0.1466
     18 H           4.4618   -6.0908   18.9046 H       1  UNL1        0.1466
     19 C           4.8160    1.2896   17.9362 C.3     1  UNL1        0.0762
     20 C           4.7619   -0.0353   18.6374 C.3     1  UNL1        0.3027
     21 F           6.1962    0.1229   19.0470 F       1  UNL1       -0.2003
     22 F           3.3276   -0.1935   18.2277 F       1  UNL1       -0.2003
     23 N           2.2926    0.2396   25.0625 N.am    1  UNL1       -0.2791
     24 C           1.6278    1.4101   24.4007 C.2     1  UNL1        0.2688
     25 O           2.2232    2.0083   23.1607 O.2     1  UNL1       -0.2681
     26 H           1.9018   -0.1531   25.8763 H       1  UNL1        0.1552
     27 C           0.3675    1.9824   24.9788 C.ar    1  UNL1        0.1541
     28 C          -0.4796    2.9104   24.1594 C.ar    1  UNL1        0.1258
     29 N          -1.7398    3.4827   24.7375 N.ar    1  UNL1       -0.2070
     30 C          -2.1530    3.1271   26.1349 C.ar    1  UNL1        0.2469
     31 C          -1.3059    2.1991   26.9543 C.ar    1  UNL1        0.1566
     32 N          -0.0457    1.6268   26.3762 N.ar    1  UNL1       -0.2328
     33 O          -3.4134    3.6994   26.7130 O.3     1  UNL1       -0.4265
     34 C          -4.6021    3.9391   25.8301 C.3     1  UNL1        0.4044
     35 F          -4.9131    2.9845   24.7156 F       1  UNL1       -0.1809
@<TRIPOS>BOND
     1    19    20    1
     2    20    21    1
     3    20    22    1
     4     8    20    1
     5     8     9    1
     6     9    10    1
     7    10    11    1
     8    10    12    2
     9    12    13    1
    10    13    14    1
    11    13     1    1
    12     1     2   ar
    13     2     3   ar
    14     3    23    1
    15    23    24   am
    16    24    25    2
    17    24    27    1
    18    27    28   ar
    19    28    29   ar
    20    29    30   ar
    21    30    33    1
    22    33    34    1
    23    34    35    1
    24    30    31   ar
    25    31    32   ar
    26     3     4   ar
    27     4     5   ar
    28     5     6   ar
    29     6     7    1
    30    13    15    1
    31    15    16    1
    32    15     8    1
    33     6     1   ar
    34    32    27   ar
    35    11    17    1
    36    11    18    1
    37    23    26    1
