@<TRIPOS>MOLECULE
*****
 28 31 0 0 0
SMALL
GASTEIGER

@<TRIPOS>ATOM
      1 C         -10.6347   -7.0796   18.6189 C.3     1  UNL1        0.0028
      2 C         -11.5221   -5.8889   18.8303 C.3     1  UNL1        0.0315
      3 C         -13.0032   -5.9237   19.0653 C.3     1  UNL1        0.0032
      4 C         -13.4807   -4.5107   19.2240 C.3     1  UNL1        0.0067
      5 C         -14.8423   -3.9336   19.4755 C.3     1  UNL1        0.0190
      6 C         -16.0282   -4.8418   19.6124 C.3     1  UNL1        0.0084
      7 C         -17.3897   -4.2648   19.8639 C.3     1  UNL1        0.0230
      8 C         -17.5653   -2.7795   19.9785 C.2     1  UNL1       -0.0345
      9 C         -18.9268   -2.2024   20.2301 C.2     1  UNL1        0.0341
     10 C         -19.1024   -0.7172   20.3446 C.2     1  UNL1        0.1948
     11 O         -20.4639   -0.1401   20.5962 O.2     1  UNL1       -0.2866
     12 C         -17.9164    0.1910   20.2077 C.2     1  UNL1        0.0380
     13 C         -16.5549   -0.3860   19.9562 C.2     1  UNL1       -0.0160
     14 C         -16.3794   -1.8713   19.8416 C.3     1  UNL1        0.0486
     15 C         -15.1935   -0.9631   19.7047 C.3     1  UNL1        0.0125
     16 C         -15.0178   -2.4484   19.5901 C.2     1  UNL1       -0.0422
     17 C         -13.8319   -1.5402   19.4532 C.2     1  UNL1       -0.0339
     18 C         -12.4704   -2.1172   19.2017 C.3     1  UNL1        0.0281
     19 C         -12.2948   -3.6025   19.0871 C.3     1  UNL1        0.0333
     20 C         -11.1246   -2.6736   18.9539 C.3     1  UNL1        0.0031
     21 C         -11.0844   -4.4542   18.8438 C.3     1  UNL1        0.1415
     22 O         -10.2096   -3.2376   18.7746 O.3     1  UNL1       -0.3797
     23 H         -10.7499   -2.4430   18.9074 H       1  UNL1        0.2108
     24 C          -9.7228   -5.0314   18.5922 C.2     1  UNL1        0.2038
     25 O          -8.8803   -5.4949   19.7434 O.2     1  UNL1       -0.2910
     26 C          -9.2038   -5.1449   17.1895 C.3     1  UNL1        0.2044
     27 O          -8.7781   -3.9141   16.4453 O.3     1  UNL1       -0.3749
     28 H          -9.5501   -3.3485   16.2875 H       1  UNL1        0.2110
@<TRIPOS>BOND
     1     2     1    1
     2     2     3    1
     3     4     3    1
     4     4     5    1
     5     5     6    1
     6     6     7    1
     7     7     8    1
     8     8     9    2
     9     9    10    1
    10    10    11    2
    11    10    12    1
    12    12    13    2
    13    13    14    1
    14    14    15    1
    15    14    16    1
    16    16    17    2
    17    17    18    1
    18    18    19    1
    19    19    20    1
    20    19    21    1
    21    21    22    1
    22    21    24    1
    23    24    25    2
    24    24    26    1
    25    26    27    1
    26    21     2    1
    27    19     4    1
    28    16     5    1
    29    14     8    1
    30    22    23    1
    31    27    28    1
@<TRIPOS>MOLECULE
*****
 28 31 0 0 0
SMALL
GASTEIGER

@<TRIPOS>ATOM
      1 C          -9.0168   -5.3228   17.4754 C.3     1  UNL1        0.0028
      2 C         -10.2611   -4.6439   17.9659 C.3     1  UNL1        0.0315
      3 C         -10.6137   -3.1994   17.7682 C.3     1  UNL1        0.0032
      4 C         -11.9418   -2.9530   18.4203 C.3     1  UNL1        0.0067
      5 C         -12.7854   -1.7188   18.5447 C.3     1  UNL1        0.0190
      6 C         -12.3171   -0.4266   17.9439 C.3     1  UNL1        0.0084
      7 C         -13.1606    0.8075   18.0683 C.3     1  UNL1        0.0230
      8 C         -14.4724    0.7494   18.7935 C.2     1  UNL1       -0.0345
      9 C         -15.3159    1.9835   18.9179 C.2     1  UNL1        0.0341
     10 C         -16.6276    1.9254   19.6430 C.2     1  UNL1        0.1948
     11 O         -17.4712    3.1595   19.7675 O.2     1  UNL1       -0.2866
     12 C         -17.0959    0.6332   20.2439 C.2     1  UNL1        0.0380
     13 C         -16.2524   -0.6009   20.1195 C.2     1  UNL1       -0.0160
     14 C         -14.9406   -0.5428   19.3943 C.3     1  UNL1        0.0486
     15 C         -15.4089   -1.8350   19.9951 C.3     1  UNL1        0.0125
     16 C         -14.0971   -1.7769   19.2699 C.2     1  UNL1       -0.0422
     17 C         -14.5653   -3.0691   19.8707 C.2     1  UNL1       -0.0339
     18 C         -13.7218   -4.3032   19.7463 C.3     1  UNL1        0.0281
     19 C         -12.4100   -4.2452   19.0211 C.3     1  UNL1        0.0333
     20 C         -12.9000   -5.5253   19.6305 C.3     1  UNL1        0.0031
     21 C         -11.3713   -5.2901   18.7403 C.3     1  UNL1        0.1415
     22 O         -12.1829   -6.3274   19.4583 O.3     1  UNL1       -0.3797
     23 H         -12.9999   -5.9248   19.7919 H       1  UNL1        0.2108
     24 C         -10.5278   -6.5243   18.6159 C.2     1  UNL1        0.2038
     25 O          -9.3576   -6.7283   19.5318 O.2     1  UNL1       -0.2910
     26 C         -10.8545   -7.5543   17.5756 C.3     1  UNL1        0.2044
     27 O          -9.9970   -8.7770   17.4355 O.3     1  UNL1       -0.3749
     28 H          -9.1116   -8.5184   17.1354 H       1  UNL1        0.2110
@<TRIPOS>BOND
     1     2     1    1
     2     2     3    1
     3     4     3    1
     4     4     5    1
     5     5     6    1
     6     6     7    1
     7     7     8    1
     8     8     9    2
     9     9    10    1
    10    10    11    2
    11    10    12    1
    12    12    13    2
    13    13    14    1
    14    14    15    1
    15    14    16    1
    16    16    17    2
    17    17    18    1
    18    18    19    1
    19    19    20    1
    20    19    21    1
    21    21    22    1
    22    21    24    1
    23    24    25    2
    24    24    26    1
    25    26    27    1
    26    21     2    1
    27    19     4    1
    28    16     5    1
    29    14     8    1
    30    22    23    1
    31    27    28    1
@<TRIPOS>MOLECULE
*****
 28 31 0 0 0
SMALL
GASTEIGER

@<TRIPOS>ATOM
      1 C         -17.8672   -8.2999   19.7650 C.3     1  UNL1        0.0028
      2 C         -16.7631   -7.3459   19.4172 C.3     1  UNL1        0.0315
      3 C         -16.8854   -5.8542   19.3181 C.3     1  UNL1        0.0032
      4 C         -15.5408   -5.3025   18.9471 C.3     1  UNL1        0.0067
      5 C         -15.0613   -3.9010   18.7110 C.3     1  UNL1        0.0190
      6 C         -16.0146   -2.7502   18.8411 C.3     1  UNL1        0.0084
      7 C         -15.5351   -1.3487   18.6050 C.3     1  UNL1        0.0230
      8 C         -14.1022   -1.0978   18.2388 C.2     1  UNL1       -0.0345
      9 C         -13.6228    0.3037   18.0027 C.2     1  UNL1        0.0341
     10 C         -12.1900    0.5544   17.6365 C.2     1  UNL1        0.1948
     11 O         -11.7104    1.9560   17.4004 O.2     1  UNL1       -0.2866
     12 C         -11.2366   -0.5963   17.5064 C.2     1  UNL1        0.0380
     13 C         -11.7161   -1.9978   17.7425 C.2     1  UNL1       -0.0160
     14 C         -13.1489   -2.2486   18.1087 C.3     1  UNL1        0.0486
     15 C         -12.1956   -3.3994   17.9786 C.3     1  UNL1        0.0125
     16 C         -13.6285   -3.6502   18.3448 C.2     1  UNL1       -0.0422
     17 C         -12.6751   -4.8010   18.2147 C.2     1  UNL1       -0.0339
     18 C         -13.1546   -6.2025   18.4508 C.3     1  UNL1        0.0281
     19 C         -14.5875   -6.4533   18.8170 C.3     1  UNL1        0.0333
     20 C         -13.6149   -7.5872   18.6808 C.3     1  UNL1        0.0031
     21 C         -15.3429   -7.7161   19.1075 C.3     1  UNL1        0.1415
     22 O         -14.1084   -8.5377   18.8814 O.3     1  UNL1       -0.3797
     23 H         -13.3685   -7.9535   18.6531 H       1  UNL1        0.2108
     24 C         -15.8224   -9.1177   19.3437 C.2     1  UNL1        0.2038
     25 O         -16.0985   -9.5907   20.7401 O.2     1  UNL1       -0.2910
     26 C         -16.0258  -10.0462   18.1833 C.3     1  UNL1        0.2044
     27 O         -15.1480  -11.2521   18.0249 O.3     1  UNL1       -0.3749
     28 H         -14.2375  -10.9683   17.8479 H       1  UNL1        0.2110
@<TRIPOS>BOND
     1     2     1    1
     2     2     3    1
     3     4     3    1
     4     4     5    1
     5     5     6    1
     6     6     7    1
     7     7     8    1
     8     8     9    2
     9     9    10    1
    10    10    11    2
    11    10    12    1
    12    12    13    2
    13    13    14    1
    14    14    15    1
    15    14    16    1
    16    16    17    2
    17    17    18    1
    18    18    19    1
    19    19    20    1
    20    19    21    1
    21    21    22    1
    22    21    24    1
    23    24    25    2
    24    24    26    1
    25    26    27    1
    26    21     2    1
    27    19     4    1
    28    16     5    1
    29    14     8    1
    30    22    23    1
    31    27    28    1
@<TRIPOS>MOLECULE
*****
 28 31 0 0 0
SMALL
GASTEIGER

@<TRIPOS>ATOM
      1 C         -15.2081    2.6374   18.7586 C.3     1  UNL1        0.0028
      2 C         -14.8717    1.1807   18.8796 C.3     1  UNL1        0.0315
      3 C         -13.5608    0.5457   18.5214 C.3     1  UNL1        0.0032
      4 C         -13.6661   -0.9242   18.8005 C.3     1  UNL1        0.0067
      5 C         -12.6868   -2.0491   18.6400 C.3     1  UNL1        0.0190
      6 C         -11.3108   -1.7755   18.1092 C.3     1  UNL1        0.0084
      7 C         -10.3315   -2.9002   17.9487 C.3     1  UNL1        0.0230
      8 C         -10.7282   -4.2987   18.3189 C.2     1  UNL1       -0.0345
      9 C          -9.7489   -5.4235   18.1584 C.2     1  UNL1        0.0341
     10 C         -10.1456   -6.8218   18.5286 C.2     1  UNL1        0.1948
     11 O          -9.1662   -7.9467   18.3681 O.2     1  UNL1       -0.2866
     12 C         -11.5216   -7.0954   19.0594 C.2     1  UNL1        0.0380
     13 C         -12.5009   -5.9707   19.2199 C.2     1  UNL1       -0.0160
     14 C         -12.1042   -4.5723   18.8497 C.3     1  UNL1        0.0486
     15 C         -13.4802   -4.8459   19.3805 C.3     1  UNL1        0.0125
     16 C         -13.0835   -3.4474   19.0102 C.2     1  UNL1       -0.0422
     17 C         -14.4595   -3.7211   19.5410 C.2     1  UNL1       -0.0339
     18 C         -15.4388   -2.5963   19.7016 C.3     1  UNL1        0.0281
     19 C         -15.0421   -1.1978   19.3313 C.3     1  UNL1        0.0333
     20 C         -16.4121   -1.4970   19.8641 C.3     1  UNL1        0.0031
     21 C         -15.7872    0.1030   19.3802 C.3     1  UNL1        0.1415
     22 O         -17.0048   -0.5845   19.9232 O.3     1  UNL1       -0.3797
     23 H         -16.8259   -1.5333   20.0162 H       1  UNL1        0.2108
     24 C         -16.7665    1.2279   19.5407 C.2     1  UNL1        0.2038
     25 O         -17.6914    1.5836   18.4146 O.2     1  UNL1       -0.2910
     26 C         -16.8210    1.9970   20.8274 C.3     1  UNL1        0.2044
     27 O         -17.3599    1.3473   22.0673 O.3     1  UNL1       -0.3749
     28 H         -18.3044    1.1602   21.9499 H       1  UNL1        0.2110
@<TRIPOS>BOND
     1     2     1    1
     2     2     3    1
     3     4     3    1
     4     4     5    1
     5     5     6    1
     6     6     7    1
     7     7     8    1
     8     8     9    2
     9     9    10    1
    10    10    11    2
    11    10    12    1
    12    12    13    2
    13    13    14    1
    14    14    15    1
    15    14    16    1
    16    16    17    2
    17    17    18    1
    18    18    19    1
    19    19    20    1
    20    19    21    1
    21    21    22    1
    22    21    24    1
    23    24    25    2
    24    24    26    1
    25    26    27    1
    26    21     2    1
    27    19     4    1
    28    16     5    1
    29    14     8    1
    30    22    23    1
    31    27    28    1
@<TRIPOS>MOLECULE
*****
 28 31 0 0 0
SMALL
GASTEIGER

@<TRIPOS>ATOM
      1 C           5.1340   -0.3221   31.8296 C.3     1  UNL1        0.0028
      2 C           5.6427   -1.4963   31.0471 C.3     1  UNL1        0.0315
      3 C           5.7838   -1.5675   29.5554 C.3     1  UNL1        0.0032
      4 C           6.3279   -2.9207   29.2053 C.3     1  UNL1        0.0067
      5 C           6.6709   -3.5550   27.8900 C.3     1  UNL1        0.0190
      6 C           6.4758   -2.7897   26.6147 C.3     1  UNL1        0.0084
      7 C           6.8187   -3.4240   25.2994 C.3     1  UNL1        0.0230
      8 C           7.3568   -4.8236   25.2594 C.2     1  UNL1       -0.0345
      9 C           7.6998   -5.4579   23.9441 C.2     1  UNL1        0.0341
     10 C           8.2379   -6.8575   23.9040 C.2     1  UNL1        0.1948
     11 O           8.5808   -7.4918   22.5887 O.2     1  UNL1       -0.2866
     12 C           8.4330   -7.6228   25.1793 C.2     1  UNL1        0.0380
     13 C           8.0900   -6.9885   26.4946 C.2     1  UNL1       -0.0160
     14 C           7.5520   -5.5889   26.5346 C.3     1  UNL1        0.0486
     15 C           7.7471   -6.3542   27.8099 C.3     1  UNL1        0.0125
     16 C           7.2090   -4.9546   27.8499 C.2     1  UNL1       -0.0422
     17 C           7.4041   -5.7199   29.1252 C.2     1  UNL1       -0.0339
     18 C           7.0611   -5.0856   30.4405 C.3     1  UNL1        0.0281
     19 C           6.5230   -3.6859   30.4806 C.3     1  UNL1        0.0333
     20 C           6.7270   -4.4717   31.7419 C.3     1  UNL1        0.0031
     21 C           6.0996   -2.8057   31.6188 C.3     1  UNL1        0.1415
     22 O           6.4349   -3.8808   32.6096 O.3     1  UNL1       -0.3797
     23 H           6.7690   -4.6608   32.1396 H       1  UNL1        0.2108
     24 C           5.7566   -2.1713   32.9341 C.2     1  UNL1        0.2038
     25 O           6.7951   -1.3906   33.6837 O.2     1  UNL1       -0.2910
     26 C           4.3751   -2.3178   33.4998 C.3     1  UNL1        0.2044
     27 O           3.7680   -3.6808   33.6531 O.3     1  UNL1       -0.3749
     28 H           3.6269   -4.0723   32.7769 H       1  UNL1        0.2110
@<TRIPOS>BOND
     1     2     1    1
     2     2     3    1
     3     4     3    1
     4     4     5    1
     5     5     6    1
     6     6     7    1
     7     7     8    1
     8     8     9    2
     9     9    10    1
    10    10    11    2
    11    10    12    1
    12    12    13    2
    13    13    14    1
    14    14    15    1
    15    14    16    1
    16    16    17    2
    17    17    18    1
    18    18    19    1
    19    19    20    1
    20    19    21    1
    21    21    22    1
    22    21    24    1
    23    24    25    2
    24    24    26    1
    25    26    27    1
    26    21     2    1
    27    19     4    1
    28    16     5    1
    29    14     8    1
    30    22    23    1
    31    27    28    1
@<TRIPOS>MOLECULE
*****
 28 31 0 0 0
SMALL
GASTEIGER

@<TRIPOS>ATOM
      1 C           8.7521   -2.8037   30.9847 C.3     1  UNL1        0.0028
      2 C           7.9076   -2.2178   32.0772 C.3     1  UNL1        0.0315
      3 C           8.3808   -1.2878   33.1548 C.3     1  UNL1        0.0032
      4 C           7.2074   -0.9543   34.0275 C.3     1  UNL1        0.0067
      5 C           7.0753   -0.0849   35.2428 C.3     1  UNL1        0.0190
      6 C           8.2738    0.6390   35.7809 C.3     1  UNL1        0.0084
      7 C           8.1417    1.5083   36.9961 C.3     1  UNL1        0.0230
      8 C           6.8111    1.6538   37.6732 C.2     1  UNL1       -0.0345
      9 C           6.6791    2.5232   38.8884 C.2     1  UNL1        0.0341
     10 C           5.3485    2.6686   39.5655 C.2     1  UNL1        0.1948
     11 O           5.2164    3.5380   40.7807 O.2     1  UNL1       -0.2866
     12 C           4.1500    1.9447   39.0274 C.2     1  UNL1        0.0380
     13 C           4.2821    1.0753   37.8122 C.2     1  UNL1       -0.0160
     14 C           5.6126    0.9299   37.1351 C.3     1  UNL1        0.0486
     15 C           4.4142    0.2060   36.5970 C.3     1  UNL1        0.0125
     16 C           5.7447    0.0605   35.9198 C.2     1  UNL1       -0.0422
     17 C           4.5463   -0.6634   35.3817 C.2     1  UNL1       -0.0339
     18 C           4.6783   -1.5328   34.1665 C.3     1  UNL1        0.0281
     19 C           6.0089   -1.6782   33.4894 C.3     1  UNL1        0.0333
     20 C           4.7958   -2.3918   32.9705 C.3     1  UNL1        0.0031
     21 C           6.4417   -2.4591   32.2841 C.3     1  UNL1        0.1415
     22 O           5.0487   -2.9801   32.0888 O.3     1  UNL1       -0.3797
     23 H           4.4696   -2.6218   32.7797 H       1  UNL1        0.2108
     24 C           6.5738   -3.3285   31.0688 C.2     1  UNL1        0.2038
     25 O           6.3864   -2.7402   29.7018 O.2     1  UNL1       -0.2910
     26 C           6.8932   -4.7862   31.2206 C.3     1  UNL1        0.2044
     27 O           6.5222   -5.5079   32.4821 O.3     1  UNL1       -0.3749
     28 H           7.0374   -5.1509   33.2224 H       1  UNL1        0.2110
@<TRIPOS>BOND
     1     2     1    1
     2     2     3    1
     3     4     3    1
     4     4     5    1
     5     5     6    1
     6     6     7    1
     7     7     8    1
     8     8     9    2
     9     9    10    1
    10    10    11    2
    11    10    12    1
    12    12    13    2
    13    13    14    1
    14    14    15    1
    15    14    16    1
    16    16    17    2
    17    17    18    1
    18    18    19    1
    19    19    20    1
    20    19    21    1
    21    21    22    1
    22    21    24    1
    23    24    25    2
    24    24    26    1
    25    26    27    1
    26    21     2    1
    27    19     4    1
    28    16     5    1
    29    14     8    1
    30    22    23    1
    31    27    28    1
@<TRIPOS>MOLECULE
*****
 28 31 0 0 0
SMALL
GASTEIGER

@<TRIPOS>ATOM
      1 C          -1.3148    4.1928   18.1207 C.3     1  UNL1        0.0028
      2 C          -0.4946    3.1716   18.8516 C.3     1  UNL1        0.0315
      3 C           0.5260    2.2584   18.2397 C.3     1  UNL1        0.0032
      4 C           1.1004    1.4067   19.3326 C.3     1  UNL1        0.0067
      5 C           2.1436    0.3288   19.3219 C.3     1  UNL1        0.0190
      6 C           2.8092   -0.0580   18.0345 C.3     1  UNL1        0.0084
      7 C           3.8524   -1.1358   18.0237 C.3     1  UNL1        0.0230
      8 C           4.2300   -1.8269   19.3004 C.2     1  UNL1       -0.0345
      9 C           5.2731   -2.9047   19.2897 C.2     1  UNL1        0.0341
     10 C           5.6507   -3.5957   20.5663 C.2     1  UNL1        0.1948
     11 O           6.6938   -4.6736   20.5557 O.2     1  UNL1       -0.2866
     12 C           4.9850   -3.2089   21.8537 C.2     1  UNL1        0.0380
     13 C           3.9419   -2.1311   21.8645 C.2     1  UNL1       -0.0160
     14 C           3.5644   -1.4401   20.5878 C.3     1  UNL1        0.0486
     15 C           2.8988   -1.0533   21.8752 C.3     1  UNL1        0.0125
     16 C           2.5212   -0.3622   20.5985 C.2     1  UNL1       -0.0422
     17 C           1.8556    0.0245   21.8859 C.2     1  UNL1       -0.0339
     18 C           0.8124    1.1023   21.8967 C.3     1  UNL1        0.0281
     19 C           0.4348    1.7934   20.6200 C.3     1  UNL1        0.0333
     20 C          -0.2163    2.1622   21.9200 C.3     1  UNL1        0.0031
     21 C          -0.5509    2.8841   20.3227 C.3     1  UNL1        0.1415
     22 O          -0.9477    2.9555   21.7675 O.3     1  UNL1       -0.3797
     23 H          -0.4363    2.3065   22.2757 H       1  UNL1        0.2108
     24 C          -1.5941    3.9620   20.3334 C.2     1  UNL1        0.2038
     25 O          -1.1990    5.3856   20.5926 O.2     1  UNL1       -0.2910
     26 C          -3.0324    3.6162   20.0849 C.3     1  UNL1        0.2044
     27 O          -3.6823    2.5089   20.8605 O.3     1  UNL1       -0.3749
     28 H          -3.2691    1.6635   20.6250 H       1  UNL1        0.2110
@<TRIPOS>BOND
     1     2     1    1
     2     2     3    1
     3     4     3    1
     4     4     5    1
     5     5     6    1
     6     6     7    1
     7     7     8    1
     8     8     9    2
     9     9    10    1
    10    10    11    2
    11    10    12    1
    12    12    13    2
    13    13    14    1
    14    14    15    1
    15    14    16    1
    16    16    17    2
    17    17    18    1
    18    18    19    1
    19    19    20    1
    20    19    21    1
    21    21    22    1
    22    21    24    1
    23    24    25    2
    24    24    26    1
    25    26    27    1
    26    21     2    1
    27    19     4    1
    28    16     5    1
    29    14     8    1
    30    22    23    1
    31    27    28    1
@<TRIPOS>MOLECULE
*****
 28 31 0 0 0
SMALL
GASTEIGER

@<TRIPOS>ATOM
      1 C           5.2637   -3.8504   20.4901 C.3     1  UNL1        0.0028
      2 C           4.3954   -2.7956   21.1093 C.3     1  UNL1        0.0315
      3 C           4.4072   -2.3778   22.5499 C.3     1  UNL1        0.0032
      4 C           3.3821   -1.2974   22.7276 C.3     1  UNL1        0.0067
      5 C           2.9528   -0.5088   23.9292 C.3     1  UNL1        0.0190
      6 C           3.5983   -0.7587   25.2600 C.3     1  UNL1        0.0084
      7 C           3.1691    0.0298   26.4617 C.3     1  UNL1        0.0230
      8 C           2.0944    1.0683   26.3326 C.2     1  UNL1       -0.0345
      9 C           1.6652    1.8568   27.5342 C.2     1  UNL1        0.0341
     10 C           0.5906    2.8953   27.4051 C.2     1  UNL1        0.1948
     11 O           0.1613    3.6839   28.6068 O.2     1  UNL1       -0.2866
     12 C          -0.0549    3.1452   26.0743 C.2     1  UNL1        0.0380
     13 C           0.3743    2.3567   24.8727 C.2     1  UNL1       -0.0160
     14 C           1.4490    1.3183   25.0018 C.3     1  UNL1        0.0486
     15 C           0.8035    1.5682   23.6710 C.3     1  UNL1        0.0125
     16 C           1.8782    0.5297   23.8001 C.2     1  UNL1       -0.0422
     17 C           1.2328    0.7796   22.4694 C.2     1  UNL1       -0.0339
     18 C           1.6620   -0.0089   21.2677 C.3     1  UNL1        0.0281
     19 C           2.7367   -1.0474   21.3968 C.3     1  UNL1        0.0333
     20 C           2.0761   -0.7790   20.0771 C.3     1  UNL1        0.0031
     21 C           3.3629   -1.9733   20.3967 C.3     1  UNL1        0.1415
     22 O           2.4919   -1.4259   19.3051 O.3     1  UNL1       -0.3797
     23 H           1.9129   -0.7374   19.6680 H       1  UNL1        0.2108
     24 C           3.7922   -2.7619   19.1950 C.2     1  UNL1        0.2038
     25 O           3.2345   -4.1344   18.9603 O.2     1  UNL1       -0.2910
     26 C           4.7791   -2.1779   18.2281 C.3     1  UNL1        0.2044
     27 O           4.3188   -1.7019   16.8822 O.3     1  UNL1       -0.3749
     28 H           4.0087   -2.4585   16.3604 H       1  UNL1        0.2110
@<TRIPOS>BOND
     1     2     1    1
     2     2     3    1
     3     4     3    1
     4     4     5    1
     5     5     6    1
     6     6     7    1
     7     7     8    1
     8     8     9    2
     9     9    10    1
    10    10    11    2
    11    10    12    1
    12    12    13    2
    13    13    14    1
    14    14    15    1
    15    14    16    1
    16    16    17    2
    17    17    18    1
    18    18    19    1
    19    19    20    1
    20    19    21    1
    21    21    22    1
    22    21    24    1
    23    24    25    2
    24    24    26    1
    25    26    27    1
    26    21     2    1
    27    19     4    1
    28    16     5    1
    29    14     8    1
    30    22    23    1
    31    27    28    1
@<TRIPOS>MOLECULE
*****
 28 31 0 0 0
SMALL
GASTEIGER

@<TRIPOS>ATOM
      1 C          -1.5630    4.0841   23.8691 C.3     1  UNL1        0.0028
      2 C          -0.7791    3.0961   23.0572 C.3     1  UNL1        0.0315
      3 C           0.2676    2.1578   23.5807 C.3     1  UNL1        0.0032
      4 C           0.7894    1.3547   22.4263 C.3     1  UNL1        0.0067
      5 C           1.8304    0.2781   22.3417 C.3     1  UNL1        0.0190
      6 C           2.5546   -0.1639   23.5787 C.3     1  UNL1        0.0084
      7 C           3.5956   -1.2405   23.4941 C.3     1  UNL1        0.0230
      8 C           3.9125   -1.8752   22.1724 C.2     1  UNL1       -0.0345
      9 C           4.9535   -2.9518   22.0878 C.2     1  UNL1        0.0341
     10 C           5.2703   -3.5864   20.7661 C.2     1  UNL1        0.1948
     11 O           6.3114   -4.6631   20.6815 O.2     1  UNL1       -0.2866
     12 C           4.5462   -3.1445   19.5291 C.2     1  UNL1        0.0380
     13 C           3.5052   -2.0679   19.6137 C.2     1  UNL1       -0.0160
     14 C           3.1883   -1.4332   20.9354 C.3     1  UNL1        0.0486
     15 C           2.4642   -0.9913   19.6983 C.3     1  UNL1        0.0125
     16 C           2.1473   -0.3566   21.0200 C.2     1  UNL1       -0.0422
     17 C           1.4231    0.0854   19.7830 C.2     1  UNL1       -0.0339
     18 C           0.3821    1.1620   19.8676 C.3     1  UNL1        0.0281
     19 C           0.0652    1.7967   21.1893 C.3     1  UNL1        0.0333
     20 C          -0.6451    2.2213   19.9382 C.3     1  UNL1        0.0031
     21 C          -0.9041    2.8729   21.5792 C.3     1  UNL1        0.1415
     22 O          -1.3674    3.0067   20.1588 O.3     1  UNL1       -0.3797
     23 H          -0.8812    2.3807   19.5997 H       1  UNL1        0.2108
     24 C          -1.9451    3.9495   21.6638 C.2     1  UNL1        0.2038
     25 O          -1.5466    5.3899   21.5356 O.2     1  UNL1       -0.2910
     26 C          -3.3847    3.5857   21.8767 C.3     1  UNL1        0.2044
     27 O          -4.0279    2.5366   21.0192 O.3     1  UNL1       -0.3749
     28 H          -4.0739    2.8515   20.1029 H       1  UNL1        0.2110
@<TRIPOS>BOND
     1     2     1    1
     2     2     3    1
     3     4     3    1
     4     4     5    1
     5     5     6    1
     6     6     7    1
     7     7     8    1
     8     8     9    2
     9     9    10    1
    10    10    11    2
    11    10    12    1
    12    12    13    2
    13    13    14    1
    14    14    15    1
    15    14    16    1
    16    16    17    2
    17    17    18    1
    18    18    19    1
    19    19    20    1
    20    19    21    1
    21    21    22    1
    22    21    24    1
    23    24    25    2
    24    24    26    1
    25    26    27    1
    26    21     2    1
    27    19     4    1
    28    16     5    1
    29    14     8    1
    30    22    23    1
    31    27    28    1
