@<TRIPOS>MOLECULE
*****
 31 34 0 0 0
SMALL
GASTEIGER

@<TRIPOS>ATOM
      1 C           6.1979   -2.9586   32.6477 C.ar    1  UNL1        0.0515
      2 C           4.7797   -3.0824   33.1203 C.ar    1  UNL1        0.0160
      3 C           4.1032   -1.9154   33.7763 C.ar    1  UNL1        0.0175
      4 C           4.8448   -0.6245   33.9596 C.ar    1  UNL1        0.0718
      5 C           6.2630   -0.5007   33.4870 C.ar    1  UNL1        0.0730
      6 CL          7.0047    0.7902   33.6703 Cl      1  UNL1       -0.0809
      7 C           6.9395   -1.6678   32.8310 C.ar    1  UNL1        0.0273
      8 N           4.1682    0.5425   34.6156 N.am    1  UNL1       -0.2003
      9 C           3.2688    1.5344   33.9394 C.2     1  UNL1        0.2589
     10 O           2.8879    1.5333   32.4886 O.2     1  UNL1       -0.2691
     11 C           2.8170    2.5275   34.9688 C.ar    1  UNL1        0.0587
     12 C           1.9210    3.7272   34.8807 C.ar    1  UNL1        0.0047
     13 C           1.6452    4.5488   36.1050 C.ar    1  UNL1        0.0002
     14 C           2.2654    4.1707   37.4173 C.ar    1  UNL1        0.0002
     15 C           3.1615    2.9710   37.5055 C.ar    1  UNL1        0.0047
     16 C           3.4372    2.1494   36.2812 C.ar    1  UNL1        0.0587
     17 C           4.2723    0.9226   36.0629 C.2     1  UNL1        0.2589
     18 O           5.0713    0.2024   37.1084 O.2     1  UNL1       -0.2691
     19 C           6.9444   -4.2082   30.4957 C.2     1  UNL1        0.2685
     20 O           6.3378   -3.1236   29.6555 O.2     1  UNL1       -0.2681
     21 N           6.8745   -4.1257   31.9918 N.am    1  UNL1       -0.2791
     22 H           7.2726   -4.8375   32.5432 H       1  UNL1        0.1552
     23 N           5.8257   -5.3605   27.9619 N.pl3   1  UNL1       -0.3557
     24 C           7.0616   -5.9514   28.5728 C.ar    1  UNL1        0.0640
     25 C           7.7382   -7.1184   27.9169 C.ar    1  UNL1        0.0174
     26 C           8.9741   -7.7093   28.5278 C.ar    1  UNL1        0.0219
     27 C           9.5335   -7.1331   29.7948 C.ar    1  UNL1        0.0991
     28 N           8.8570   -5.9661   30.4507 N.ar    1  UNL1       -0.2380
     29 C           7.6210   -5.3752   29.8397 C.ar    1  UNL1        0.1475
     30 H           5.4585   -5.7387   27.1304 H       1  UNL1        0.1424
     31 H           5.3816   -4.5946   28.3924 H       1  UNL1        0.1424
@<TRIPOS>BOND
     1    23    24    1
     2    24    25   ar
     3    25    26   ar
     4    26    27   ar
     5    27    28   ar
     6    28    29   ar
     7    29    19    1
     8    19    20    2
     9    19    21   am
    10    21     1    1
    11     1     2   ar
    12     2     3   ar
    13     3     4   ar
    14     4     8    1
    15     8     9   am
    16     9    10    2
    17     9    11    1
    18    11    12   ar
    19    12    13   ar
    20    13    14   ar
    21    14    15   ar
    22    15    16   ar
    23    16    17    1
    24    17    18    2
    25     4     5   ar
    26     5     6    1
    27     5     7   ar
    28    29    24   ar
    29     7     1   ar
    30    17     8   am
    31    16    11   ar
    32    23    30    1
    33    23    31    1
    34    21    22    1
@<TRIPOS>MOLECULE
*****
 31 34 0 0 0
SMALL
GASTEIGER

@<TRIPOS>ATOM
      1 C           6.1752   -3.0277   32.5545 C.ar    1  UNL1        0.0515
      2 C           4.7631   -3.1525   33.0448 C.ar    1  UNL1        0.0160
      3 C           4.0940   -1.9858   33.7090 C.ar    1  UNL1        0.0175
      4 C           4.8369   -0.6943   33.8827 C.ar    1  UNL1        0.0718
      5 C           6.2489   -0.5696   33.3924 C.ar    1  UNL1        0.0730
      6 CL          6.9919    0.7219   33.5662 Cl      1  UNL1       -0.0809
      7 C           6.9181   -1.7363   32.7283 C.ar    1  UNL1        0.0273
      8 N           4.1677    0.4724   34.5468 N.am    1  UNL1       -0.2003
      9 C           4.2891    0.8525   35.9928 C.2     1  UNL1        0.2589
     10 O           5.1010    0.1327   37.0285 O.2     1  UNL1       -0.2691
     11 C           3.4561    2.0789   36.2212 C.ar    1  UNL1        0.0587
     12 C           3.1947    2.9003   37.4487 C.ar    1  UNL1        0.0047
     13 C           2.2971    4.0996   37.3714 C.ar    1  UNL1        0.0002
     14 C           1.6608    4.4774   36.0667 C.ar    1  UNL1        0.0002
     15 C           1.9222    3.6559   34.8392 C.ar    1  UNL1        0.0047
     16 C           2.8198    2.4566   34.9164 C.ar    1  UNL1        0.0587
     17 C           3.2596    1.4638   33.8816 C.2     1  UNL1        0.2589
     18 O           2.8613    1.4626   32.4355 O.2     1  UNL1       -0.2691
     19 C           6.9464   -4.2489   30.3949 C.2     1  UNL1        0.2685
     20 O           6.3793   -3.1366   29.5634 O.2     1  UNL1       -0.2681
     21 N           6.8444   -4.1944   31.8904 N.am    1  UNL1       -0.2791
     22 H           7.2166   -4.9244   32.4361 H       1  UNL1        0.1552
     23 N           5.7862   -5.4148   27.8861 N.pl3   1  UNL1       -0.3557
     24 C           7.0355   -5.9985   28.4764 C.ar    1  UNL1        0.0640
     25 C           7.7046   -7.1652   27.8123 C.ar    1  UNL1        0.0174
     26 C           8.9539   -7.7489   28.4026 C.ar    1  UNL1        0.0219
     27 C           9.5341   -7.1660   29.6570 C.ar    1  UNL1        0.0991
     28 N           8.8650   -5.9993   30.3212 N.ar    1  UNL1       -0.2380
     29 C           7.6156   -5.4155   29.7308 C.ar    1  UNL1        0.1475
     30 H           5.4054   -5.7974   27.0628 H       1  UNL1        0.1424
     31 H           5.3470   -4.6491   28.3220 H       1  UNL1        0.1424
@<TRIPOS>BOND
     1    23    24    1
     2    24    25   ar
     3    25    26   ar
     4    26    27   ar
     5    27    28   ar
     6    28    29   ar
     7    29    19    1
     8    19    20    2
     9    19    21   am
    10    21     1    1
    11     1     2   ar
    12     2     3   ar
    13     3     4   ar
    14     4     8    1
    15     8     9   am
    16     9    10    2
    17     9    11    1
    18    11    12   ar
    19    12    13   ar
    20    13    14   ar
    21    14    15   ar
    22    15    16   ar
    23    16    17    1
    24    17    18    2
    25     4     5   ar
    26     5     6    1
    27     5     7   ar
    28    29    24   ar
    29     7     1   ar
    30    17     8   am
    31    16    11   ar
    32    23    30    1
    33    23    31    1
    34    21    22    1
@<TRIPOS>MOLECULE
*****
 31 34 0 0 0
SMALL
GASTEIGER

@<TRIPOS>ATOM
      1 C           6.4126   -2.4158   31.9314 C.ar    1  UNL1        0.0515
      2 C           4.9896   -2.5850   32.3747 C.ar    1  UNL1        0.0160
      3 C           4.4154   -1.6724   33.4175 C.ar    1  UNL1        0.0175
      4 C           5.2642   -0.5906   34.0170 C.ar    1  UNL1        0.0718
      5 C           6.6871   -0.4215   33.5737 C.ar    1  UNL1        0.0730
      6 CL          7.5359    0.6603   34.1732 Cl      1  UNL1       -0.0809
      7 C           7.2613   -1.3341   32.5309 C.ar    1  UNL1        0.0273
      8 N           4.6900    0.3219   35.0598 N.am    1  UNL1       -0.2003
      9 C           5.0871    0.3691   36.5055 C.2     1  UNL1        0.2589
     10 O           6.1282   -0.4882   37.1623 O.2     1  UNL1       -0.2691
     11 C           4.2604    1.4239   37.1793 C.ar    1  UNL1        0.0587
     12 C           4.2172    1.9118   38.5970 C.ar    1  UNL1        0.0047
     13 C           3.2659    3.0045   38.9854 C.ar    1  UNL1        0.0002
     14 C           2.3578    3.6093   37.9561 C.ar    1  UNL1        0.0002
     15 C           2.4010    3.1214   36.5384 C.ar    1  UNL1        0.0047
     16 C           3.3523    2.0287   36.1500 C.ar    1  UNL1        0.0587
     17 C           3.6178    1.3477   34.8401 C.2     1  UNL1        0.2589
     18 O           2.9315    1.6409   33.5389 O.2     1  UNL1       -0.2691
     19 C           7.0861   -4.8014   31.1535 C.2     1  UNL1        0.2685
     20 O           6.6112   -5.3620   32.4614 O.2     1  UNL1       -0.2681
     21 N           6.9868   -3.3284   30.8885 N.am    1  UNL1       -0.2791
     22 H           7.2984   -2.9605   30.0302 H       1  UNL1        0.1552
     23 N           9.3959   -6.5908   31.8336 N.pl3   1  UNL1       -0.3557
     24 C           8.8152   -6.6087   30.4507 C.ar    1  UNL1        0.0640
     25 C           9.3894   -7.5213   29.4079 C.ar    1  UNL1        0.0174
     26 C           8.8087   -7.5392   28.0250 C.ar    1  UNL1        0.0219
     27 C           7.6538   -6.6444   27.6849 C.ar    1  UNL1        0.0991
     28 N           7.0796   -5.7319   28.7277 N.ar    1  UNL1       -0.2380
     29 C           7.6603   -5.7140   30.1107 C.ar    1  UNL1        0.1475
     30 H          10.1539   -7.1780   32.0569 H       1  UNL1        0.1424
     31 H           9.0190   -5.9918   32.5181 H       1  UNL1        0.1424
@<TRIPOS>BOND
     1    23    24    1
     2    24    25   ar
     3    25    26   ar
     4    26    27   ar
     5    27    28   ar
     6    28    29   ar
     7    29    19    1
     8    19    20    2
     9    19    21   am
    10    21     1    1
    11     1     2   ar
    12     2     3   ar
    13     3     4   ar
    14     4     8    1
    15     8     9   am
    16     9    10    2
    17     9    11    1
    18    11    12   ar
    19    12    13   ar
    20    13    14   ar
    21    14    15   ar
    22    15    16   ar
    23    16    17    1
    24    17    18    2
    25     4     5   ar
    26     5     6    1
    27     5     7   ar
    28    29    24   ar
    29     7     1   ar
    30    17     8   am
    31    16    11   ar
    32    23    30    1
    33    23    31    1
    34    21    22    1
@<TRIPOS>MOLECULE
*****
 31 34 0 0 0
SMALL
GASTEIGER

@<TRIPOS>ATOM
      1 C           4.2964   -2.5057   22.1923 C.ar    1  UNL1        0.0515
      2 C           3.6837   -1.3774   22.9678 C.ar    1  UNL1        0.0160
      3 C           3.0649   -0.2186   22.2437 C.ar    1  UNL1        0.0175
      4 C           3.0589   -0.1881   20.7441 C.ar    1  UNL1        0.0718
      5 C           3.6715   -1.3164   19.9686 C.ar    1  UNL1        0.0730
      6 CL          3.6655   -1.2860   18.4688 Cl      1  UNL1       -0.0809
      7 C           4.2903   -2.4752   20.6927 C.ar    1  UNL1        0.0273
      8 N           2.4401    0.9707   20.0200 N.am    1  UNL1       -0.2003
      9 C           3.1818    2.0780   19.3318 C.2     1  UNL1        0.2589
     10 O           4.6726    2.2210   19.2469 O.2     1  UNL1       -0.2691
     11 C           2.1711    3.0173   18.7434 C.ar    1  UNL1        0.0587
     12 C           2.3185    4.2842   17.9540 C.ar    1  UNL1        0.0047
     13 C           1.0994    5.0243   17.4892 C.ar    1  UNL1        0.0002
     14 C          -0.2670    4.4975   17.8137 C.ar    1  UNL1        0.0002
     15 C          -0.4144    3.2305   18.6031 C.ar    1  UNL1        0.0047
     16 C           0.8047    2.4905   19.0679 C.ar    1  UNL1        0.0587
     17 C           0.9709    1.2256   19.8569 C.2     1  UNL1        0.2589
     18 O          -0.1374    0.3665   20.3893 O.2     1  UNL1       -0.2691
     19 C           6.3795   -3.6505   23.2412 C.2     1  UNL1        0.2685
     20 O           7.2251   -2.4776   22.8417 O.2     1  UNL1       -0.2681
     21 N           4.9152   -3.6644   22.9164 N.am    1  UNL1       -0.2791
     22 H           4.3602   -4.4342   23.1786 H       1  UNL1        0.1552
     23 N           6.1967   -3.8216   26.2306 N.pl3   1  UNL1       -0.3557
     24 C           6.9069   -4.8948   25.4600 C.ar    1  UNL1        0.0640
     25 C           7.5256   -6.0536   26.1841 C.ar    1  UNL1        0.0174
     26 C           8.2358   -7.1268   25.4135 C.ar    1  UNL1        0.0219
     27 C           8.3272   -7.0412   23.9187 C.ar    1  UNL1        0.0991
     28 N           7.7084   -5.8825   23.1946 N.ar    1  UNL1       -0.2380
     29 C           6.9983   -4.8092   23.9653 C.ar    1  UNL1        0.1475
     30 H           6.1367   -3.8778   27.2117 H       1  UNL1        0.1424
     31 H           5.7906   -3.0611   25.7553 H       1  UNL1        0.1424
@<TRIPOS>BOND
     1    23    24    1
     2    24    25   ar
     3    25    26   ar
     4    26    27   ar
     5    27    28   ar
     6    28    29   ar
     7    29    19    1
     8    19    20    2
     9    19    21   am
    10    21     1    1
    11     1     2   ar
    12     2     3   ar
    13     3     4   ar
    14     4     8    1
    15     8     9   am
    16     9    10    2
    17     9    11    1
    18    11    12   ar
    19    12    13   ar
    20    13    14   ar
    21    14    15   ar
    22    15    16   ar
    23    16    17    1
    24    17    18    2
    25     4     5   ar
    26     5     6    1
    27     5     7   ar
    28    29    24   ar
    29     7     1   ar
    30    17     8   am
    31    16    11   ar
    32    23    30    1
    33    23    31    1
    34    21    22    1
@<TRIPOS>MOLECULE
*****
 31 34 0 0 0
SMALL
GASTEIGER

@<TRIPOS>ATOM
      1 C           5.3240   -0.9803   34.5216 C.ar    1  UNL1        0.0515
      2 C           4.3073   -1.8849   33.8907 C.ar    1  UNL1        0.0160
      3 C           4.6631   -2.6741   32.6657 C.ar    1  UNL1        0.0175
      4 C           6.0356   -2.5586   32.0716 C.ar    1  UNL1        0.0718
      5 C           7.0522   -1.6540   32.7024 C.ar    1  UNL1        0.0730
      6 CL          8.4247   -1.5385   32.1083 Cl      1  UNL1       -0.0809
      7 C           6.6964   -0.8648   33.9274 C.ar    1  UNL1        0.0273
      8 N           6.3914   -3.3478   30.8466 N.am    1  UNL1       -0.2003
      9 C           6.4142   -2.8290   29.4393 C.2     1  UNL1        0.2589
     10 O           6.0852   -1.4299   29.0100 O.2     1  UNL1       -0.2691
     11 C           6.8237   -3.9549   28.5367 C.ar    1  UNL1        0.0587
     12 C           7.0167   -4.0310   27.0512 C.ar    1  UNL1        0.0047
     13 C           7.4399   -5.3217   26.4151 C.ar    1  UNL1        0.0002
     14 C           7.6703   -6.5364   27.2645 C.ar    1  UNL1        0.0002
     15 C           7.4773   -6.4603   28.7500 C.ar    1  UNL1        0.0047
     16 C           7.0540   -5.1696   29.3862 C.ar    1  UNL1        0.0587
     17 C           6.7868   -4.7943   30.8137 C.2     1  UNL1        0.2589
     18 O           6.8959   -5.7057   32.0001 O.2     1  UNL1       -0.2691
     19 C           4.5354    1.2393   35.6177 C.2     1  UNL1        0.2685
     20 O           4.4583    1.8806   34.2639 O.2     1  UNL1       -0.2681
     21 N           4.9682   -0.1911   35.7466 N.am    1  UNL1       -0.2791
     22 H           5.0188   -0.6120   36.6351 H       1  UNL1        0.1552
     23 N           2.0290    2.8871   35.6649 N.pl3   1  UNL1       -0.3557
     24 C           2.9264    2.8524   36.8663 C.ar    1  UNL1        0.0640
     25 C           2.5706    3.6416   38.0913 C.ar    1  UNL1        0.0174
     26 C           3.4680    3.6068   39.2927 C.ar    1  UNL1        0.0219
     27 C           4.7213    2.7828   39.2692 C.ar    1  UNL1        0.0991
     28 N           5.0771    1.9937   38.0442 N.ar    1  UNL1       -0.2380
     29 C           4.1796    2.0285   36.8427 C.ar    1  UNL1        0.1475
     30 H           1.2065    3.4279   35.6804 H       1  UNL1        0.1424
     31 H           2.2625    2.3692   34.8609 H       1  UNL1        0.1424
@<TRIPOS>BOND
     1    23    24    1
     2    24    25   ar
     3    25    26   ar
     4    26    27   ar
     5    27    28   ar
     6    28    29   ar
     7    29    19    1
     8    19    20    2
     9    19    21   am
    10    21     1    1
    11     1     2   ar
    12     2     3   ar
    13     3     4   ar
    14     4     8    1
    15     8     9   am
    16     9    10    2
    17     9    11    1
    18    11    12   ar
    19    12    13   ar
    20    13    14   ar
    21    14    15   ar
    22    15    16   ar
    23    16    17    1
    24    17    18    2
    25     4     5   ar
    26     5     6    1
    27     5     7   ar
    28    29    24   ar
    29     7     1   ar
    30    17     8   am
    31    16    11   ar
    32    23    30    1
    33    23    31    1
    34    21    22    1
@<TRIPOS>MOLECULE
*****
 31 34 0 0 0
SMALL
GASTEIGER

@<TRIPOS>ATOM
      1 C           0.6327    2.8483   28.3974 C.ar    1  UNL1        0.0515
      2 C          -0.0469    1.7079   27.6992 C.ar    1  UNL1        0.0160
      3 C          -1.2036    1.9725   26.7816 C.ar    1  UNL1        0.0175
      4 C          -1.6807    3.3775   26.5622 C.ar    1  UNL1        0.0718
      5 C          -1.0012    4.5179   27.2604 C.ar    1  UNL1        0.0730
      6 CL         -1.4783    5.9231   27.0411 Cl      1  UNL1       -0.0809
      7 C           0.1555    4.2533   28.1780 C.ar    1  UNL1        0.0273
      8 N          -2.8374    3.6421   25.6446 N.am    1  UNL1       -0.2003
      9 C          -4.2316    4.0026   26.0647 C.2     1  UNL1        0.2589
     10 O          -4.7138    4.1617   27.4761 O.2     1  UNL1       -0.2691
     11 C          -5.0589    4.1759   24.8255 C.ar    1  UNL1        0.0587
     12 C          -6.5020    4.5317   24.6238 C.ar    1  UNL1        0.0047
     13 C          -7.0623    4.6342   23.2362 C.ar    1  UNL1        0.0002
     14 C          -6.1795    4.3810   22.0503 C.ar    1  UNL1        0.0002
     15 C          -4.7363    4.0252   22.2520 C.ar    1  UNL1        0.0047
     16 C          -4.1761    3.9227   23.6396 C.ar    1  UNL1        0.0587
     17 C          -2.8031    3.5927   24.1458 C.2     1  UNL1        0.2589
     18 O          -1.6061    3.2701   23.3015 O.2     1  UNL1       -0.2691
     19 C           1.5751    1.8291   30.5935 C.2     1  UNL1        0.2685
     20 O           0.2041    1.3391   30.9545 O.2     1  UNL1       -0.2681
     21 N           1.7894    2.5837   29.3150 N.am    1  UNL1       -0.2791
     22 H           2.6892    2.9053   29.0781 H       1  UNL1        0.1552
     23 N           1.2303    2.1075   33.5606 N.pl3   1  UNL1       -0.3557
     24 C           2.5594    1.7037   32.9947 C.ar    1  UNL1        0.0640
     25 C           3.7161    1.4391   33.9123 C.ar    1  UNL1        0.0174
     26 C           5.0453    1.0353   33.3464 C.ar    1  UNL1        0.0219
     27 C           5.2178    0.8961   31.8628 C.ar    1  UNL1        0.0991
     28 N           4.0610    1.1607   30.9452 N.ar    1  UNL1       -0.2380
     29 C           2.7319    1.5645   31.5112 C.ar    1  UNL1        0.1475
     30 H           1.1171    2.1989   34.5343 H       1  UNL1        0.1424
     31 H           0.4711    2.2812   32.9583 H       1  UNL1        0.1424
@<TRIPOS>BOND
     1    23    24    1
     2    24    25   ar
     3    25    26   ar
     4    26    27   ar
     5    27    28   ar
     6    28    29   ar
     7    29    19    1
     8    19    20    2
     9    19    21   am
    10    21     1    1
    11     1     2   ar
    12     2     3   ar
    13     3     4   ar
    14     4     8    1
    15     8     9   am
    16     9    10    2
    17     9    11    1
    18    11    12   ar
    19    12    13   ar
    20    13    14   ar
    21    14    15   ar
    22    15    16   ar
    23    16    17    1
    24    17    18    2
    25     4     5   ar
    26     5     6    1
    27     5     7   ar
    28    29    24   ar
    29     7     1   ar
    30    17     8   am
    31    16    11   ar
    32    23    30    1
    33    23    31    1
    34    21    22    1
@<TRIPOS>MOLECULE
*****
 31 34 0 0 0
SMALL
GASTEIGER

@<TRIPOS>ATOM
      1 C           3.9311   -1.3944   27.5612 C.ar    1  UNL1        0.0515
      2 C           5.2391   -1.6858   28.2351 C.ar    1  UNL1        0.0160
      3 C           5.4445   -1.3039   29.6710 C.ar    1  UNL1        0.0175
      4 C           4.3419   -0.6305   30.4331 C.ar    1  UNL1        0.0718
      5 C           3.0339   -0.3390   29.7592 C.ar    1  UNL1        0.0730
      6 CL          1.9312    0.3345   30.5212 Cl      1  UNL1       -0.0809
      7 C           2.8285   -0.7209   28.3232 C.ar    1  UNL1        0.0273
      8 N           4.5473   -0.2485   31.8690 N.am    1  UNL1       -0.2003
      9 C           4.9923    1.0937   32.3694 C.2     1  UNL1        0.2589
     10 O           5.3102    2.2897   31.5216 O.2     1  UNL1       -0.2691
     11 C           5.0638    1.0301   33.8663 C.ar    1  UNL1        0.0587
     12 C           5.4421    2.0516   34.8974 C.ar    1  UNL1        0.0047
     13 C           5.4195    1.6916   36.3534 C.ar    1  UNL1        0.0002
     14 C           5.0186    0.3100   36.7782 C.ar    1  UNL1        0.0002
     15 C           4.6403   -0.7116   35.7471 C.ar    1  UNL1        0.0047
     16 C           4.6629   -0.3515   34.2912 C.ar    1  UNL1        0.0587
     17 C           4.3437   -1.1417   33.0568 C.2     1  UNL1        0.2589
     18 O           3.8989   -2.5737   33.0171 O.2     1  UNL1       -0.2691
     19 C           3.9350   -0.7605   25.0417 C.2     1  UNL1        0.2685
     20 O           4.3497    0.6374   25.3940 O.2     1  UNL1       -0.2681
     21 N           3.7258   -1.7763   26.1253 N.am    1  UNL1       -0.2791
     22 H           3.4536   -2.6937   25.8940 H       1  UNL1        0.1552
     23 N           1.9634    0.7464   23.3559 N.pl3   1  UNL1       -0.3557
     24 C           2.7438   -0.3890   22.7628 C.ar    1  UNL1        0.0640
     25 C           2.5384   -0.7709   21.3269 C.ar    1  UNL1        0.0174
     26 C           3.3189   -1.9063   20.7338 C.ar    1  UNL1        0.0219
     27 C           4.3047   -2.6598   21.5767 C.ar    1  UNL1        0.0991
     28 N           4.5101   -2.2779   23.0126 N.ar    1  UNL1       -0.2380
     29 C           3.7296   -1.1424   23.6057 C.ar    1  UNL1        0.1475
     30 H           1.3164    1.2410   22.8027 H       1  UNL1        0.1424
     31 H           2.0982    0.9971   24.2984 H       1  UNL1        0.1424
@<TRIPOS>BOND
     1    23    24    1
     2    24    25   ar
     3    25    26   ar
     4    26    27   ar
     5    27    28   ar
     6    28    29   ar
     7    29    19    1
     8    19    20    2
     9    19    21   am
    10    21     1    1
    11     1     2   ar
    12     2     3   ar
    13     3     4   ar
    14     4     8    1
    15     8     9   am
    16     9    10    2
    17     9    11    1
    18    11    12   ar
    19    12    13   ar
    20    13    14   ar
    21    14    15   ar
    22    15    16   ar
    23    16    17    1
    24    17    18    2
    25     4     5   ar
    26     5     6    1
    27     5     7   ar
    28    29    24   ar
    29     7     1   ar
    30    17     8   am
    31    16    11   ar
    32    23    30    1
    33    23    31    1
    34    21    22    1
@<TRIPOS>MOLECULE
*****
 31 34 0 0 0
SMALL
GASTEIGER

@<TRIPOS>ATOM
      1 C           7.2669   -2.7689   29.3717 C.ar    1  UNL1        0.0515
      2 C           6.0000   -1.9737   29.4842 C.ar    1  UNL1        0.0160
      3 C           5.6562   -1.2891   30.7738 C.ar    1  UNL1        0.0175
      4 C           6.5792   -1.3996   31.9509 C.ar    1  UNL1        0.0718
      5 C           7.8461   -2.1948   31.8385 C.ar    1  UNL1        0.0730
      6 CL          8.7692   -2.3054   33.0157 Cl      1  UNL1       -0.0809
      7 C           8.1899   -2.8794   30.5489 C.ar    1  UNL1        0.0273
      8 N           6.2354   -0.7150   33.2406 N.am    1  UNL1       -0.2003
      9 C           5.1208   -1.0940   34.1701 C.2     1  UNL1        0.2589
     10 O           4.1544   -2.2242   33.9733 O.2     1  UNL1       -0.2691
     11 C           5.1423   -0.1445   35.3311 C.ar    1  UNL1        0.0587
     12 C           4.2806   -0.0345   36.5539 C.ar    1  UNL1        0.0047
     13 C           4.5468    1.0413   37.5647 C.ar    1  UNL1        0.0002
     14 C           5.6747    2.0072   37.3527 C.ar    1  UNL1        0.0002
     15 C           6.5364    1.8972   36.1298 C.ar    1  UNL1        0.0047
     16 C           6.2702    0.8214   35.1191 C.ar    1  UNL1        0.0587
     17 C           6.9457    0.4688   33.8270 C.2     1  UNL1        0.2589
     18 O           8.1246    1.1759   33.2269 O.2     1  UNL1       -0.2691
     19 C           7.1340   -4.8523   27.8252 C.2     1  UNL1        0.2685
     20 O           6.3133   -5.5665   28.8580 O.2     1  UNL1       -0.2681
     21 N           7.6107   -3.4535   28.0821 N.am    1  UNL1       -0.2791
     22 H           8.1493   -2.9847   27.4043 H       1  UNL1        0.1552
     23 N           7.7706   -7.7838   27.8065 N.pl3   1  UNL1       -0.3557
     24 C           7.7961   -7.0026   26.5263 C.ar    1  UNL1        0.0640
     25 C           8.1399   -7.6872   25.2366 C.ar    1  UNL1        0.0174
     26 C           8.1655   -6.9061   23.9564 C.ar    1  UNL1        0.0219
     27 C           7.8471   -5.4402   23.9657 C.ar    1  UNL1        0.0991
     28 N           7.5033   -4.7556   25.2553 N.ar    1  UNL1       -0.2380
     29 C           7.4778   -5.5369   26.5356 C.ar    1  UNL1        0.1475
     30 H           7.9795   -8.7459   27.8004 H       1  UNL1        0.1424
     31 H           7.5449   -7.3345   28.6529 H       1  UNL1        0.1424
@<TRIPOS>BOND
     1    23    24    1
     2    24    25   ar
     3    25    26   ar
     4    26    27   ar
     5    27    28   ar
     6    28    29   ar
     7    29    19    1
     8    19    20    2
     9    19    21   am
    10    21     1    1
    11     1     2   ar
    12     2     3   ar
    13     3     4   ar
    14     4     8    1
    15     8     9   am
    16     9    10    2
    17     9    11    1
    18    11    12   ar
    19    12    13   ar
    20    13    14   ar
    21    14    15   ar
    22    15    16   ar
    23    16    17    1
    24    17    18    2
    25     4     5   ar
    26     5     6    1
    27     5     7   ar
    28    29    24   ar
    29     7     1   ar
    30    17     8   am
    31    16    11   ar
    32    23    30    1
    33    23    31    1
    34    21    22    1
@<TRIPOS>MOLECULE
*****
 31 34 0 0 0
SMALL
GASTEIGER

@<TRIPOS>ATOM
      1 C           3.7654   -1.2823   27.8773 C.ar    1  UNL1        0.0515
      2 C           2.7027   -0.5375   28.6294 C.ar    1  UNL1        0.0160
      3 C           2.9320   -0.1424   30.0582 C.ar    1  UNL1        0.0175
      4 C           4.2242   -0.4922   30.7348 C.ar    1  UNL1        0.0718
      5 C           5.2870   -1.2371   29.9827 C.ar    1  UNL1        0.0730
      6 CL          6.5792   -1.5870   30.6594 Cl      1  UNL1       -0.0809
      7 C           5.0576   -1.6321   28.5540 C.ar    1  UNL1        0.0273
      8 N           4.4536   -0.0972   32.1636 N.am    1  UNL1       -0.2003
      9 C           4.8671    1.2611   32.6473 C.2     1  UNL1        0.2589
     10 O           5.1239    2.4629   31.7872 O.2     1  UNL1       -0.2691
     11 C           4.9788    1.2067   34.1421 C.ar    1  UNL1        0.0587
     12 C           5.3497    2.2448   35.1594 C.ar    1  UNL1        0.0047
     13 C           5.3761    1.8909   36.6167 C.ar    1  UNL1        0.0002
     14 C           5.0316    0.4989   37.0569 C.ar    1  UNL1        0.0002
     15 C           4.6607   -0.5392   36.0397 C.ar    1  UNL1        0.0047
     16 C           4.6343   -0.1853   34.5823 C.ar    1  UNL1        0.0587
     17 C           4.3097   -0.9911   33.3595 C.2     1  UNL1        0.2589
     18 O           3.9112   -2.4370   33.3367 O.2     1  UNL1       -0.2691
     19 C           4.2172   -0.9253   25.3439 C.2     1  UNL1        0.2685
     20 O           5.1279    0.2218   25.6679 O.2     1  UNL1       -0.2681
     21 N           3.5360   -1.6774   26.4486 N.am    1  UNL1       -0.2791
     22 H           2.9384   -2.4302   26.2359 H       1  UNL1        0.1552
     23 N           5.5289   -3.3868   24.2391 N.pl3   1  UNL1       -0.3557
     24 C           4.6437   -2.5511   23.3627 C.ar    1  UNL1        0.0640
     25 C           4.4143   -2.9461   21.9340 C.ar    1  UNL1        0.0174
     26 C           3.5291   -2.1104   21.0576 C.ar    1  UNL1        0.0219
     27 C           2.8732   -0.8797   21.6100 C.ar    1  UNL1        0.0991
     28 N           3.1026   -0.4846   23.0388 N.ar    1  UNL1       -0.2380
     29 C           3.9878   -1.3204   23.9151 C.ar    1  UNL1        0.1475
     30 H           5.9593   -4.1945   23.8765 H       1  UNL1        0.1424
     31 H           5.6794   -3.1275   25.1768 H       1  UNL1        0.1424
@<TRIPOS>BOND
     1    23    24    1
     2    24    25   ar
     3    25    26   ar
     4    26    27   ar
     5    27    28   ar
     6    28    29   ar
     7    29    19    1
     8    19    20    2
     9    19    21   am
    10    21     1    1
    11     1     2   ar
    12     2     3   ar
    13     3     4   ar
    14     4     8    1
    15     8     9   am
    16     9    10    2
    17     9    11    1
    18    11    12   ar
    19    12    13   ar
    20    13    14   ar
    21    14    15   ar
    22    15    16   ar
    23    16    17    1
    24    17    18    2
    25     4     5   ar
    26     5     6    1
    27     5     7   ar
    28    29    24   ar
    29     7     1   ar
    30    17     8   am
    31    16    11   ar
    32    23    30    1
    33    23    31    1
    34    21    22    1
