@<TRIPOS>MOLECULE
*****
 32 33 0 0 0
SMALL
GASTEIGER

@<TRIPOS>ATOM
      1 C          -8.3355  -19.2428   22.4111 C.ar    1  UNL1        0.1762
      2 N          -8.7805  -20.3307   23.3432 N.ar    1  UNL1       -0.0417
      3 O          -9.6827  -19.7183   24.3732 O.2     1  UNL1       -0.2408
      4 N          -9.7953  -18.2520   24.0777 N.ar    1  UNL1       -0.0399
      5 C          -8.9628  -17.9581   22.8651 C.ar    1  UNL1        0.2348
      6 C          -8.7881  -16.6153   22.2198 C.2     1  UNL1        0.3935
      7 N          -9.8170  -16.1082   21.2531 N.2     1  UNL1        0.1538
      8 O          -9.6423  -14.7655   20.6078 O.2     1  UNL1       -0.3110
      9 H         -10.2850  -14.4487   20.0040 H       1  UNL1        0.3605
     10 N          -7.5846  -15.7797   22.5410 N.pl3   1  UNL1       -0.1943
     11 H          -7.1049  -15.3101   21.8208 H       1  UNL1        0.2987
     12 C          -7.1120  -15.6594   23.9595 C.ar    1  UNL1        0.1366
     13 C          -5.6526  -15.7960   24.2780 C.ar    1  UNL1        0.0402
     14 C          -5.1800  -15.6757   25.6965 C.ar    1  UNL1        0.0044
     15 C          -6.1668  -15.4188   26.7965 C.ar    1  UNL1        0.0116
     16 C          -7.6263  -15.2821   26.4781 C.ar    1  UNL1        0.0611
     17 CL         -8.6131  -15.0252   27.5782 Cl      1  UNL1       -0.0821
     18 C          -8.0989  -15.4024   25.0596 C.ar    1  UNL1        0.0515
     19 S          -7.4235  -19.4103   21.2321 S.3     1  UNL1       -0.0881
     20 C          -6.0827  -20.0595   21.4072 C.3     1  UNL1        0.0850
     21 C          -5.0456  -19.4155   22.2788 C.3     1  UNL1        0.1015
     22 C          -2.6683  -18.8377   21.4046 C.2     1  UNL1        0.2483
     23 O          -2.2183  -20.2371   21.7032 O.2     1  UNL1       -0.2731
     24 N          -4.0819  -18.4269   21.6923 N.am    1  UNL1       -0.3019
     25 H          -4.3772  -17.5084   21.4963 H       1  UNL1        0.1495
     26 C          -1.7046  -17.8491   20.8181 C.3     1  UNL1        0.2527
     27 N          -1.1730  -17.8429   17.8655 N.3     1  UNL1       -0.2070
     28 S          -1.4388  -17.8460   19.3418 S.O2    1  UNL1        0.0468
     29 O          -2.7449  -17.1465   19.1082 O.2     1  UNL1       -0.1572
     30 O          -0.1326  -18.5455   19.5754 O.2     1  UNL1       -0.1572
     31 H          -1.9501  -17.3937   17.3811 H       1  UNL1        0.1439
     32 H          -1.0760  -18.8031   17.5355 H       1  UNL1        0.1439
@<TRIPOS>BOND
     1    27    28    1
     2    28    29    2
     3    28    30    2
     4    28    26    1
     5    26    22    1
     6    22    23    2
     7    22    24   am
     8    24    21    1
     9    21    20    1
    10    20    19    1
    11    19     1    1
    12     1     2   ar
    13     2     3   ar
    14     3     4   ar
    15     4     5   ar
    16     5     6    1
    17     6     7    2
    18     7     8    1
    19     6    10    1
    20    10    12    1
    21    12    13   ar
    22    13    14   ar
    23    14    15   ar
    24    15    16   ar
    25    16    17    1
    26    16    18   ar
    27     5     1   ar
    28    18    12   ar
    29    27    31    1
    30    27    32    1
    31    24    25    1
    32     8     9    1
    33    10    11    1
@<TRIPOS>MOLECULE
*****
 32 33 0 0 0
SMALL
GASTEIGER

@<TRIPOS>ATOM
      1 C          -8.9073  -18.7404   21.2859 C.ar    1  UNL1        0.1762
      2 N          -9.2676  -18.5735   19.8394 N.ar    1  UNL1       -0.0417
      3 O         -10.4401  -17.6415   19.7583 O.2     1  UNL1       -0.2408
      4 N         -10.8044  -17.2324   21.1547 N.ar    1  UNL1       -0.0399
      5 C          -9.8571  -17.9115   22.0988 C.ar    1  UNL1        0.2348
      6 C          -9.8592  -17.7842   23.5934 C.2     1  UNL1        0.3935
      7 N         -10.0444  -19.0019   24.4496 N.2     1  UNL1        0.1538
      8 O         -10.0465  -18.8746   25.9442 O.2     1  UNL1       -0.3110
      9 H         -10.1621  -19.6352   26.4790 H       1  UNL1        0.3605
     10 N          -9.6761  -16.4393   24.2318 N.pl3   1  UNL1       -0.1943
     11 H         -10.4215  -15.7963   24.2474 H       1  UNL1        0.2987
     12 C          -8.3574  -16.0740   24.8463 C.ar    1  UNL1        0.1366
     13 C          -8.2593  -15.8338   26.3237 C.ar    1  UNL1        0.0402
     14 C          -6.9407  -15.4685   26.9382 C.ar    1  UNL1        0.0044
     15 C          -5.7201  -15.3434   26.0754 C.ar    1  UNL1        0.0116
     16 C          -5.8181  -15.5836   24.5980 C.ar    1  UNL1        0.0611
     17 CL         -4.5976  -15.4585   23.7351 Cl      1  UNL1       -0.0821
     18 C          -7.1368  -15.9489   23.9834 C.ar    1  UNL1        0.0515
     19 S          -7.7928  -19.5874   21.8248 S.3     1  UNL1       -0.0881
     20 C          -6.4407  -19.5490   21.1766 C.3     1  UNL1        0.0850
     21 C          -5.2177  -19.2945   22.0070 C.3     1  UNL1        0.1015
     22 C          -2.7455  -18.8429   21.3481 C.2     1  UNL1        0.2483
     23 O          -2.3972  -20.2633   21.6813 O.2     1  UNL1       -0.2731
     24 N          -4.1558  -18.3585   21.5110 N.am    1  UNL1       -0.3019
     25 H          -4.3844  -17.4262   21.2923 H       1  UNL1        0.1495
     26 C          -1.6835  -17.9068   20.8521 C.3     1  UNL1        0.2527
     27 N          -1.0249  -17.8003   17.9272 N.3     1  UNL1       -0.2070
     28 S          -1.3542  -17.8535   19.3896 S.O2    1  UNL1        0.0468
     29 O          -2.6586  -17.1634   19.1210 O.2     1  UNL1       -0.1572
     30 O          -0.0498  -18.5437   19.6582 O.2     1  UNL1       -0.1572
     31 H          -1.7865  -17.3457   17.4235 H       1  UNL1        0.1439
     32 H          -0.9004  -18.7483   17.5720 H       1  UNL1        0.1439
@<TRIPOS>BOND
     1    27    28    1
     2    28    29    2
     3    28    30    2
     4    28    26    1
     5    26    22    1
     6    22    23    2
     7    22    24   am
     8    24    21    1
     9    21    20    1
    10    20    19    1
    11    19     1    1
    12     1     2   ar
    13     2     3   ar
    14     3     4   ar
    15     4     5   ar
    16     5     6    1
    17     6     7    2
    18     7     8    1
    19     6    10    1
    20    10    12    1
    21    12    13   ar
    22    13    14   ar
    23    14    15   ar
    24    15    16   ar
    25    16    17    1
    26    16    18   ar
    27     5     1   ar
    28    18    12   ar
    29    27    31    1
    30    27    32    1
    31    24    25    1
    32     8     9    1
    33    10    11    1
@<TRIPOS>MOLECULE
*****
 32 33 0 0 0
SMALL
GASTEIGER

@<TRIPOS>ATOM
      1 C          -7.8777  -16.5159   23.6126 C.ar    1  UNL1        0.1762
      2 N          -7.1248  -15.2837   24.0186 N.ar    1  UNL1       -0.0417
      3 O          -7.6380  -14.8474   25.3589 O.2     1  UNL1       -0.2408
      4 N          -8.7081  -15.8101   25.7812 N.ar    1  UNL1       -0.0399
      5 C          -8.8562  -16.8412   24.7019 C.ar    1  UNL1        0.2348
      6 C          -9.8146  -17.9951   24.7105 C.2     1  UNL1        0.3935
      7 N          -9.4713  -19.2496   25.4579 N.2     1  UNL1        0.1538
      8 O         -10.4297  -20.4035   25.4665 O.2     1  UNL1       -0.3110
      9 H         -10.2153  -21.1871   25.9334 H       1  UNL1        0.3605
     10 N         -11.1161  -17.8946   23.9717 N.pl3   1  UNL1       -0.1943
     11 H         -11.9546  -17.7550   24.4684 H       1  UNL1        0.2987
     12 C         -11.1402  -18.0068   22.4761 C.ar    1  UNL1        0.1366
     13 C         -10.8474  -19.3224   21.8179 C.ar    1  UNL1        0.0402
     14 C         -10.8714  -19.4346   20.3223 C.ar    1  UNL1        0.0044
     15 C         -11.1884  -18.2311   19.4849 C.ar    1  UNL1        0.0116
     16 C         -11.4813  -16.9154   20.1431 C.ar    1  UNL1        0.0611
     17 CL        -11.7982  -15.7120   19.3058 Cl      1  UNL1       -0.0821
     18 C         -11.4572  -16.8032   21.6387 C.ar    1  UNL1        0.0515
     19 S          -7.6857  -17.2873   22.3406 S.3     1  UNL1       -0.0881
     20 C          -7.1821  -18.6994   22.3885 C.3     1  UNL1        0.0850
     21 C          -6.1540  -19.1630   21.3996 C.3     1  UNL1        0.1015
     22 C          -3.6409  -19.2558   20.7467 C.2     1  UNL1        0.2483
     23 O          -3.8520  -20.6049   20.1260 O.2     1  UNL1       -0.2731
     24 N          -4.7919  -18.5349   21.3835 N.am    1  UNL1       -0.3019
     25 H          -4.6534  -17.6494   21.7909 H       1  UNL1        0.1495
     26 C          -2.2789  -18.6276   20.7307 C.3     1  UNL1        0.2527
     27 N          -1.0886  -17.6928   18.1404 N.3     1  UNL1       -0.2070
     28 S          -1.6838  -18.1602   19.4356 S.O2    1  UNL1        0.0468
     29 O          -2.9817  -17.4989   19.0778 O.2     1  UNL1       -0.1572
     30 O          -0.3858  -18.8215   19.7933 O.2     1  UNL1       -0.1572
     31 H          -1.7858  -17.1628   17.6175 H       1  UNL1        0.1439
     32 H          -0.7927  -18.4999   17.5913 H       1  UNL1        0.1439
@<TRIPOS>BOND
     1    27    28    1
     2    28    29    2
     3    28    30    2
     4    28    26    1
     5    26    22    1
     6    22    23    2
     7    22    24   am
     8    24    21    1
     9    21    20    1
    10    20    19    1
    11    19     1    1
    12     1     2   ar
    13     2     3   ar
    14     3     4   ar
    15     4     5   ar
    16     5     6    1
    17     6     7    2
    18     7     8    1
    19     6    10    1
    20    10    12    1
    21    12    13   ar
    22    13    14   ar
    23    14    15   ar
    24    15    16   ar
    25    16    17    1
    26    16    18   ar
    27     5     1   ar
    28    18    12   ar
    29    27    31    1
    30    27    32    1
    31    24    25    1
    32     8     9    1
    33    10    11    1
@<TRIPOS>MOLECULE
*****
 32 33 0 0 0
SMALL
GASTEIGER

@<TRIPOS>ATOM
      1 C          -7.8855  -16.0880   24.4847 C.ar    1  UNL1        0.1762
      2 N          -7.0745  -15.0377   25.1844 N.ar    1  UNL1       -0.0417
      3 O          -5.7677  -14.9027   24.4606 O.2     1  UNL1       -0.2408
      4 N          -5.7709  -15.8695   23.3137 N.ar    1  UNL1       -0.0399
      5 C          -7.0798  -16.6020   23.3286 C.ar    1  UNL1        0.2348
      6 C          -7.5079  -17.6624   22.3579 C.2     1  UNL1        0.3935
      7 N          -8.4803  -17.3303   21.2650 N.2     1  UNL1        0.1538
      8 O          -8.9083  -18.3907   20.2943 O.2     1  UNL1       -0.3110
      9 H          -9.5158  -18.1833   19.6116 H       1  UNL1        0.3605
     10 N          -6.9636  -19.0548   22.4799 N.pl3   1  UNL1       -0.1943
     11 H          -7.4563  -19.7324   22.9970 H       1  UNL1        0.2987
     12 C          -5.6685  -19.4149   21.8142 C.ar    1  UNL1        0.1366
     13 C          -5.6666  -20.3173   20.6161 C.ar    1  UNL1        0.0402
     14 C          -4.3716  -20.6774   19.9503 C.ar    1  UNL1        0.0044
     15 C          -3.0784  -20.1350   20.4827 C.ar    1  UNL1        0.0116
     16 C          -3.0803  -19.2325   21.6809 C.ar    1  UNL1        0.0611
     17 CL         -1.7871  -18.6901   22.2133 Cl      1  UNL1       -0.0821
     18 C          -4.3753  -18.8724   22.3466 C.ar    1  UNL1        0.0515
     19 S          -9.2607  -16.5440   24.8731 S.3     1  UNL1       -0.0881
     20 C          -9.4893  -17.9667   25.2896 C.3     1  UNL1        0.0850
     21 C         -10.3705  -18.8573   24.4648 C.3     1  UNL1        0.1015
     22 C         -12.2063  -18.0775   22.7999 C.2     1  UNL1        0.2483
     23 O         -13.2268  -18.1364   23.8976 O.2     1  UNL1       -0.2731
     24 N         -10.7781  -18.4380   23.0835 N.am    1  UNL1       -0.3019
     25 H         -10.1083  -18.3994   22.3630 H       1  UNL1        0.1495
     26 C         -12.6139  -17.6582   21.4186 C.3     1  UNL1        0.2527
     27 N         -10.8904  -15.7637   19.8563 N.3     1  UNL1       -0.2070
     28 S         -11.7521  -16.7110   20.6374 S.O2    1  UNL1        0.0468
     29 O         -11.7791  -17.6504   19.4685 O.2     1  UNL1       -0.1572
     30 O         -11.7251  -15.7714   21.8064 O.2     1  UNL1       -0.1572
     31 H         -10.7124  -16.1513   18.9297 H       1  UNL1        0.1439
     32 H         -10.0049  -15.6285   20.3442 H       1  UNL1        0.1439
@<TRIPOS>BOND
     1    27    28    1
     2    28    29    2
     3    28    30    2
     4    28    26    1
     5    26    22    1
     6    22    23    2
     7    22    24   am
     8    24    21    1
     9    21    20    1
    10    20    19    1
    11    19     1    1
    12     1     2   ar
    13     2     3   ar
    14     3     4   ar
    15     4     5   ar
    16     5     6    1
    17     6     7    2
    18     7     8    1
    19     6    10    1
    20    10    12    1
    21    12    13   ar
    22    13    14   ar
    23    14    15   ar
    24    15    16   ar
    25    16    17    1
    26    16    18   ar
    27     5     1   ar
    28    18    12   ar
    29    27    31    1
    30    27    32    1
    31    24    25    1
    32     8     9    1
    33    10    11    1
@<TRIPOS>MOLECULE
*****
 32 33 0 0 0
SMALL
GASTEIGER

@<TRIPOS>ATOM
      1 C          -8.9542  -19.3061   23.0940 C.ar    1  UNL1        0.1762
      2 N          -9.4413  -20.5443   23.7867 N.ar    1  UNL1       -0.0417
      3 O         -10.7410  -20.2176   24.4604 O.2     1  UNL1       -0.2408
      4 N         -11.0572  -18.7776   24.1842 N.ar    1  UNL1       -0.0399
      5 C          -9.9529  -18.2142   23.3398 C.ar    1  UNL1        0.2348
      6 C          -9.8631  -16.8062   22.8304 C.2     1  UNL1        0.3935
      7 N         -10.0494  -16.5240   21.3690 N.2     1  UNL1        0.1538
      8 O          -9.9595  -15.1160   20.8597 O.2     1  UNL1       -0.3110
      9 H         -10.0759  -14.9396   19.9468 H       1  UNL1        0.3605
     10 N          -9.5870  -15.6804   23.7825 N.pl3   1  UNL1       -0.1943
     11 H         -10.2625  -14.9783   23.9237 H       1  UNL1        0.2987
     12 C          -8.2816  -15.6244   24.5193 C.ar    1  UNL1        0.1366
     13 C          -8.2684  -15.4641   26.0106 C.ar    1  UNL1        0.0402
     14 C          -6.9631  -15.4080   26.7474 C.ar    1  UNL1        0.0044
     15 C          -5.6709  -15.5123   25.9929 C.ar    1  UNL1        0.0116
     16 C          -5.6840  -15.6726   24.5015 C.ar    1  UNL1        0.0611
     17 CL         -4.3918  -15.7768   23.7470 Cl      1  UNL1       -0.0821
     18 C          -6.9894  -15.7286   23.7647 C.ar    1  UNL1        0.0515
     19 S          -7.6904  -19.1817   22.2958 S.3     1  UNL1       -0.0881
     20 C          -7.7346  -19.2854   20.8002 C.3     1  UNL1        0.0850
     21 C          -6.8145  -20.2308   20.0862 C.3     1  UNL1        0.1015
     22 C          -4.3057  -19.5819   20.2721 C.2     1  UNL1        0.2483
     23 O          -4.5432  -18.4057   19.3720 O.2     1  UNL1       -0.2731
     24 N          -5.4413  -20.4944   20.6292 N.am    1  UNL1       -0.3019
     25 H          -5.2854  -21.2664   21.2200 H       1  UNL1        0.1495
     26 C          -2.9325  -19.8455   20.8151 C.3     1  UNL1        0.2527
     27 N          -1.7264  -17.9682   22.8204 N.3     1  UNL1       -0.2070
     28 S          -2.3295  -18.9069   21.8177 S.O2    1  UNL1        0.0468
     29 O          -3.5943  -18.9540   22.6226 O.2     1  UNL1       -0.1572
     30 O          -1.0646  -18.8597   21.0129 O.2     1  UNL1       -0.1572
     31 H          -2.4006  -17.7856   23.5637 H       1  UNL1        0.1439
     32 H          -1.4813  -17.0912   22.3607 H       1  UNL1        0.1439
@<TRIPOS>BOND
     1    27    28    1
     2    28    29    2
     3    28    30    2
     4    28    26    1
     5    26    22    1
     6    22    23    2
     7    22    24   am
     8    24    21    1
     9    21    20    1
    10    20    19    1
    11    19     1    1
    12     1     2   ar
    13     2     3   ar
    14     3     4   ar
    15     4     5   ar
    16     5     6    1
    17     6     7    2
    18     7     8    1
    19     6    10    1
    20    10    12    1
    21    12    13   ar
    22    13    14   ar
    23    14    15   ar
    24    15    16   ar
    25    16    17    1
    26    16    18   ar
    27     5     1   ar
    28    18    12   ar
    29    27    31    1
    30    27    32    1
    31    24    25    1
    32     8     9    1
    33    10    11    1
@<TRIPOS>MOLECULE
*****
 32 33 0 0 0
SMALL
GASTEIGER

@<TRIPOS>ATOM
      1 C          -9.4790  -19.5980   22.0760 C.ar    1  UNL1        0.1762
      2 N         -10.6416  -20.0523   21.2440 N.ar    1  UNL1       -0.0417
      3 O         -10.5167  -19.4211   19.8891 O.2     1  UNL1       -0.2408
      4 N          -9.2770  -18.5766   19.8836 N.ar    1  UNL1       -0.0399
      5 C          -8.6357  -18.6859   21.2352 C.ar    1  UNL1        0.2348
      6 C          -7.3728  -18.0031   21.6696 C.2     1  UNL1        0.3935
      7 N          -6.0764  -18.7578   21.6767 N.2     1  UNL1        0.1538
      8 O          -4.8134  -18.0749   22.1112 O.2     1  UNL1       -0.3110
      9 H          -4.0037  -18.5463   22.1156 H       1  UNL1        0.3605
     10 N          -7.4062  -16.5657   22.0970 N.pl3   1  UNL1       -0.1943
     11 H          -7.6453  -15.8647   21.4484 H       1  UNL1        0.2987
     12 C          -7.0751  -16.1963   23.5126 C.ar    1  UNL1        0.1366
     13 C          -5.7914  -15.4846   23.8214 C.ar    1  UNL1        0.0402
     14 C          -5.4604  -15.1151   25.2370 C.ar    1  UNL1        0.0044
     15 C          -6.4131  -15.4574   26.3439 C.ar    1  UNL1        0.0116
     16 C          -7.6970  -16.1691   26.0351 C.ar    1  UNL1        0.0611
     17 CL         -8.6497  -16.5114   27.1419 Cl      1  UNL1       -0.0821
     18 C          -8.0280  -16.5385   24.6195 C.ar    1  UNL1        0.0515
     19 S          -9.2075  -19.9873   23.4989 S.3     1  UNL1       -0.0881
     20 C         -10.3451  -20.1435   24.4639 C.3     1  UNL1        0.0850
     21 C         -11.2504  -18.9824   24.7504 C.3     1  UNL1        0.1015
     22 C         -12.4853  -17.3217   23.1796 C.2     1  UNL1        0.2483
     23 O         -13.7656  -18.0741   23.3907 O.2     1  UNL1       -0.2731
     24 N         -11.2277  -17.7759   23.8595 N.am    1  UNL1       -0.3019
     25 H         -10.3873  -17.2820   23.7209 H       1  UNL1        0.1495
     26 C         -12.4625  -16.1152   22.2886 C.3     1  UNL1        0.2527
     27 N         -10.8985  -16.1699   19.7291 N.3     1  UNL1       -0.2070
     28 S         -11.6804  -16.1426   21.0089 S.O2    1  UNL1        0.0468
     29 O         -10.4160  -15.8932   21.7763 O.2     1  UNL1       -0.1572
     30 O         -12.9449  -16.3919   20.2415 O.2     1  UNL1       -0.1572
     31 H          -9.9105  -16.0162   19.9310 H       1  UNL1        0.1439
     32 H         -11.2369  -15.4349   19.1081 H       1  UNL1        0.1439
@<TRIPOS>BOND
     1    27    28    1
     2    28    29    2
     3    28    30    2
     4    28    26    1
     5    26    22    1
     6    22    23    2
     7    22    24   am
     8    24    21    1
     9    21    20    1
    10    20    19    1
    11    19     1    1
    12     1     2   ar
    13     2     3   ar
    14     3     4   ar
    15     4     5   ar
    16     5     6    1
    17     6     7    2
    18     7     8    1
    19     6    10    1
    20    10    12    1
    21    12    13   ar
    22    13    14   ar
    23    14    15   ar
    24    15    16   ar
    25    16    17    1
    26    16    18   ar
    27     5     1   ar
    28    18    12   ar
    29    27    31    1
    30    27    32    1
    31    24    25    1
    32     8     9    1
    33    10    11    1
@<TRIPOS>MOLECULE
*****
 32 33 0 0 0
SMALL
GASTEIGER

@<TRIPOS>ATOM
      1 C          -5.9533  -17.3701   22.8300 C.ar    1  UNL1        0.1762
      2 N          -4.5372  -17.4398   23.3198 N.ar    1  UNL1       -0.0417
      3 O          -4.1374  -16.0687   23.7783 O.2     1  UNL1       -0.2408
      4 N          -5.3063  -15.1517   23.5719 N.ar    1  UNL1       -0.0399
      5 C          -6.4286  -15.9560   22.9858 C.ar    1  UNL1        0.2348
      6 C          -7.7876  -15.4372   22.6197 C.2     1  UNL1        0.3935
      7 N          -8.0626  -14.9777   21.2185 N.2     1  UNL1        0.1538
      8 O          -9.4216  -14.4589   20.8524 O.2     1  UNL1       -0.3110
      9 H          -9.5934  -14.1719   19.9772 H       1  UNL1        0.3605
     10 N          -8.8716  -15.3779   23.6548 N.pl3   1  UNL1       -0.1943
     11 H          -8.9914  -14.5644   24.1961 H       1  UNL1        0.2987
     12 C          -9.7731  -16.5582   23.8651 C.ar    1  UNL1        0.1366
     13 C          -9.3886  -17.6313   24.8401 C.ar    1  UNL1        0.0402
     14 C         -10.2901  -18.8116   25.0504 C.ar    1  UNL1        0.0044
     15 C         -11.5761  -18.9188   24.2859 C.ar    1  UNL1        0.0116
     16 C         -11.9607  -17.8456   23.3108 C.ar    1  UNL1        0.0611
     17 CL        -13.2467  -17.9528   22.5462 Cl      1  UNL1       -0.0821
     18 C         -11.0592  -16.6654   23.1005 C.ar    1  UNL1        0.0515
     19 S          -6.7535  -18.5138   22.2809 S.3     1  UNL1       -0.0881
     20 C          -6.0715  -19.7979   21.9127 C.3     1  UNL1        0.0850
     21 C          -5.7679  -20.1007   20.4752 C.3     1  UNL1        0.1015
     22 C          -3.3271  -19.3914   19.9374 C.2     1  UNL1        0.2483
     23 O          -2.8165  -20.4034   20.9198 O.2     1  UNL1       -0.2731
     24 N          -4.8028  -19.2400   19.7151 N.am    1  UNL1       -0.3019
     25 H          -5.1379  -18.5758   19.0703 H       1  UNL1        0.1495
     26 C          -2.3619  -18.5307   19.1773 C.3     1  UNL1        0.2527
     27 N          -0.5410  -16.6566   20.6511 N.3     1  UNL1       -0.2070
     28 S          -1.4515  -17.5937   19.9142 S.O2    1  UNL1        0.0468
     29 O          -2.6435  -16.8909   20.4931 O.2     1  UNL1       -0.1572
     30 O          -0.2595  -18.2965   19.3353 O.2     1  UNL1       -0.1572
     31 H          -1.0988  -15.9936   21.1894 H       1  UNL1        0.1439
     32 H           0.0383  -16.1493   19.9823 H       1  UNL1        0.1439
@<TRIPOS>BOND
     1    27    28    1
     2    28    29    2
     3    28    30    2
     4    28    26    1
     5    26    22    1
     6    22    23    2
     7    22    24   am
     8    24    21    1
     9    21    20    1
    10    20    19    1
    11    19     1    1
    12     1     2   ar
    13     2     3   ar
    14     3     4   ar
    15     4     5   ar
    16     5     6    1
    17     6     7    2
    18     7     8    1
    19     6    10    1
    20    10    12    1
    21    12    13   ar
    22    13    14   ar
    23    14    15   ar
    24    15    16   ar
    25    16    17    1
    26    16    18   ar
    27     5     1   ar
    28    18    12   ar
    29    27    31    1
    30    27    32    1
    31    24    25    1
    32     8     9    1
    33    10    11    1
@<TRIPOS>MOLECULE
*****
 32 33 0 0 0
SMALL
GASTEIGER

@<TRIPOS>ATOM
      1 C          -6.6144  -18.9757   21.9205 C.ar    1  UNL1        0.1762
      2 N          -5.9624  -17.8648   22.6891 N.ar    1  UNL1       -0.0417
      3 O          -6.7873  -16.6259   22.5028 O.2     1  UNL1       -0.2408
      4 N          -7.9491  -16.9712   21.6190 N.ar    1  UNL1       -0.0399
      5 C          -7.8423  -18.4234   21.2591 C.ar    1  UNL1        0.2348
      6 C          -8.7959  -19.1890   20.3905 C.2     1  UNL1        0.3935
      7 N          -8.4333  -19.4955   18.9675 N.2     1  UNL1        0.1538
      8 O          -9.3869  -20.2611   18.0989 O.2     1  UNL1       -0.3110
      9 H          -9.1604  -20.4526   17.2100 H       1  UNL1        0.3605
     10 N         -10.1119  -19.6480   20.9446 N.pl3   1  UNL1       -0.1943
     11 H         -10.3282  -20.6082   20.9681 H       1  UNL1        0.2987
     12 C         -11.0986  -18.6441   21.4631 C.ar    1  UNL1        0.1366
     13 C         -11.3592  -17.3827   20.6945 C.ar    1  UNL1        0.0402
     14 C         -12.3458  -16.3788   21.2130 C.ar    1  UNL1        0.0044
     15 C         -13.0718  -16.6363   22.5000 C.ar    1  UNL1        0.0116
     16 C         -12.8112  -17.8978   23.2687 C.ar    1  UNL1        0.0611
     17 CL        -13.5372  -18.1554   24.5557 Cl      1  UNL1       -0.0821
     18 C         -11.8246  -18.9017   22.7502 C.ar    1  UNL1        0.0515
     19 S          -6.1246  -20.3905   21.8293 S.3     1  UNL1       -0.0881
     20 C          -5.8594  -21.0075   20.4881 C.3     1  UNL1        0.0850
     21 C          -4.4841  -20.9456   19.8926 C.3     1  UNL1        0.1015
     22 C          -3.0610  -18.8443   20.4492 C.2     1  UNL1        0.2483
     23 O          -3.8753  -18.0368   19.4823 O.2     1  UNL1       -0.2731
     24 N          -3.3654  -20.2987   20.6544 N.am    1  UNL1       -0.3019
     25 H          -2.8310  -20.8287   21.2890 H       1  UNL1        0.1495
     26 C          -1.9424  -18.1975   21.2109 C.3     1  UNL1        0.2527
     27 N           0.3142  -16.8829   19.7345 N.3     1  UNL1       -0.2070
     28 S          -0.8141  -17.5401   20.4727 S.O2    1  UNL1        0.0468
     29 O          -1.2096  -16.2133   21.0497 O.2     1  UNL1       -0.1572
     30 O          -0.4186  -18.8670   19.8957 O.2     1  UNL1       -0.1572
     31 H           0.3164  -15.8832   19.9371 H       1  UNL1        0.1439
     32 H           0.1937  -17.0264   18.7318 H       1  UNL1        0.1439
@<TRIPOS>BOND
     1    27    28    1
     2    28    29    2
     3    28    30    2
     4    28    26    1
     5    26    22    1
     6    22    23    2
     7    22    24   am
     8    24    21    1
     9    21    20    1
    10    20    19    1
    11    19     1    1
    12     1     2   ar
    13     2     3   ar
    14     3     4   ar
    15     4     5   ar
    16     5     6    1
    17     6     7    2
    18     7     8    1
    19     6    10    1
    20    10    12    1
    21    12    13   ar
    22    13    14   ar
    23    14    15   ar
    24    15    16   ar
    25    16    17    1
    26    16    18   ar
    27     5     1   ar
    28    18    12   ar
    29    27    31    1
    30    27    32    1
    31    24    25    1
    32     8     9    1
    33    10    11    1
@<TRIPOS>MOLECULE
*****
 32 33 0 0 0
SMALL
GASTEIGER

@<TRIPOS>ATOM
      1 C          -5.4497  -16.3780   23.6338 C.ar    1  UNL1        0.1762
      2 N          -5.2458  -15.1588   24.4834 N.ar    1  UNL1       -0.0417
      3 O          -6.5845  -14.5198   24.7062 O.2     1  UNL1       -0.2408
      4 N          -7.6158  -15.3442   23.9943 N.ar    1  UNL1       -0.0399
      5 C          -6.9145  -16.4927   23.3315 C.ar    1  UNL1        0.2348
      6 C          -7.5639  -17.5670   22.5105 C.2     1  UNL1        0.3935
      7 N          -7.2577  -17.6805   21.0465 N.2     1  UNL1        0.1538
      8 O          -7.9071  -18.7549   20.2255 O.2     1  UNL1       -0.3110
      9 H          -7.7159  -18.8258   19.3110 H       1  UNL1        0.3605
     10 N          -8.5194  -18.5279   23.1536 N.pl3   1  UNL1       -0.1943
     11 H          -8.1794  -19.3416   23.5913 H       1  UNL1        0.2987
     12 C          -9.9931  -18.2492   23.1298 C.ar    1  UNL1        0.1366
     13 C         -10.8777  -18.7978   24.2098 C.ar    1  UNL1        0.0402
     14 C         -12.3514  -18.5191   24.1860 C.ar    1  UNL1        0.0044
     15 C         -12.9405  -17.6917   23.0822 C.ar    1  UNL1        0.0116
     16 C         -12.0558  -17.1430   22.0022 C.ar    1  UNL1        0.0611
     17 CL        -12.6449  -16.3155   20.8984 Cl      1  UNL1       -0.0821
     18 C         -10.5822  -17.4217   22.0260 C.ar    1  UNL1        0.0515
     19 S          -4.3772  -17.3177   23.1683 S.3     1  UNL1       -0.0881
     20 C          -4.6977  -18.7638   22.9321 C.3     1  UNL1        0.0850
     21 C          -3.7315  -19.6338   22.1839 C.3     1  UNL1        0.1015
     22 C          -2.7953  -18.4356   20.0773 C.2     1  UNL1        0.2483
     23 O          -4.1571  -18.4751   19.4497 O.2     1  UNL1       -0.2731
     24 N          -2.5826  -19.0149   21.4445 N.am    1  UNL1       -0.3019
     25 H          -1.6888  -18.9890   21.8564 H       1  UNL1        0.1495
     26 C          -1.6464  -17.8167   19.3378 C.3     1  UNL1        0.2527
     27 N           1.0321  -17.5669   20.6659 N.3     1  UNL1       -0.2070
     28 S          -0.3072  -17.6918   20.0019 S.O2    1  UNL1        0.0468
     29 O          -0.6548  -16.3004   20.4413 O.2     1  UNL1       -0.1572
     30 O           0.0406  -19.0832   19.5625 O.2     1  UNL1       -0.1572
     31 H           1.1128  -16.6465   21.0981 H       1  UNL1        0.1439
     32 H           1.7687  -17.6813   19.9697 H       1  UNL1        0.1439
@<TRIPOS>BOND
     1    27    28    1
     2    28    29    2
     3    28    30    2
     4    28    26    1
     5    26    22    1
     6    22    23    2
     7    22    24   am
     8    24    21    1
     9    21    20    1
    10    20    19    1
    11    19     1    1
    12     1     2   ar
    13     2     3   ar
    14     3     4   ar
    15     4     5   ar
    16     5     6    1
    17     6     7    2
    18     7     8    1
    19     6    10    1
    20    10    12    1
    21    12    13   ar
    22    13    14   ar
    23    14    15   ar
    24    15    16   ar
    25    16    17    1
    26    16    18   ar
    27     5     1   ar
    28    18    12   ar
    29    27    31    1
    30    27    32    1
    31    24    25    1
    32     8     9    1
    33    10    11    1
