@<TRIPOS>MOLECULE
*****
 32 33 0 0 0
SMALL
GASTEIGER

@<TRIPOS>ATOM
      1 C         -10.4803  -17.5093   22.4808 C.3     1  UNL1        0.1486
      2 C          -9.9833  -18.6481   23.3212 C.2     1  UNL1        0.2621
      3 O          -8.7543  -19.4033   22.9098 O.2     1  UNL1       -0.2713
      4 N         -10.7153  -19.0316   24.5730 N.am    1  UNL1       -0.1956
      5 O         -10.2184  -20.1703   25.4135 O.3     1  UNL1       -0.2951
      6 H         -11.5220  -18.5359   24.8430 H       1  UNL1        0.1823
      7 H          -9.4210  -20.5466   25.0092 H       1  UNL1        0.2414
      8 N          -9.9868  -16.1163   22.7378 N.pl3   1  UNL1       -0.3269
      9 H         -10.4098  -15.3525   22.2830 H       1  UNL1        0.1472
     10 C          -4.8979  -15.5231   23.6044 C.3     1  UNL1        0.0334
     11 C          -6.3044  -15.5906   24.1212 C.ar    1  UNL1        0.0065
     12 C          -7.4423  -15.8197   23.1712 C.ar    1  UNL1        0.0122
     13 C          -8.8489  -15.8872   23.6880 C.ar    1  UNL1        0.0444
     14 C          -9.1175  -15.7255   25.1548 C.ar    1  UNL1        0.0122
     15 C          -7.9796  -15.4964   26.1048 C.ar    1  UNL1        0.0065
     16 C          -8.2482  -15.3347   27.5718 C.3     1  UNL1        0.0334
     17 C          -6.5730  -15.4289   25.5880 C.ar    1  UNL1        0.1322
     18 F          -5.4351  -15.1998   26.5381 F       1  UNL1       -0.2048
     19 C         -11.4707  -17.7636   21.3834 C.3     1  UNL1        0.0290
     20 C         -10.9914  -18.1423   20.0134 C.3     1  UNL1        0.0036
     21 C         -10.4000  -19.5000   19.7745 C.3     1  UNL1        0.0172
     22 C          -9.0263  -19.6266   19.1855 C.3     1  UNL1        0.0688
     23 N          -7.8205  -19.3092   20.0193 N.3     1  UNL1       -0.2937
     24 H          -8.1572  -19.1178   20.9629 H       1  UNL1        0.1236
     25 C          -6.7135  -20.3129   20.1498 C.3     1  UNL1        0.0956
     26 C          -5.3933  -19.9021   20.7312 C.ar    1  UNL1       -0.0062
     27 C          -5.3320  -19.3074   22.1069 C.ar    1  UNL1       -0.0006
     28 C          -4.0117  -18.8965   22.6883 C.ar    1  UNL1        0.0294
     29 C          -2.7527  -19.0804   21.8940 C.ar    1  UNL1        0.1401
     30 F          -1.4324  -18.6695   22.4754 F       1  UNL1       -0.2042
     31 C          -2.8139  -19.6751   20.5183 C.ar    1  UNL1        0.0294
     32 C          -4.1341  -20.0860   19.9369 C.ar    1  UNL1       -0.0006
@<TRIPOS>BOND
     1    10    11    1
     2    11    12   ar
     3    12    13   ar
     4    13     8    1
     5     8     1    1
     6     1    19    1
     7    19    20    1
     8    20    21    1
     9    21    22    1
    10    22    23    1
    11    23    25    1
    12    25    26    1
    13    26    27   ar
    14    27    28   ar
    15    28    29   ar
    16    29    30    1
    17    29    31   ar
    18    31    32   ar
    19     1     2    1
    20     2     3    2
    21     2     4   am
    22     4     5    1
    23    13    14   ar
    24    14    15   ar
    25    15    16    1
    26    15    17   ar
    27    17    18    1
    28    17    11   ar
    29    32    26   ar
    30     8     9    1
    31    23    24    1
    32     4     6    1
    33     5     7    1
@<TRIPOS>MOLECULE
*****
 32 33 0 0 0
SMALL
GASTEIGER

@<TRIPOS>ATOM
      1 C          -3.5849  -17.3481   22.5993 C.3     1  UNL1        0.1486
      2 C          -2.4876  -17.4112   21.5784 C.2     1  UNL1        0.2621
      3 O          -2.6479  -16.7123   20.2609 O.2     1  UNL1       -0.2713
      4 N          -1.2301  -18.1733   21.8750 N.am    1  UNL1       -0.1956
      5 O          -0.1329  -18.2364   20.8542 O.3     1  UNL1       -0.2951
      6 H          -1.1250  -18.6320   22.7397 H       1  UNL1        0.1823
      7 H          -0.3955  -17.7358   20.0659 H       1  UNL1        0.2414
      8 N          -4.0612  -16.0195   23.1071 N.pl3   1  UNL1       -0.3269
      9 H          -3.5233  -15.2103   22.9486 H       1  UNL1        0.1472
     10 C          -6.6458  -15.2098   27.5416 C.3     1  UNL1        0.0334
     11 C          -6.6493  -15.5189   26.0738 C.ar    1  UNL1        0.0065
     12 C          -5.3535  -15.6146   25.3243 C.ar    1  UNL1        0.0122
     13 C          -5.3571  -15.9238   23.8566 C.ar    1  UNL1        0.0444
     14 C          -6.6564  -16.1372   23.1382 C.ar    1  UNL1        0.0122
     15 C          -7.9522  -16.0415   23.8876 C.ar    1  UNL1        0.0065
     16 C          -9.2517  -16.2550   23.1692 C.3     1  UNL1        0.0334
     17 C          -7.9487  -15.7324   25.3554 C.ar    1  UNL1        0.1322
     18 F          -9.2446  -15.6367   26.1048 F       1  UNL1       -0.2048
     19 C          -4.2057  -18.6135   23.1123 C.3     1  UNL1        0.0290
     20 C          -4.8386  -19.5799   22.1554 C.3     1  UNL1        0.0036
     21 C          -6.3169  -19.5290   21.9061 C.3     1  UNL1        0.0172
     22 C          -6.8689  -19.9578   20.5789 C.3     1  UNL1        0.0688
     23 N          -7.7848  -19.0460   19.8176 N.3     1  UNL1       -0.2937
     24 H          -7.3684  -18.9128   18.8960 H       1  UNL1        0.1236
     25 C          -9.2157  -19.4363   19.5939 C.3     1  UNL1        0.0956
     26 C         -10.2757  -18.9828   20.5535 C.ar    1  UNL1       -0.0062
     27 C         -11.2249  -17.8898   20.1608 C.ar    1  UNL1       -0.0006
     28 C         -12.2848  -17.4362   21.1204 C.ar    1  UNL1        0.0294
     29 C         -12.3955  -18.0758   22.4727 C.ar    1  UNL1        0.1401
     30 F         -13.4555  -17.6223   23.4323 F       1  UNL1       -0.2042
     31 C         -11.4463  -19.1689   22.8654 C.ar    1  UNL1        0.0294
     32 C         -10.3864  -19.6224   21.9058 C.ar    1  UNL1       -0.0006
@<TRIPOS>BOND
     1    10    11    1
     2    11    12   ar
     3    12    13   ar
     4    13     8    1
     5     8     1    1
     6     1    19    1
     7    19    20    1
     8    20    21    1
     9    21    22    1
    10    22    23    1
    11    23    25    1
    12    25    26    1
    13    26    27   ar
    14    27    28   ar
    15    28    29   ar
    16    29    30    1
    17    29    31   ar
    18    31    32   ar
    19     1     2    1
    20     2     3    2
    21     2     4   am
    22     4     5    1
    23    13    14   ar
    24    14    15   ar
    25    15    16    1
    26    15    17   ar
    27    17    18    1
    28    17    11   ar
    29    32    26   ar
    30     8     9    1
    31    23    24    1
    32     4     6    1
    33     5     7    1
@<TRIPOS>MOLECULE
*****
 32 33 0 0 0
SMALL
GASTEIGER

@<TRIPOS>ATOM
      1 C          -5.1045  -15.8987   24.6966 C.3     1  UNL1        0.1486
      2 C          -5.6225  -15.1934   23.4782 C.2     1  UNL1        0.2621
      3 O          -4.6957  -14.3612   22.6425 O.2     1  UNL1       -0.2713
      4 N          -7.0673  -15.3203   23.0956 N.am    1  UNL1       -0.1956
      5 O          -7.5853  -14.6150   21.8774 O.3     1  UNL1       -0.2951
      6 H          -7.6757  -15.8665   23.6441 H       1  UNL1        0.1823
      7 H          -6.8622  -14.1254   21.4552 H       1  UNL1        0.2414
      8 N          -4.3551  -17.1902   24.5537 N.pl3   1  UNL1       -0.3269
      9 H          -4.1167  -17.7121   25.3537 H       1  UNL1        0.1472
     10 C          -1.1510  -17.0770   20.4645 C.3     1  UNL1        0.0334
     11 C          -2.3669  -17.6299   21.1473 C.ar    1  UNL1        0.0065
     12 C          -2.7531  -17.1336   22.5090 C.ar    1  UNL1        0.0122
     13 C          -3.9689  -17.6865   23.1918 C.ar    1  UNL1        0.0444
     14 C          -4.7985  -18.7355   22.5127 C.ar    1  UNL1        0.0122
     15 C          -4.4123  -19.2318   21.1509 C.ar    1  UNL1        0.0065
     16 C          -5.2419  -20.2809   20.4718 C.3     1  UNL1        0.0334
     17 C          -3.1965  -18.6789   20.4682 C.ar    1  UNL1        0.1322
     18 F          -2.8103  -19.1752   19.1063 F       1  UNL1       -0.2048
     19 C          -5.3360  -15.3125   26.0577 C.3     1  UNL1        0.0290
     20 C          -6.4206  -15.8618   26.9363 C.3     1  UNL1        0.0036
     21 C          -7.8548  -15.5201   26.6599 C.3     1  UNL1        0.0172
     22 C          -8.8099  -16.5907   26.2222 C.3     1  UNL1        0.0688
     23 N          -8.8857  -16.9827   24.7763 N.3     1  UNL1       -0.2937
     24 H          -7.9954  -17.4225   24.5434 H       1  UNL1        0.1236
     25 C          -9.9644  -17.9135   24.3071 C.3     1  UNL1        0.0956
     26 C          -9.9208  -18.4710   22.9153 C.ar    1  UNL1       -0.0062
     27 C          -8.6566  -18.3858   22.1125 C.ar    1  UNL1       -0.0006
     28 C          -8.6131  -18.9435   20.7206 C.ar    1  UNL1        0.0294
     29 C          -9.8337  -19.5863   20.1317 C.ar    1  UNL1        0.1401
     30 F          -9.7901  -20.1439   18.7399 F       1  UNL1       -0.2042
     31 C         -11.0979  -19.6715   20.9345 C.ar    1  UNL1        0.0294
     32 C         -11.1414  -19.1139   22.3263 C.ar    1  UNL1       -0.0006
@<TRIPOS>BOND
     1    10    11    1
     2    11    12   ar
     3    12    13   ar
     4    13     8    1
     5     8     1    1
     6     1    19    1
     7    19    20    1
     8    20    21    1
     9    21    22    1
    10    22    23    1
    11    23    25    1
    12    25    26    1
    13    26    27   ar
    14    27    28   ar
    15    28    29   ar
    16    29    30    1
    17    29    31   ar
    18    31    32   ar
    19     1     2    1
    20     2     3    2
    21     2     4   am
    22     4     5    1
    23    13    14   ar
    24    14    15   ar
    25    15    16    1
    26    15    17   ar
    27    17    18    1
    28    17    11   ar
    29    32    26   ar
    30     8     9    1
    31    23    24    1
    32     4     6    1
    33     5     7    1
@<TRIPOS>MOLECULE
*****
 32 33 0 0 0
SMALL
GASTEIGER

@<TRIPOS>ATOM
      1 C          -5.4018  -15.8968   24.6291 C.3     1  UNL1        0.1486
      2 C          -5.8164  -15.1826   23.3769 C.2     1  UNL1        0.2621
      3 O          -4.8365  -14.3073   22.6532 O.2     1  UNL1       -0.2713
      4 N          -7.2109  -15.3438   22.8483 N.am    1  UNL1       -0.1956
      5 O          -7.6255  -14.6297   21.5960 O.3     1  UNL1       -0.2951
      6 H          -7.8540  -15.9183   23.3232 H       1  UNL1        0.1823
      7 H          -6.8791  -14.1109   21.2575 H       1  UNL1        0.2414
      8 N          -4.6482  -17.1906   24.5401 N.pl3   1  UNL1       -0.3269
      9 H          -4.4477  -17.7009   25.3578 H       1  UNL1        0.1472
     10 C          -5.3816  -20.2964   20.4393 C.3     1  UNL1        0.0334
     11 C          -4.5666  -19.2600   21.1546 C.ar    1  UNL1        0.0065
     12 C          -5.0148  -18.7435   22.4896 C.ar    1  UNL1        0.0122
     13 C          -4.1999  -17.7071   23.2050 C.ar    1  UNL1        0.0444
     14 C          -2.9367  -17.1872   22.5854 C.ar    1  UNL1        0.0122
     15 C          -2.4885  -17.7037   21.2503 C.ar    1  UNL1        0.0065
     16 C          -1.2252  -17.1838   20.6306 C.3     1  UNL1        0.0334
     17 C          -3.3034  -18.7401   20.5350 C.ar    1  UNL1        0.1322
     18 F          -2.8551  -19.2566   19.1999 F       1  UNL1       -0.2048
     19 C          -5.7408  -15.3171   25.9704 C.3     1  UNL1        0.0290
     20 C          -7.0773  -15.5957   26.5917 C.3     1  UNL1        0.0036
     21 C          -8.1388  -16.3028   25.8021 C.3     1  UNL1        0.0172
     22 C          -9.0235  -17.3126   26.4710 C.3     1  UNL1        0.0688
     23 N          -9.3887  -18.5800   25.7566 N.3     1  UNL1       -0.2937
     24 H          -9.3410  -19.3306   26.4456 H       1  UNL1        0.1236
     25 C         -10.7201  -18.7005   25.0763 C.3     1  UNL1        0.0956
     26 C         -10.8511  -18.3667   23.6198 C.ar    1  UNL1       -0.0062
     27 C         -11.1001  -19.4568   22.6200 C.ar    1  UNL1       -0.0006
     28 C         -11.2312  -19.1230   21.1635 C.ar    1  UNL1        0.0294
     29 C         -11.1132  -17.6991   20.7068 C.ar    1  UNL1        0.1401
     30 F         -11.2442  -17.3653   19.2503 F       1  UNL1       -0.2042
     31 C         -10.8641  -16.6090   21.7067 C.ar    1  UNL1        0.0294
     32 C         -10.7331  -16.9428   23.1631 C.ar    1  UNL1       -0.0006
@<TRIPOS>BOND
     1    10    11    1
     2    11    12   ar
     3    12    13   ar
     4    13     8    1
     5     8     1    1
     6     1    19    1
     7    19    20    1
     8    20    21    1
     9    21    22    1
    10    22    23    1
    11    23    25    1
    12    25    26    1
    13    26    27   ar
    14    27    28   ar
    15    28    29   ar
    16    29    30    1
    17    29    31   ar
    18    31    32   ar
    19     1     2    1
    20     2     3    2
    21     2     4   am
    22     4     5    1
    23    13    14   ar
    24    14    15   ar
    25    15    16    1
    26    15    17   ar
    27    17    18    1
    28    17    11   ar
    29    32    26   ar
    30     8     9    1
    31    23    24    1
    32     4     6    1
    33     5     7    1
@<TRIPOS>MOLECULE
*****
 32 33 0 0 0
SMALL
GASTEIGER

@<TRIPOS>ATOM
      1 C          -7.6603  -16.4743   22.8942 C.3     1  UNL1        0.1486
      2 C          -8.4186  -15.7717   21.8072 C.2     1  UNL1        0.2621
      3 O          -9.6639  -16.3884   21.2424 O.2     1  UNL1       -0.2713
      4 N          -7.9316  -14.4526   21.2851 N.am    1  UNL1       -0.1956
      5 O          -8.6899  -13.7500   20.1982 O.3     1  UNL1       -0.2951
      6 H          -7.1143  -14.0478   21.6558 H       1  UNL1        0.1823
      7 H          -9.4631  -14.2800   19.9489 H       1  UNL1        0.2414
      8 N          -7.3809  -17.9439   22.7843 N.pl3   1  UNL1       -0.3269
      9 H          -8.0809  -18.5967   23.0148 H       1  UNL1        0.1472
     10 C          -4.4894  -21.0152   19.7500 C.3     1  UNL1        0.0334
     11 C          -4.5891  -19.9547   20.8062 C.ar    1  UNL1        0.0065
     12 C          -5.9351  -19.4795   21.2672 C.ar    1  UNL1        0.0122
     13 C          -6.0348  -18.4191   22.3234 C.ar    1  UNL1        0.0444
     14 C          -4.7886  -17.8338   22.9185 C.ar    1  UNL1        0.0122
     15 C          -3.4426  -18.3089   22.4575 C.ar    1  UNL1        0.0065
     16 C          -2.1963  -17.7236   23.0527 C.3     1  UNL1        0.0334
     17 C          -3.3429  -19.3694   21.4013 C.ar    1  UNL1        0.1322
     18 F          -1.9968  -19.8446   20.9403 F       1  UNL1       -0.2048
     19 C          -7.1813  -15.7072   24.0909 C.3     1  UNL1        0.0290
     20 C          -7.9410  -15.7808   25.3822 C.3     1  UNL1        0.0036
     21 C          -9.2233  -16.5558   25.4548 C.3     1  UNL1        0.0172
     22 C          -9.2811  -17.8390   26.2294 C.3     1  UNL1        0.0688
     23 N          -9.9458  -19.0449   25.6346 N.3     1  UNL1       -0.2937
     24 H         -10.1132  -19.6969   26.4009 H       1  UNL1        0.1236
     25 C         -11.2447  -18.8988   24.8987 C.3     1  UNL1        0.0956
     26 C         -11.2670  -18.9468   23.3997 C.ar    1  UNL1       -0.0062
     27 C         -12.2583  -18.1183   22.6374 C.ar    1  UNL1       -0.0006
     28 C         -12.2806  -18.1663   21.1383 C.ar    1  UNL1        0.0294
     29 C         -11.3116  -19.0428   20.4015 C.ar    1  UNL1        0.1401
     30 F         -11.3339  -19.0908   18.9025 F       1  UNL1       -0.2042
     31 C         -10.3204  -19.8713   21.1638 C.ar    1  UNL1        0.0294
     32 C         -10.2981  -19.8233   22.6628 C.ar    1  UNL1       -0.0006
@<TRIPOS>BOND
     1    10    11    1
     2    11    12   ar
     3    12    13   ar
     4    13     8    1
     5     8     1    1
     6     1    19    1
     7    19    20    1
     8    20    21    1
     9    21    22    1
    10    22    23    1
    11    23    25    1
    12    25    26    1
    13    26    27   ar
    14    27    28   ar
    15    28    29   ar
    16    29    30    1
    17    29    31   ar
    18    31    32   ar
    19     1     2    1
    20     2     3    2
    21     2     4   am
    22     4     5    1
    23    13    14   ar
    24    14    15   ar
    25    15    16    1
    26    15    17   ar
    27    17    18    1
    28    17    11   ar
    29    32    26   ar
    30     8     9    1
    31    23    24    1
    32     4     6    1
    33     5     7    1
