@<TRIPOS>MOLECULE
*****
 29 32 0 0 0
SMALL
GASTEIGER

@<TRIPOS>ATOM
      1 C         -11.4832  -17.3362   20.7050 C.3     1  UNL1        0.0646
      2 C         -11.3156  -18.8111   20.4891 C.3     1  UNL1        0.2068
      3 O         -10.3900  -19.5976   21.3692 O.3     1  UNL1       -0.4754
      4 C          -5.9415  -19.3679   20.7305 C.ar    1  UNL1        0.0017
      5 C          -6.8701  -19.3506   19.5527 C.ar    1  UNL1        0.0032
      6 C          -8.3530  -19.4272   19.7656 C.ar    1  UNL1        0.0369
      7 C          -8.9072  -19.5210   21.1563 C.ar    1  UNL1        0.1386
      8 C          -7.9784  -19.5383   22.3341 C.ar    1  UNL1        0.0369
      9 C          -6.4956  -19.4617   22.1212 C.ar    1  UNL1        0.0032
     10 C          -2.4181  -18.3449   19.2172 C.ar    1  UNL1        0.0207
     11 C          -1.4930  -19.1381   20.0917 C.ar    1  UNL1        0.0989
     12 N          -2.0506  -20.0079   21.1792 N.ar    1  UNL1       -0.2423
     13 C          -3.5334  -20.0845   21.3921 C.ar    1  UNL1        0.0988
     14 C          -4.4586  -19.2913   20.5176 C.ar    1  UNL1        0.0192
     15 C          -3.9009  -18.4215   19.4301 C.ar    1  UNL1        0.0031
     16 C         -11.3993  -16.7667   22.0901 C.3     1  UNL1        0.0759
     17 N         -10.0603  -16.5083   22.7149 N.3     1  UNL1       -0.2726
     18 C          -9.8422  -16.8022   24.1696 C.3     1  UNL1        0.0721
     19 C          -8.5032  -16.5438   24.7944 C.3     1  UNL1        0.0178
     20 C          -7.3824  -15.9914   23.9645 C.3     1  UNL1        0.0087
     21 C          -7.6005  -15.6975   22.5099 C.3     1  UNL1        0.0178
     22 C          -8.9395  -15.9560   21.8851 C.3     1  UNL1        0.0721
     23 C          -6.0434  -15.7330   24.5894 C.3     1  UNL1        0.0453
     24 C          -4.7947  -16.2181   23.9146 C.ar    1  UNL1        0.0541
     25 C          -4.0842  -17.5086   24.1972 C.ar    1  UNL1        0.1131
     26 N          -2.8876  -17.5860   23.2960 N.ar    1  UNL1       -0.2229
     27 C          -2.8585  -16.3432   22.4564 C.ar    1  UNL1        0.1748
     28 N          -4.0371  -15.4979   22.8388 N.ar    1  UNL1       -0.3382
     29 H          -4.2722  -14.6238   22.4516 H       1  UNL1        0.1672
@<TRIPOS>BOND
     1    10    11   ar
     2    11    12   ar
     3    12    13   ar
     4    13    14   ar
     5    14     4    1
     6     4     5   ar
     7     5     6   ar
     8     6     7   ar
     9     7     3    1
    10     3     2    1
    11     2     1    1
    12     1    16    1
    13    16    17    1
    14    17    18    1
    15    18    19    1
    16    19    20    1
    17    20    23    1
    18    23    24    1
    19    24    25   ar
    20    25    26   ar
    21    26    27   ar
    22    27    28   ar
    23    20    21    1
    24    21    22    1
    25     7     8   ar
    26     8     9   ar
    27    14    15   ar
    28    15    10   ar
    29     9     4   ar
    30    22    17    1
    31    28    24   ar
    32    28    29    1
@<TRIPOS>MOLECULE
*****
 29 32 0 0 0
SMALL
GASTEIGER

@<TRIPOS>ATOM
      1 C         -10.6702  -18.7656   19.6938 C.3     1  UNL1        0.0646
      2 C         -11.8057  -19.2421   20.5503 C.3     1  UNL1        0.2068
      3 O         -12.2290  -18.4431   21.7471 O.3     1  UNL1       -0.4754
      4 C          -9.1251  -16.6268   24.4520 C.ar    1  UNL1        0.0017
      5 C          -9.6550  -15.8444   23.2872 C.ar    1  UNL1        0.0032
      6 C         -10.6897  -16.4498   22.3855 C.ar    1  UNL1        0.0369
      7 C         -11.1944  -17.8376   22.6487 C.ar    1  UNL1        0.1386
      8 C         -10.6643  -18.6200   23.8137 C.ar    1  UNL1        0.0369
      9 C          -9.6297  -18.0146   24.7153 C.ar    1  UNL1        0.0032
     10 C          -7.2701  -15.4025   27.7400 C.ar    1  UNL1        0.0207
     11 C          -6.0212  -14.8107   27.1571 C.ar    1  UNL1        0.0989
     12 N          -5.8068  -14.8242   25.6726 N.ar    1  UNL1       -0.2423
     13 C          -6.8414  -15.4295   24.7709 C.ar    1  UNL1        0.0988
     14 C          -8.0904  -16.0214   25.3538 C.ar    1  UNL1        0.0192
     15 C          -8.3047  -16.0079   26.8383 C.ar    1  UNL1        0.0031
     16 C          -9.5268  -19.6859   19.3842 C.3     1  UNL1        0.0759
     17 N          -8.2395  -19.5645   20.1444 N.3     1  UNL1       -0.2726
     18 C          -7.0671  -20.4248   19.7762 C.3     1  UNL1        0.0721
     19 C          -5.7797  -20.3035   20.5364 C.3     1  UNL1        0.0178
     20 C          -5.6646  -19.3218   21.6648 C.3     1  UNL1        0.0087
     21 C          -6.8369  -18.4616   22.0330 C.3     1  UNL1        0.0178
     22 C          -8.1244  -18.5829   21.2728 C.3     1  UNL1        0.0721
     23 C          -4.3772  -19.2005   22.4250 C.3     1  UNL1        0.0453
     24 C          -3.1452  -18.6915   21.7372 C.ar    1  UNL1        0.0541
     25 C          -2.0321  -19.5324   21.1859 C.ar    1  UNL1        0.1131
     26 N          -1.0089  -18.6129   20.5880 N.ar    1  UNL1       -0.2229
     27 C          -1.4897  -17.2036   20.7696 C.ar    1  UNL1        0.1748
     28 N          -2.8100  -17.2523   21.4799 N.ar    1  UNL1       -0.3382
     29 H          -3.3600  -16.4759   21.7328 H       1  UNL1        0.1672
@<TRIPOS>BOND
     1    10    11   ar
     2    11    12   ar
     3    12    13   ar
     4    13    14   ar
     5    14     4    1
     6     4     5   ar
     7     5     6   ar
     8     6     7   ar
     9     7     3    1
    10     3     2    1
    11     2     1    1
    12     1    16    1
    13    16    17    1
    14    17    18    1
    15    18    19    1
    16    19    20    1
    17    20    23    1
    18    23    24    1
    19    24    25   ar
    20    25    26   ar
    21    26    27   ar
    22    27    28   ar
    23    20    21    1
    24    21    22    1
    25     7     8   ar
    26     8     9   ar
    27    14    15   ar
    28    15    10   ar
    29     9     4   ar
    30    22    17    1
    31    28    24   ar
    32    28    29    1
@<TRIPOS>MOLECULE
*****
 29 32 0 0 0
SMALL
GASTEIGER

@<TRIPOS>ATOM
      1 C          -2.7160  -20.0955   20.1186 C.3     1  UNL1        0.0646
      2 C          -4.1426  -19.8073   19.7553 C.3     1  UNL1        0.2068
      3 O          -5.2239  -20.7738   20.1382 O.3     1  UNL1       -0.4754
      4 C          -9.2411  -19.2437   21.4692 C.ar    1  UNL1        0.0017
      5 C          -8.9285  -19.3563   20.0065 C.ar    1  UNL1        0.0032
      6 C          -7.5894  -19.8664   19.5628 C.ar    1  UNL1        0.0369
      7 C          -6.5630  -20.2637   20.5818 C.ar    1  UNL1        0.1386
      8 C          -6.8756  -20.1511   22.0446 C.ar    1  UNL1        0.0369
      9 C          -8.2146  -19.6410   22.4882 C.ar    1  UNL1        0.0032
     10 C         -12.2940  -18.2651   23.8084 C.ar    1  UNL1        0.0207
     11 C         -13.2581  -17.7136   22.8003 C.ar    1  UNL1        0.0989
     12 N         -12.8832  -17.6721   21.3485 N.ar    1  UNL1       -0.2423
     13 C         -11.5442  -18.1821   20.9048 C.ar    1  UNL1        0.0988
     14 C         -10.5801  -18.7336   21.9128 C.ar    1  UNL1        0.0192
     15 C         -10.9550  -18.7752   23.3646 C.ar    1  UNL1        0.0031
     16 C          -2.0800  -19.3883   21.2785 C.3     1  UNL1        0.0759
     17 N          -2.8352  -18.3189   22.0105 N.3     1  UNL1       -0.2726
     18 C          -3.9003  -18.6949   22.9977 C.3     1  UNL1        0.0721
     19 C          -4.6555  -17.6255   23.7298 C.3     1  UNL1        0.0178
     20 C          -4.3458  -16.1801   23.4747 C.3     1  UNL1        0.0087
     21 C          -3.2809  -15.8042   22.4875 C.3     1  UNL1        0.0178
     22 C          -2.5256  -16.8736   21.7554 C.3     1  UNL1        0.0721
     23 C          -5.1012  -15.1107   24.2068 C.3     1  UNL1        0.0453
     24 C          -6.5334  -15.3343   24.5923 C.ar    1  UNL1        0.0541
     25 C          -7.6428  -15.7379   23.6670 C.ar    1  UNL1        0.1131
     26 N          -8.9028  -15.8465   24.4737 N.ar    1  UNL1       -0.2229
     27 C          -8.5721  -15.5099   25.8976 C.ar    1  UNL1        0.1748
     28 N          -7.1077  -15.1933   25.9709 N.ar    1  UNL1       -0.3382
     29 H          -6.6108  -14.9379   26.7814 H       1  UNL1        0.1672
@<TRIPOS>BOND
     1    10    11   ar
     2    11    12   ar
     3    12    13   ar
     4    13    14   ar
     5    14     4    1
     6     4     5   ar
     7     5     6   ar
     8     6     7   ar
     9     7     3    1
    10     3     2    1
    11     2     1    1
    12     1    16    1
    13    16    17    1
    14    17    18    1
    15    18    19    1
    16    19    20    1
    17    20    23    1
    18    23    24    1
    19    24    25   ar
    20    25    26   ar
    21    26    27   ar
    22    27    28   ar
    23    20    21    1
    24    21    22    1
    25     7     8   ar
    26     8     9   ar
    27    14    15   ar
    28    15    10   ar
    29     9     4   ar
    30    22    17    1
    31    28    24   ar
    32    28    29    1
@<TRIPOS>MOLECULE
*****
 29 32 0 0 0
SMALL
GASTEIGER

@<TRIPOS>ATOM
      1 C          -3.0733  -18.7743   19.3307 C.3     1  UNL1        0.0646
      2 C          -1.6683  -18.6909   19.8494 C.3     1  UNL1        0.2068
      3 O          -1.3586  -17.8351   21.0417 O.3     1  UNL1       -0.4754
      4 C          -4.6691  -16.5336   23.7979 C.ar    1  UNL1        0.0017
      5 C          -3.9725  -15.5247   22.9338 C.ar    1  UNL1        0.0032
      6 C          -2.8689  -15.9585   22.0150 C.ar    1  UNL1        0.0369
      7 C          -2.4621  -17.4012   21.9604 C.ar    1  UNL1        0.1386
      8 C          -3.1587  -18.4102   22.8247 C.ar    1  UNL1        0.0369
      9 C          -4.2622  -17.9764   23.7434 C.ar    1  UNL1        0.0032
     10 C          -6.5681  -15.3010   27.0574 C.ar    1  UNL1        0.0207
     11 C          -7.9795  -15.2323   26.5543 C.ar    1  UNL1        0.0989
     12 N          -8.2875  -15.5973   25.1323 N.ar    1  UNL1       -0.2423
     13 C          -7.1840  -16.0311   24.2136 C.ar    1  UNL1        0.0988
     14 C          -5.7726  -16.0998   24.7167 C.ar    1  UNL1        0.0192
     15 C          -5.4647  -15.7348   26.1387 C.ar    1  UNL1        0.0031
     16 C          -3.9305  -19.9565   19.6737 C.3     1  UNL1        0.0759
     17 N          -5.1622  -19.7724   20.5096 N.3     1  UNL1       -0.2726
     18 C          -5.9737  -18.5171   20.3833 C.3     1  UNL1        0.0721
     19 C          -7.2055  -18.3331   21.2192 C.3     1  UNL1        0.0178
     20 C          -7.6259  -19.4042   22.1815 C.3     1  UNL1        0.0087
     21 C          -6.8145  -20.6595   22.3078 C.3     1  UNL1        0.0178
     22 C          -5.5826  -20.8436   21.4718 C.3     1  UNL1        0.0721
     23 C          -8.8577  -19.2201   23.0174 C.3     1  UNL1        0.0453
     24 C          -9.9929  -18.3836   22.5061 C.ar    1  UNL1        0.0541
     25 C         -11.0166  -18.8095   21.4958 C.ar    1  UNL1        0.1131
     26 N         -11.9602  -17.6635   21.2806 N.ar    1  UNL1       -0.2229
     27 C         -11.5197  -16.5293   22.1579 C.ar    1  UNL1        0.1748
     28 N         -10.3039  -16.9744   22.9153 N.ar    1  UNL1       -0.3382
     29 H          -9.7987  -16.4361   23.5667 H       1  UNL1        0.1672
@<TRIPOS>BOND
     1    10    11   ar
     2    11    12   ar
     3    12    13   ar
     4    13    14   ar
     5    14     4    1
     6     4     5   ar
     7     5     6   ar
     8     6     7   ar
     9     7     3    1
    10     3     2    1
    11     2     1    1
    12     1    16    1
    13    16    17    1
    14    17    18    1
    15    18    19    1
    16    19    20    1
    17    20    23    1
    18    23    24    1
    19    24    25   ar
    20    25    26   ar
    21    26    27   ar
    22    27    28   ar
    23    20    21    1
    24    21    22    1
    25     7     8   ar
    26     8     9   ar
    27    14    15   ar
    28    15    10   ar
    29     9     4   ar
    30    22    17    1
    31    28    24   ar
    32    28    29    1
@<TRIPOS>MOLECULE
*****
 29 32 0 0 0
SMALL
GASTEIGER

@<TRIPOS>ATOM
      1 C         -11.5686  -18.5004   20.1738 C.3     1  UNL1        0.0646
      2 C         -10.5103  -19.5485   19.9960 C.3     1  UNL1        0.2068
      3 O          -9.5835  -19.8782   21.1283 O.3     1  UNL1       -0.4754
      4 C          -5.1737  -19.0735   20.7336 C.ar    1  UNL1        0.0017
      5 C          -5.8401  -18.9587   22.0725 C.ar    1  UNL1        0.0032
      6 C          -7.3101  -19.2269   22.2041 C.ar    1  UNL1        0.0369
      7 C          -8.1136  -19.6100   20.9968 C.ar    1  UNL1        0.1386
      8 C          -7.4471  -19.7248   19.6578 C.ar    1  UNL1        0.0369
      9 C          -5.9772  -19.4565   19.5263 C.ar    1  UNL1        0.0032
     10 C          -1.6900  -17.9448   19.2040 C.ar    1  UNL1        0.0207
     11 C          -0.7639  -18.2688   20.3387 C.ar    1  UNL1        0.0989
     12 N          -1.3078  -18.8611   21.6049 N.ar    1  UNL1       -0.2423
     13 C          -2.7777  -19.1293   21.7366 C.ar    1  UNL1        0.0988
     14 C          -3.7037  -18.8053   20.6020 C.ar    1  UNL1        0.0192
     15 C          -3.1599  -18.2130   19.3357 C.ar    1  UNL1        0.0031
     16 C         -12.1484  -18.2430   21.5331 C.3     1  UNL1        0.0759
     17 N         -11.2591  -17.7962   22.6553 N.3     1  UNL1       -0.2726
     18 C         -10.7002  -16.4041   22.6608 C.3     1  UNL1        0.0721
     19 C          -9.8110  -15.9573   23.7830 C.3     1  UNL1        0.0178
     20 C          -9.4805  -16.9025   24.8999 C.3     1  UNL1        0.0087
     21 C         -10.0393  -18.2945   24.8945 C.3     1  UNL1        0.0178
     22 C         -10.9286  -18.7413   23.7722 C.3     1  UNL1        0.0721
     23 C          -8.5911  -16.4556   26.0222 C.3     1  UNL1        0.0453
     24 C          -7.2408  -15.8749   25.7234 C.ar    1  UNL1        0.0541
     25 C          -6.7389  -15.4601   24.3721 C.ar    1  UNL1        0.1131
     26 N          -5.3432  -14.9359   24.5369 N.ar    1  UNL1       -0.2229
     27 C          -4.9825  -15.0267   25.9901 C.ar    1  UNL1        0.1748
     28 N          -6.1553  -15.6071   26.7233 N.ar    1  UNL1       -0.3382
     29 H          -6.2040  -15.7816   27.6910 H       1  UNL1        0.1672
@<TRIPOS>BOND
     1    10    11   ar
     2    11    12   ar
     3    12    13   ar
     4    13    14   ar
     5    14     4    1
     6     4     5   ar
     7     5     6   ar
     8     6     7   ar
     9     7     3    1
    10     3     2    1
    11     2     1    1
    12     1    16    1
    13    16    17    1
    14    17    18    1
    15    18    19    1
    16    19    20    1
    17    20    23    1
    18    23    24    1
    19    24    25   ar
    20    25    26   ar
    21    26    27   ar
    22    27    28   ar
    23    20    21    1
    24    21    22    1
    25     7     8   ar
    26     8     9   ar
    27    14    15   ar
    28    15    10   ar
    29     9     4   ar
    30    22    17    1
    31    28    24   ar
    32    28    29    1
@<TRIPOS>MOLECULE
*****
 29 32 0 0 0
SMALL
GASTEIGER

@<TRIPOS>ATOM
      1 C          -2.0745  -19.5943   21.0544 C.3     1  UNL1        0.0646
      2 C          -2.7212  -19.5172   19.7031 C.3     1  UNL1        0.2068
      3 O          -3.9996  -20.2565   19.4402 O.3     1  UNL1       -0.4754
      4 C          -7.6091  -19.4965   22.0178 C.ar    1  UNL1        0.0017
      5 C          -7.2719  -18.5522   20.9022 C.ar    1  UNL1        0.0032
      6 C          -6.0687  -18.8055   20.0430 C.ar    1  UNL1        0.0369
      7 C          -5.2028  -20.0031   20.2993 C.ar    1  UNL1        0.1386
      8 C          -5.5400  -20.9475   21.4150 C.ar    1  UNL1        0.0369
      9 C          -6.7431  -20.6942   22.2742 C.ar    1  UNL1        0.0032
     10 C         -10.6977  -17.6546   23.6965 C.ar    1  UNL1        0.0207
     11 C         -11.2185  -18.7365   24.5954 C.ar    1  UNL1        0.0989
     12 N         -10.5362  -20.0718   24.6352 N.ar    1  UNL1       -0.2423
     13 C          -9.3331  -20.3251   23.7760 C.ar    1  UNL1        0.0988
     14 C          -8.8123  -19.2432   22.8770 C.ar    1  UNL1        0.0192
     15 C          -9.4946  -17.9079   22.8373 C.ar    1  UNL1        0.0031
     16 C          -1.7682  -18.3365   21.8120 C.3     1  UNL1        0.0759
     17 N          -2.8842  -17.5223   22.3964 N.3     1  UNL1       -0.2726
     18 C          -2.8939  -16.0319   22.2267 C.3     1  UNL1        0.0721
     19 C          -4.0099  -15.2177   22.8111 C.3     1  UNL1        0.0178
     20 C          -5.1163  -15.8939   23.5652 C.3     1  UNL1        0.0087
     21 C          -5.1067  -17.3842   23.7349 C.3     1  UNL1        0.0178
     22 C          -3.9907  -18.1984   23.1505 C.3     1  UNL1        0.0721
     23 C          -6.2324  -15.0796   24.1496 C.3     1  UNL1        0.0453
     24 C          -6.8436  -15.4766   25.4606 C.ar    1  UNL1        0.0541
     25 C          -6.1897  -15.3702   26.8063 C.ar    1  UNL1        0.1131
     26 N          -7.1579  -15.8775   27.8336 N.ar    1  UNL1       -0.2229
     27 C          -8.4102  -16.2974   27.1226 C.ar    1  UNL1        0.1748
     28 N          -8.2159  -16.0496   25.6561 N.ar    1  UNL1       -0.3382
     29 H          -8.8737  -16.2312   24.9464 H       1  UNL1        0.1672
@<TRIPOS>BOND
     1    10    11   ar
     2    11    12   ar
     3    12    13   ar
     4    13    14   ar
     5    14     4    1
     6     4     5   ar
     7     5     6   ar
     8     6     7   ar
     9     7     3    1
    10     3     2    1
    11     2     1    1
    12     1    16    1
    13    16    17    1
    14    17    18    1
    15    18    19    1
    16    19    20    1
    17    20    23    1
    18    23    24    1
    19    24    25   ar
    20    25    26   ar
    21    26    27   ar
    22    27    28   ar
    23    20    21    1
    24    21    22    1
    25     7     8   ar
    26     8     9   ar
    27    14    15   ar
    28    15    10   ar
    29     9     4   ar
    30    22    17    1
    31    28    24   ar
    32    28    29    1
@<TRIPOS>MOLECULE
*****
 29 32 0 0 0
SMALL
GASTEIGER

@<TRIPOS>ATOM
      1 C          -6.3527  -15.0674   26.4042 C.3     1  UNL1        0.0646
      2 C          -7.1980  -15.3249   27.6164 C.3     1  UNL1        0.2068
      3 O          -8.4603  -16.1258   27.4941 O.3     1  UNL1       -0.4754
      4 C          -9.8793  -17.4848   23.4457 C.ar    1  UNL1        0.0017
      5 C          -9.7439  -18.4750   24.5642 C.ar    1  UNL1        0.0032
      6 C          -9.2709  -18.0220   25.9138 C.ar    1  UNL1        0.0369
      7 C          -8.9333  -16.5788   26.1446 C.ar    1  UNL1        0.1386
      8 C          -9.0687  -15.5886   25.0260 C.ar    1  UNL1        0.0369
      9 C          -9.5417  -16.0417   23.6766 C.ar    1  UNL1        0.0032
     10 C         -10.5933  -19.8060   20.3068 C.ar    1  UNL1        0.0207
     11 C         -11.2982  -18.8439   19.3973 C.ar    1  UNL1        0.0989
     12 N         -11.5301  -17.4287   19.8372 N.ar    1  UNL1       -0.2423
     13 C         -11.0572  -16.9757   21.1866 C.ar    1  UNL1        0.0988
     14 C         -10.3523  -17.9378   22.0962 C.ar    1  UNL1        0.0192
     15 C         -10.1203  -19.3530   21.6563 C.ar    1  UNL1        0.0031
     16 C          -5.0783  -15.8323   26.2023 C.3     1  UNL1        0.0759
     17 N          -4.8724  -16.6287   24.9480 N.3     1  UNL1       -0.2726
     18 C          -3.6027  -17.4027   24.7510 C.3     1  UNL1        0.0721
     19 C          -3.3967  -18.1991   23.4967 C.3     1  UNL1        0.0178
     20 C          -4.4604  -18.2214   22.4393 C.3     1  UNL1        0.0087
     21 C          -5.7300  -17.4474   22.6362 C.3     1  UNL1        0.0178
     22 C          -5.9360  -16.6510   23.8906 C.3     1  UNL1        0.0721
     23 C          -4.2544  -19.0179   21.1849 C.3     1  UNL1        0.0453
     24 C          -3.2529  -18.5643   20.1645 C.ar    1  UNL1        0.0541
     25 C          -1.7933  -18.9100   20.1474 C.ar    1  UNL1        0.1131
     26 N          -1.1734  -18.2448   18.9544 N.ar    1  UNL1       -0.2229
     27 C          -2.2499  -17.4879   18.2342 C.ar    1  UNL1        0.1748
     28 N          -3.5350  -17.6854   18.9822 N.ar    1  UNL1       -0.3382
     29 H          -4.4100  -17.3050   18.7396 H       1  UNL1        0.1672
@<TRIPOS>BOND
     1    10    11   ar
     2    11    12   ar
     3    12    13   ar
     4    13    14   ar
     5    14     4    1
     6     4     5   ar
     7     5     6   ar
     8     6     7   ar
     9     7     3    1
    10     3     2    1
    11     2     1    1
    12     1    16    1
    13    16    17    1
    14    17    18    1
    15    18    19    1
    16    19    20    1
    17    20    23    1
    18    23    24    1
    19    24    25   ar
    20    25    26   ar
    21    26    27   ar
    22    27    28   ar
    23    20    21    1
    24    21    22    1
    25     7     8   ar
    26     8     9   ar
    27    14    15   ar
    28    15    10   ar
    29     9     4   ar
    30    22    17    1
    31    28    24   ar
    32    28    29    1
@<TRIPOS>MOLECULE
*****
 29 32 0 0 0
SMALL
GASTEIGER

@<TRIPOS>ATOM
      1 C          -5.5681  -15.2838   26.1997 C.3     1  UNL1        0.0646
      2 C          -6.0993  -15.9767   27.4195 C.3     1  UNL1        0.2068
      3 O          -7.5652  -16.2726   27.5354 O.3     1  UNL1       -0.4754
      4 C         -10.0997  -16.5736   23.8293 C.ar    1  UNL1        0.0017
      5 C          -9.5298  -15.2491   24.2426 C.ar    1  UNL1        0.0032
      6 C          -8.6850  -15.1487   25.4780 C.ar    1  UNL1        0.0369
      7 C          -8.4100  -16.3729   26.3001 C.ar    1  UNL1        0.1386
      8 C          -8.9799  -17.6975   25.8867 C.ar    1  UNL1        0.0369
      9 C          -9.8247  -17.7978   24.6513 C.ar    1  UNL1        0.0032
     10 C         -11.3562  -16.0899   20.0960 C.ar    1  UNL1        0.0207
     11 C         -12.6342  -16.8747   20.1231 C.ar    1  UNL1        0.0989
     12 N         -13.0674  -17.5591   21.3856 N.ar    1  UNL1       -0.2423
     13 C         -12.2226  -17.4587   22.6210 C.ar    1  UNL1        0.0988
     14 C         -10.9446  -16.6740   22.5939 C.ar    1  UNL1        0.0192
     15 C         -10.5114  -15.9895   21.3314 C.ar    1  UNL1        0.0031
     16 C          -4.5581  -15.9692   25.3279 C.3     1  UNL1        0.0759
     17 N          -5.0135  -16.8430   24.1969 N.3     1  UNL1       -0.2726
     18 C          -4.1232  -17.9388   23.6903 C.3     1  UNL1        0.0721
     19 C          -4.5786  -18.8126   22.5594 C.3     1  UNL1        0.0178
     20 C          -5.9243  -18.5906   21.9350 C.3     1  UNL1        0.0087
     21 C          -6.8146  -17.4949   22.4416 C.3     1  UNL1        0.0178
     22 C          -6.3592  -16.6210   23.5726 C.3     1  UNL1        0.0721
     23 C          -6.3797  -19.4645   20.8040 C.3     1  UNL1        0.0453
     24 C          -7.8298  -19.5025   20.4225 C.ar    1  UNL1        0.0541
     25 C          -8.9857  -19.6594   21.3656 C.ar    1  UNL1        0.1131
     26 N         -10.2490  -19.6442   20.5569 N.ar    1  UNL1       -0.2229
     27 C          -9.8739  -19.4779   19.1141 C.ar    1  UNL1        0.1748
     28 N          -8.3788  -19.3903   19.0311 N.ar    1  UNL1       -0.3382
     29 H          -7.8505  -19.2788   18.2079 H       1  UNL1        0.1672
@<TRIPOS>BOND
     1    10    11   ar
     2    11    12   ar
     3    12    13   ar
     4    13    14   ar
     5    14     4    1
     6     4     5   ar
     7     5     6   ar
     8     6     7   ar
     9     7     3    1
    10     3     2    1
    11     2     1    1
    12     1    16    1
    13    16    17    1
    14    17    18    1
    15    18    19    1
    16    19    20    1
    17    20    23    1
    18    23    24    1
    19    24    25   ar
    20    25    26   ar
    21    26    27   ar
    22    27    28   ar
    23    20    21    1
    24    21    22    1
    25     7     8   ar
    26     8     9   ar
    27    14    15   ar
    28    15    10   ar
    29     9     4   ar
    30    22    17    1
    31    28    24   ar
    32    28    29    1
@<TRIPOS>MOLECULE
*****
 29 32 0 0 0
SMALL
GASTEIGER

@<TRIPOS>ATOM
      1 C          -1.3696    4.0462   21.9858 C.3     1  UNL1        0.0646
      2 C          -1.5016    3.0106   20.9086 C.3     1  UNL1        0.2068
      3 O          -0.5746    3.0325   19.7296 O.3     1  UNL1       -0.4754
      4 C           2.3845   -0.3046   19.1318 C.ar    1  UNL1        0.0017
      5 C           1.2391   -0.4796   20.0844 C.ar    1  UNL1        0.0032
      6 C           0.2527    0.6328   20.2837 C.ar    1  UNL1        0.0369
      7 C           0.4117    1.9201   19.5303 C.ar    1  UNL1        0.1386
      8 C           1.5572    2.0951   18.5777 C.ar    1  UNL1        0.0369
      9 C           2.5435    0.9827   18.3785 C.ar    1  UNL1        0.0032
     10 C           4.2897   -3.7550   19.5953 C.ar    1  UNL1        0.0207
     11 C           5.3436   -3.6417   18.5341 C.ar    1  UNL1        0.0989
     12 N           5.4112   -2.4160   17.6720 N.ar    1  UNL1       -0.2423
     13 C           4.4248   -1.3037   17.8712 C.ar    1  UNL1        0.0988
     14 C           3.3709   -1.4170   18.9325 C.ar    1  UNL1        0.0192
     15 C           3.3034   -2.6427   19.7946 C.ar    1  UNL1        0.0031
     16 C          -0.2503    3.9556   22.9801 C.3     1  UNL1        0.0759
     17 N          -0.4522    3.2202   24.2718 N.3     1  UNL1       -0.2726
     18 C           0.1543    1.8618   24.4642 C.3     1  UNL1        0.0721
     19 C          -0.0476    1.1264   25.7558 C.3     1  UNL1        0.0178
     20 C          -0.8560    1.7493   26.8551 C.3     1  UNL1        0.0087
     21 C          -1.4625    3.1076   26.6627 C.3     1  UNL1        0.0178
     22 C          -1.2606    3.8431   25.3711 C.3     1  UNL1        0.0721
     23 C          -1.0579    1.0138   28.1468 C.3     1  UNL1        0.0453
     24 C           0.1239    0.6534   28.9973 C.ar    1  UNL1        0.0541
     25 C           0.6193    1.4191   30.1882 C.ar    1  UNL1        0.1131
     26 N           1.8194    0.7030   30.7332 N.ar    1  UNL1       -0.2229
     27 C           2.0657   -0.5052   29.8790 C.ar    1  UNL1        0.1748
     28 N           1.0178   -0.5358   28.8062 N.ar    1  UNL1       -0.3382
     29 H           0.9319   -1.2169   28.1005 H       1  UNL1        0.1672
@<TRIPOS>BOND
     1    10    11   ar
     2    11    12   ar
     3    12    13   ar
     4    13    14   ar
     5    14     4    1
     6     4     5   ar
     7     5     6   ar
     8     6     7   ar
     9     7     3    1
    10     3     2    1
    11     2     1    1
    12     1    16    1
    13    16    17    1
    14    17    18    1
    15    18    19    1
    16    19    20    1
    17    20    23    1
    18    23    24    1
    19    24    25   ar
    20    25    26   ar
    21    26    27   ar
    22    27    28   ar
    23    20    21    1
    24    21    22    1
    25     7     8   ar
    26     8     9   ar
    27    14    15   ar
    28    15    10   ar
    29     9     4   ar
    30    22    17    1
    31    28    24   ar
    32    28    29    1
