@<TRIPOS>MOLECULE
*****
 27 31 0 0 0
SMALL
GASTEIGER

@<TRIPOS>ATOM
      1 C          -8.5850  -15.8583   23.4359 C.2     1  UNL1        0.0307
      2 C          -8.9368  -15.3186   24.7905 C.2     1  UNL1        0.2320
      3 N          -7.9055  -15.2953   25.8795 N.2     1  UNL1       -0.0311
      4 C          -6.5225  -15.8118   25.6139 C.2     1  UNL1        0.3720
      5 N          -5.3055  -15.9158   26.4847 N.2     1  UNL1       -0.0308
      6 C          -4.2016  -16.5198   25.6682 C.2     1  UNL1        0.2355
      7 C          -4.7364  -16.7890   24.2929 C.2     1  UNL1        0.0469
      8 C          -6.1707  -16.3515   24.2593 C.2     1  UNL1        0.0740
      9 C          -7.2020  -16.3747   23.1703 C.3     1  UNL1        0.0645
     10 N         -12.7100  -15.9514   19.0797 N.pl3   1  UNL1       -0.3426
     11 C         -11.6788  -15.9281   20.1688 C.ar    1  UNL1        0.1254
     12 C         -11.9557  -16.6049   21.4785 C.ar    1  UNL1        0.0339
     13 C         -10.9244  -16.5816   22.5675 C.ar    1  UNL1        0.0042
     14 C          -9.6163  -15.8816   22.3469 C.ar    1  UNL1        0.0193
     15 C          -9.3394  -15.2049   21.0372 C.ar    1  UNL1        0.1001
     16 N         -10.3706  -15.2281   19.9481 N.ar    1  UNL1       -0.2296
     17 H         -13.5686  -16.4108   19.2245 H       1  UNL1        0.1437
     18 H         -12.5282  -15.5072   18.2201 H       1  UNL1        0.1437
     19 C          -3.9711  -17.3903   23.1514 C.2     1  UNL1       -0.0140
     20 C          -4.3183  -18.7629   22.6560 C.2     1  UNL1       -0.0023
     21 C          -3.5531  -19.3642   21.5146 C.2     1  UNL1        0.0185
     22 C          -2.4405  -18.5928   20.8686 C.2     1  UNL1        0.0777
     23 N          -1.5168  -18.9236   19.7340 N.2     1  UNL1       -0.2442
     24 C          -0.5987  -17.7555   19.5282 C.2     1  UNL1        0.0985
     25 C          -0.9550  -16.7027   20.5356 C.2     1  UNL1        0.0182
     26 C          -2.0934  -17.2203   21.3640 C.2     1  UNL1        0.0014
     27 C          -2.8586  -16.6190   22.5054 C.3     1  UNL1        0.0543
@<TRIPOS>BOND
     1    10    11    1
     2    11    12   ar
     3    12    13   ar
     4    13    14   ar
     5    14     1    1
     6     1     2    2
     7     2     3    1
     8     3     4    2
     9     4     5    1
    10     5     6    2
    11     6     7    1
    12     7    19    1
    13    19    20    2
    14    20    21    1
    15    21    22    2
    16    22    23    1
    17    23    24    2
    18    24    25    1
    19    25    26    2
    20    26    27    1
    21     7     8    2
    22     8     9    1
    23    14    15   ar
    24    15    16   ar
    25    16    11   ar
    26     9     1    1
    27     8     4    1
    28    27    19    1
    29    26    22    1
    30    10    17    1
    31    10    18    1
@<TRIPOS>MOLECULE
*****
 27 31 0 0 0
SMALL
GASTEIGER

@<TRIPOS>ATOM
      1 C          -8.1852  -17.1916   23.4605 C.2     1  UNL1        0.0307
      2 C          -9.6139  -17.4586   23.0898 C.2     1  UNL1        0.2320
      3 N          -9.9330  -18.2703   21.8695 N.2     1  UNL1       -0.0311
      4 C          -8.8233  -18.8150   21.0198 C.2     1  UNL1        0.3720
      5 N          -8.8307  -19.6424   19.7686 N.2     1  UNL1       -0.0308
      6 C          -7.4066  -19.8867   19.3660 C.2     1  UNL1        0.2355
      7 C          -6.5190  -19.2103   20.3684 C.2     1  UNL1        0.0469
      8 C          -7.3946  -18.5480   21.3905 C.2     1  UNL1        0.0740
      9 C          -7.0756  -17.7363   22.6108 C.3     1  UNL1        0.0645
     10 N          -6.9088  -13.9445   28.3419 N.pl3   1  UNL1       -0.3426
     11 C          -7.2279  -14.7563   27.1216 C.ar    1  UNL1        0.1254
     12 C          -8.4454  -15.6322   27.1008 C.ar    1  UNL1        0.0339
     13 C          -8.7645  -16.4440   25.8804 C.ar    1  UNL1        0.0042
     14 C          -7.8662  -16.3798   24.6809 C.ar    1  UNL1        0.0193
     15 C          -6.6487  -15.5038   24.7017 C.ar    1  UNL1        0.1001
     16 N          -6.3296  -14.6921   25.9220 N.ar    1  UNL1       -0.2296
     17 H          -7.4985  -13.9866   29.1292 H       1  UNL1        0.1437
     18 H          -6.1098  -13.3696   28.3556 H       1  UNL1        0.1437
     19 C          -5.0191  -19.1983   20.3517 C.2     1  UNL1       -0.0140
     20 C          -4.2514  -20.0024   21.3586 C.2     1  UNL1       -0.0023
     21 C          -2.7515  -19.9904   21.3418 C.2     1  UNL1        0.0185
     22 C          -2.0194  -19.1743   20.3182 C.2     1  UNL1        0.0777
     23 N          -0.5566  -18.9681   20.0580 N.2     1  UNL1       -0.2442
     24 C          -0.4203  -18.0365   18.8903 C.2     1  UNL1        0.0985
     25 C          -1.7988  -17.6670   18.4288 C.2     1  UNL1        0.0182
     26 C          -2.7872  -18.3702   19.3113 C.2     1  UNL1        0.0014
     27 C          -4.2870  -18.3822   19.3280 C.3     1  UNL1        0.0543
@<TRIPOS>BOND
     1    10    11    1
     2    11    12   ar
     3    12    13   ar
     4    13    14   ar
     5    14     1    1
     6     1     2    2
     7     2     3    1
     8     3     4    2
     9     4     5    1
    10     5     6    2
    11     6     7    1
    12     7    19    1
    13    19    20    2
    14    20    21    1
    15    21    22    2
    16    22    23    1
    17    23    24    2
    18    24    25    1
    19    25    26    2
    20    26    27    1
    21     7     8    2
    22     8     9    1
    23    14    15   ar
    24    15    16   ar
    25    16    11   ar
    26     9     1    1
    27     8     4    1
    28    27    19    1
    29    26    22    1
    30    10    17    1
    31    10    18    1
@<TRIPOS>MOLECULE
*****
 27 31 0 0 0
SMALL
GASTEIGER

@<TRIPOS>ATOM
      1 C         -17.7447   -6.1776   19.5337 C.2     1  UNL1        0.0307
      2 C         -19.1073   -5.6066   19.7928 C.2     1  UNL1        0.2320
      3 N         -19.2846   -4.1238   19.9342 N.2     1  UNL1       -0.0311
      4 C         -18.0992   -3.2122   19.8163 C.2     1  UNL1        0.3720
      5 N         -17.9669   -1.7209   19.9093 N.2     1  UNL1       -0.0308
      6 C         -16.5224   -1.3703   19.7076 C.2     1  UNL1        0.2355
      7 C         -15.7621   -2.6449   19.4899 C.2     1  UNL1        0.0469
      8 C         -16.7367   -3.7832   19.5571 C.2     1  UNL1        0.0740
      9 C         -16.5594   -5.2660   19.4158 C.3     1  UNL1        0.0645
     10 N         -17.0354  -12.1087   18.9683 N.pl3   1  UNL1       -0.3426
     11 C         -17.2127  -10.6260   19.1096 C.ar    1  UNL1        0.1254
     12 C         -18.3112   -9.9276   18.3642 C.ar    1  UNL1        0.0339
     13 C         -18.4885   -8.4448   18.5056 C.ar    1  UNL1        0.0042
     14 C         -17.5674   -7.6605   19.3923 C.ar    1  UNL1        0.0193
     15 C         -16.4690   -8.3589   20.1377 C.ar    1  UNL1        0.1001
     16 N         -16.2916   -9.8416   19.9964 N.ar    1  UNL1       -0.2296
     17 H         -17.6399  -12.6235   18.3863 H       1  UNL1        0.1437
     18 H         -16.3144  -12.5671   19.4576 H       1  UNL1        0.1437
     19 C         -14.2864   -2.7609   19.2476 C.2     1  UNL1       -0.0140
     20 C         -13.4858   -1.5418   18.8973 C.2     1  UNL1       -0.0023
     21 C         -12.0100   -1.6578   18.6550 C.2     1  UNL1        0.0185
     22 C         -11.3349   -2.9929   18.7630 C.2     1  UNL1        0.0777
     23 N          -9.9064   -3.4129   18.5810 N.2     1  UNL1       -0.2442
     24 C          -9.8243   -4.8916   18.8188 C.2     1  UNL1        0.0985
     25 C         -11.2019   -5.3855   19.1478 C.2     1  UNL1        0.0182
     26 C         -12.1355   -4.2120   19.1133 C.2     1  UNL1        0.0014
     27 C         -13.6112   -4.0960   19.3556 C.3     1  UNL1        0.0543
@<TRIPOS>BOND
     1    10    11    1
     2    11    12   ar
     3    12    13   ar
     4    13    14   ar
     5    14     1    1
     6     1     2    2
     7     2     3    1
     8     3     4    2
     9     4     5    1
    10     5     6    2
    11     6     7    1
    12     7    19    1
    13    19    20    2
    14    20    21    1
    15    21    22    2
    16    22    23    1
    17    23    24    2
    18    24    25    1
    19    25    26    2
    20    26    27    1
    21     7     8    2
    22     8     9    1
    23    14    15   ar
    24    15    16   ar
    25    16    11   ar
    26     9     1    1
    27     8     4    1
    28    27    19    1
    29    26    22    1
    30    10    17    1
    31    10    18    1
@<TRIPOS>MOLECULE
*****
 27 31 0 0 0
SMALL
GASTEIGER

@<TRIPOS>ATOM
      1 C          -4.5811  -16.6759   23.7778 C.2     1  UNL1        0.0307
      2 C          -4.1490  -16.1450   25.1124 C.2     1  UNL1        0.2320
      3 N          -5.1748  -15.6712   26.0990 N.2     1  UNL1       -0.0311
      4 C          -6.6327  -15.7284   25.7508 C.2     1  UNL1        0.3720
      5 N          -7.8630  -15.3355   26.5139 N.2     1  UNL1       -0.0308
      6 C          -9.0554  -15.6236   25.6508 C.2     1  UNL1        0.2355
      7 C          -8.5622  -16.1946   24.3543 C.2     1  UNL1        0.0469
      8 C          -7.0649  -16.2593   24.4162 C.2     1  UNL1        0.0740
      9 C          -6.0391  -16.7330   23.4297 C.3     1  UNL1        0.0645
     10 N          -0.4780  -18.5709   19.8314 N.pl3   1  UNL1       -0.3426
     11 C          -1.5038  -18.0972   20.8180 C.ar    1  UNL1        0.1254
     12 C          -2.4150  -19.0845   21.4850 C.ar    1  UNL1        0.0339
     13 C          -3.4408  -18.6107   22.4716 C.ar    1  UNL1        0.0042
     14 C          -3.5553  -17.1497   22.7912 C.ar    1  UNL1        0.0193
     15 C          -2.6441  -16.1623   22.1242 C.ar    1  UNL1        0.1001
     16 N          -1.6184  -16.6361   21.1376 N.ar    1  UNL1       -0.2296
     17 H          -0.4028  -19.5298   19.6217 H       1  UNL1        0.1437
     18 H           0.1200  -17.9229   19.3937 H       1  UNL1        0.1437
     19 C          -9.4163  -16.6252   23.1989 C.2     1  UNL1       -0.0140
     20 C         -10.7349  -15.9550   22.9501 C.2     1  UNL1       -0.0023
     21 C         -11.5890  -16.3856   21.7947 C.2     1  UNL1        0.0185
     22 C         -11.1244  -17.4865   20.8879 C.2     1  UNL1        0.0777
     23 N         -11.7458  -18.1203   19.6787 N.2     1  UNL1       -0.2442
     24 C         -10.8111  -19.1822   19.1800 C.2     1  UNL1        0.0985
     25 C          -9.6121  -19.2047   20.0811 C.2     1  UNL1        0.0182
     26 C          -9.8057  -18.1566   21.1366 C.2     1  UNL1        0.0014
     27 C          -8.9517  -17.7260   22.2921 C.3     1  UNL1        0.0543
@<TRIPOS>BOND
     1    10    11    1
     2    11    12   ar
     3    12    13   ar
     4    13    14   ar
     5    14     1    1
     6     1     2    2
     7     2     3    1
     8     3     4    2
     9     4     5    1
    10     5     6    2
    11     6     7    1
    12     7    19    1
    13    19    20    2
    14    20    21    1
    15    21    22    2
    16    22    23    1
    17    23    24    2
    18    24    25    1
    19    25    26    2
    20    26    27    1
    21     7     8    2
    22     8     9    1
    23    14    15   ar
    24    15    16   ar
    25    16    11   ar
    26     9     1    1
    27     8     4    1
    28    27    19    1
    29    26    22    1
    30    10    17    1
    31    10    18    1
@<TRIPOS>MOLECULE
*****
 27 31 0 0 0
SMALL
GASTEIGER

@<TRIPOS>ATOM
      1 C          -6.2422  -19.1861   20.1957 C.2     1  UNL1        0.0307
      2 C          -7.0149  -19.7436   19.0372 C.2     1  UNL1        0.2320
      3 N          -8.5110  -19.8278   19.1046 N.2     1  UNL1       -0.0311
      4 C          -9.2344  -19.3545   20.3304 C.2     1  UNL1        0.3720
      5 N         -10.6919  -19.3132   20.6825 N.2     1  UNL1       -0.0308
      6 C         -10.8200  -18.7301   22.0586 C.2     1  UNL1        0.2355
      7 C          -9.4416  -18.4111   22.5570 C.2     1  UNL1        0.0469
      8 C          -8.4617  -18.7970   21.4889 C.2     1  UNL1        0.0740
      9 C          -6.9656  -18.7128   21.4215 C.3     1  UNL1        0.0645
     10 N          -0.2577  -18.8492   19.9264 N.pl3   1  UNL1       -0.3426
     11 C          -1.7538  -18.9334   19.9937 C.ar    1  UNL1        0.1254
     12 C          -2.5942  -18.0933   19.0783 C.ar    1  UNL1        0.0339
     13 C          -4.0904  -18.1775   19.1457 C.ar    1  UNL1        0.0042
     14 C          -4.7460  -19.1019   20.1283 C.ar    1  UNL1        0.0193
     15 C          -3.9056  -19.9420   21.0437 C.ar    1  UNL1        0.1001
     16 N          -2.4095  -19.8578   20.9764 N.ar    1  UNL1       -0.2296
     17 H           0.1727  -18.2426   19.2814 H       1  UNL1        0.1437
     18 H           0.2939  -19.4007   20.5271 H       1  UNL1        0.1437
     19 C          -9.1027  -17.8115   23.8895 C.2     1  UNL1       -0.0140
     20 C          -9.8040  -18.2882   25.1267 C.2     1  UNL1       -0.0023
     21 C          -9.4650  -17.6886   26.4592 C.2     1  UNL1        0.0185
     22 C          -8.4247  -16.6122   26.5545 C.2     1  UNL1        0.0777
     23 N          -7.8842  -15.8392   27.7208 N.2     1  UNL1       -0.2442
     24 C          -6.8487  -14.8847   27.2043 C.2     1  UNL1        0.0985
     25 C          -6.7494  -15.0677   25.7188 C.2     1  UNL1        0.0182
     26 C          -7.7235  -16.1354   25.3172 C.2     1  UNL1        0.0014
     27 C          -8.0624  -16.7350   23.9847 C.3     1  UNL1        0.0543
@<TRIPOS>BOND
     1    10    11    1
     2    11    12   ar
     3    12    13   ar
     4    13    14   ar
     5    14     1    1
     6     1     2    2
     7     2     3    1
     8     3     4    2
     9     4     5    1
    10     5     6    2
    11     6     7    1
    12     7    19    1
    13    19    20    2
    14    20    21    1
    15    21    22    2
    16    22    23    1
    17    23    24    2
    18    24    25    1
    19    25    26    2
    20    26    27    1
    21     7     8    2
    22     8     9    1
    23    14    15   ar
    24    15    16   ar
    25    16    11   ar
    26     9     1    1
    27     8     4    1
    28    27    19    1
    29    26    22    1
    30    10    17    1
    31    10    18    1
@<TRIPOS>MOLECULE
*****
 27 31 0 0 0
SMALL
GASTEIGER

@<TRIPOS>ATOM
      1 C         -14.0954   -6.7600   18.8751 C.2     1  UNL1        0.0307
      2 C         -12.6237   -6.8806   18.6118 C.2     1  UNL1        0.2320
      3 N         -11.7575   -5.6561   18.6198 N.2     1  UNL1       -0.0311
      4 C         -12.3631   -4.3108   18.8911 C.2     1  UNL1        0.3720
      5 N         -11.7651   -2.9370   18.9630 N.2     1  UNL1       -0.0308
      6 C         -12.8673   -1.9673   19.2708 C.2     1  UNL1        0.2355
      7 C         -14.1465   -2.7418   19.3890 C.2     1  UNL1        0.0469
      8 C         -13.8348   -4.1901   19.1543 C.2     1  UNL1        0.0740
      9 C         -14.7010   -5.4147   19.1464 C.3     1  UNL1        0.0645
     10 N         -17.5603  -11.6583   18.8432 N.pl3   1  UNL1       -0.3426
     11 C         -16.6941  -10.4338   18.8512 C.ar    1  UNL1        0.1254
     12 C         -17.1176   -9.2206   19.6251 C.ar    1  UNL1        0.0339
     13 C         -16.2513   -7.9960   19.6331 C.ar    1  UNL1        0.0042
     14 C         -14.9617   -7.9846   18.8671 C.ar    1  UNL1        0.0193
     15 C         -14.5383   -9.1977   18.0932 C.ar    1  UNL1        0.1001
     16 N         -15.4045  -10.4223   18.0852 N.ar    1  UNL1       -0.2296
     17 H         -18.4068  -11.6659   19.3459 H       1  UNL1        0.1437
     18 H         -17.2824  -12.4546   18.3352 H       1  UNL1        0.1437
     19 C         -15.4997   -2.1685   19.6892 C.2     1  UNL1       -0.0140
     20 C         -16.7196   -3.0362   19.5947 C.2     1  UNL1       -0.0023
     21 C         -18.0729   -2.4630   19.8949 C.2     1  UNL1        0.0185
     22 C         -18.2063   -1.0220   20.2896 C.2     1  UNL1        0.0777
     23 N         -19.3995   -0.1842   20.6420 N.2     1  UNL1       -0.2442
     24 C         -18.9171    1.2014   20.9543 C.2     1  UNL1        0.0985
     25 C         -17.4257    1.2198   20.7950 C.2     1  UNL1        0.0182
     26 C         -16.9864   -0.1543   20.3841 C.2     1  UNL1        0.0014
     27 C         -15.6331   -0.7276   20.0839 C.3     1  UNL1        0.0543
@<TRIPOS>BOND
     1    10    11    1
     2    11    12   ar
     3    12    13   ar
     4    13    14   ar
     5    14     1    1
     6     1     2    2
     7     2     3    1
     8     3     4    2
     9     4     5    1
    10     5     6    2
    11     6     7    1
    12     7    19    1
    13    19    20    2
    14    20    21    1
    15    21    22    2
    16    22    23    1
    17    23    24    2
    18    24    25    1
    19    25    26    2
    20    26    27    1
    21     7     8    2
    22     8     9    1
    23    14    15   ar
    24    15    16   ar
    25    16    11   ar
    26     9     1    1
    27     8     4    1
    28    27    19    1
    29    26    22    1
    30    10    17    1
    31    10    18    1
@<TRIPOS>MOLECULE
*****
 27 31 0 0 0
SMALL
GASTEIGER

@<TRIPOS>ATOM
      1 C         -13.4617   -6.7382   18.7656 C.2     1  UNL1        0.0307
      2 C         -12.0981   -7.3269   18.5560 C.2     1  UNL1        0.2320
      3 N         -10.9029   -6.4280   18.4407 N.2     1  UNL1       -0.0311
      4 C         -11.0713   -4.9404   18.5349 C.2     1  UNL1        0.3720
      5 N         -10.0859   -3.8120   18.4586 N.2     1  UNL1       -0.0308
      6 C         -10.8407   -2.5259   18.6209 C.2     1  UNL1        0.2355
      7 C         -12.2924   -2.8595   18.7976 C.2     1  UNL1        0.0469
      8 C         -12.4349   -4.3518   18.7445 C.2     1  UNL1        0.0740
      9 C         -13.6301   -5.2507   18.8598 C.3     1  UNL1        0.0645
     10 N         -18.2429  -10.3338   19.2269 N.pl3   1  UNL1       -0.3426
     11 C         -17.0477   -9.4349   19.1116 C.ar    1  UNL1        0.1254
     12 C         -17.1053   -8.0373   19.6531 C.ar    1  UNL1        0.0339
     13 C         -15.9100   -7.1384   19.5377 C.ar    1  UNL1        0.0042
     14 C         -14.6571   -7.6371   18.8809 C.ar    1  UNL1        0.0193
     15 C         -14.5994   -9.0348   18.3394 C.ar    1  UNL1        0.1001
     16 N         -15.7947   -9.9337   18.4547 N.ar    1  UNL1       -0.2296
     17 H         -19.0652  -10.0065   19.6580 H       1  UNL1        0.1437
     18 H         -18.2051  -11.2511   18.8714 H       1  UNL1        0.1437
     19 C         -13.4061   -1.8740   18.9931 C.2     1  UNL1       -0.0140
     20 C         -14.6158   -2.2580   19.7927 C.2     1  UNL1       -0.0023
     21 C         -15.7295   -1.2724   19.9882 C.2     1  UNL1        0.0185
     22 C         -15.6336    0.0973   19.3842 C.2     1  UNL1        0.0777
     23 N         -16.5663    1.2718   19.4069 N.2     1  UNL1       -0.2442
     24 C         -15.9330    2.3818   18.6214 C.2     1  UNL1        0.0985
     25 C         -14.6090    1.8932   18.1132 C.2     1  UNL1        0.0182
     26 C         -14.4240    0.4813   18.5846 C.2     1  UNL1        0.0014
     27 C         -13.3102   -0.5043   18.3891 C.3     1  UNL1        0.0543
@<TRIPOS>BOND
     1    10    11    1
     2    11    12   ar
     3    12    13   ar
     4    13    14   ar
     5    14     1    1
     6     1     2    2
     7     2     3    1
     8     3     4    2
     9     4     5    1
    10     5     6    2
    11     6     7    1
    12     7    19    1
    13    19    20    2
    14    20    21    1
    15    21    22    2
    16    22    23    1
    17    23    24    2
    18    24    25    1
    19    25    26    2
    20    26    27    1
    21     7     8    2
    22     8     9    1
    23    14    15   ar
    24    15    16   ar
    25    16    11   ar
    26     9     1    1
    27     8     4    1
    28    27    19    1
    29    26    22    1
    30    10    17    1
    31    10    18    1
@<TRIPOS>MOLECULE
*****
 27 31 0 0 0
SMALL
GASTEIGER

@<TRIPOS>ATOM
      1 C         -18.4325   -6.3673   19.4893 C.2     1  UNL1        0.0307
      2 C         -19.8816   -6.0218   19.6645 C.2     1  UNL1        0.2320
      3 N         -20.2988   -4.5882   19.8077 N.2     1  UNL1       -0.0311
      4 C         -19.2669   -3.5000   19.7757 C.2     1  UNL1        0.3720
      5 N         -19.3773   -2.0084   19.8909 N.2     1  UNL1       -0.0308
      6 C         -17.9963   -1.4321   19.7869 C.2     1  UNL1        0.2355
      7 C         -17.0325   -2.5674   19.6074 C.2     1  UNL1        0.0469
      8 C         -17.8178   -3.8454   19.6005 C.2     1  UNL1        0.0740
      9 C         -17.4006   -5.2791   19.4573 C.3     1  UNL1        0.0645
     10 N         -16.7634  -12.1020   18.9165 N.pl3   1  UNL1       -0.3426
     11 C         -17.1807  -10.6683   19.0597 C.ar    1  UNL1        0.1254
     12 C         -18.4468  -10.1877   18.4147 C.ar    1  UNL1        0.0339
     13 C         -18.8641   -8.7540   18.5579 C.ar    1  UNL1        0.0042
     14 C         -18.0153   -7.8010   19.3461 C.ar    1  UNL1        0.0193
     15 C         -16.7492   -8.2816   19.9911 C.ar    1  UNL1        0.1001
     16 N         -16.3319   -9.7152   19.8479 N.ar    1  UNL1       -0.2296
     17 H         -17.3205  -12.7275   18.3992 H       1  UNL1        0.1437
     18 H         -15.9325  -12.4174   19.3398 H       1  UNL1        0.1437
     19 C         -15.5447   -2.4461   19.4605 C.2     1  UNL1       -0.0140
     20 C         -14.6358   -3.1812   20.4004 C.2     1  UNL1       -0.0023
     21 C         -13.1480   -3.0599   20.2536 C.2     1  UNL1        0.0185
     22 C         -12.5689   -2.2034   19.1668 C.2     1  UNL1        0.0777
     23 N         -11.1532   -1.8936   18.7799 N.2     1  UNL1       -0.2442
     24 C         -11.1871   -0.9670   17.6008 C.2     1  UNL1        0.0985
     25 C         -12.6238   -0.7041   17.2590 C.2     1  UNL1        0.0182
     26 C         -13.4778   -1.4683   18.2269 C.2     1  UNL1        0.0014
     27 C         -14.9657   -1.5896   18.3737 C.3     1  UNL1        0.0543
@<TRIPOS>BOND
     1    10    11    1
     2    11    12   ar
     3    12    13   ar
     4    13    14   ar
     5    14     1    1
     6     1     2    2
     7     2     3    1
     8     3     4    2
     9     4     5    1
    10     5     6    2
    11     6     7    1
    12     7    19    1
    13    19    20    2
    14    20    21    1
    15    21    22    2
    16    22    23    1
    17    23    24    2
    18    24    25    1
    19    25    26    2
    20    26    27    1
    21     7     8    2
    22     8     9    1
    23    14    15   ar
    24    15    16   ar
    25    16    11   ar
    26     9     1    1
    27     8     4    1
    28    27    19    1
    29    26    22    1
    30    10    17    1
    31    10    18    1
@<TRIPOS>MOLECULE
*****
 27 31 0 0 0
SMALL
GASTEIGER

@<TRIPOS>ATOM
      1 C           0.3499    1.8212   24.5693 C.2     1  UNL1        0.0307
      2 C          -0.5941    2.8724   24.0654 C.2     1  UNL1        0.2320
      3 N          -0.8238    3.0296   22.5915 N.2     1  UNL1       -0.0311
      4 C          -0.1095    2.1358   21.6215 C.2     1  UNL1        0.3720
      5 N          -0.1353    2.0562   20.1238 N.2     1  UNL1       -0.0308
      6 C           0.7929    0.9559   19.7021 C.2     1  UNL1        0.2355
      7 C           1.3922    0.3554   20.9392 C.2     1  UNL1        0.0469
      8 C           0.8344    1.0847   22.1254 C.2     1  UNL1        0.0740
      9 C           1.0642    0.9274   23.5993 C.3     1  UNL1        0.0645
     10 N           1.2691    1.1920   30.4650 N.pl3   1  UNL1       -0.3426
     11 C           1.0393    1.3493   28.9912 C.ar    1  UNL1        0.1254
     12 C          -0.3524    1.2729   28.4367 C.ar    1  UNL1        0.0339
     13 C          -0.5822    1.4303   26.9627 C.ar    1  UNL1        0.0042
     14 C           0.5797    1.6639   26.0433 C.ar    1  UNL1        0.0193
     15 C           1.9714    1.7402   26.5977 C.ar    1  UNL1        0.1001
     16 N           2.2012    1.5829   28.0716 N.ar    1  UNL1       -0.2296
     17 H           0.5065    1.0386   31.0685 H       1  UNL1        0.1437
     18 H           2.1825    1.2421   30.8289 H       1  UNL1        0.1437
     19 C           2.3764   -0.7757   20.9825 C.2     1  UNL1       -0.0140
     20 C           3.1569   -1.0432   22.2351 C.2     1  UNL1       -0.0023
     21 C           4.1412   -2.1743   22.2784 C.2     1  UNL1        0.0185
     22 C           4.3449   -3.0380   21.0690 C.2     1  UNL1        0.0777
     23 N           5.2383   -4.2159   20.8158 N.2     1  UNL1       -0.2442
     24 C           5.0100   -4.6764   19.4066 C.2     1  UNL1        0.0985
     25 C           3.9754   -3.7831   18.7889 C.2     1  UNL1        0.0182
     26 C           3.5643   -2.7704   19.8163 C.2     1  UNL1        0.0014
     27 C           2.5801   -1.6393   19.7731 C.3     1  UNL1        0.0543
@<TRIPOS>BOND
     1    10    11    1
     2    11    12   ar
     3    12    13   ar
     4    13    14   ar
     5    14     1    1
     6     1     2    2
     7     2     3    1
     8     3     4    2
     9     4     5    1
    10     5     6    2
    11     6     7    1
    12     7    19    1
    13    19    20    2
    14    20    21    1
    15    21    22    2
    16    22    23    1
    17    23    24    2
    18    24    25    1
    19    25    26    2
    20    26    27    1
    21     7     8    2
    22     8     9    1
    23    14    15   ar
    24    15    16   ar
    25    16    11   ar
    26     9     1    1
    27     8     4    1
    28    27    19    1
    29    26    22    1
    30    10    17    1
    31    10    18    1
