@<TRIPOS>MOLECULE
*****
 42 45 0 0 0
SMALL
GASTEIGER

@<TRIPOS>ATOM
      1 N           2.8559    1.1509   38.4012 N.am    1  UNL1       -0.2888
      2 C           3.1085    1.7098   37.0324 C.2     1  UNL1        0.3040
      3 O           2.1792    2.7381   36.4590 O.2     1  UNL1       -0.2526
      4 N           4.2905    1.2405   36.2371 N.am    1  UNL1       -0.2641
      5 C           5.2199    0.2122   36.8105 C.3     1  UNL1        0.0966
      6 C           6.4019   -0.2571   36.0151 C.3     1  UNL1        0.0413
      7 C           6.6545    0.3019   34.6463 C.3     1  UNL1        0.0777
      8 C           5.7252    1.3301   34.0729 C.3     1  UNL1        0.0539
      9 C           4.5432    1.7995   34.8683 C.3     1  UNL1        0.0979
     10 H           3.4658    0.4760   38.7776 H       1  UNL1        0.1510
     11 N           7.8365   -0.1675   33.8510 N.am    1  UNL1       -0.2901
     12 C           7.7137   -1.3708   32.9640 C.2     1  UNL1        0.3058
     13 O           6.4087   -2.1050   32.8724 O.2     1  UNL1       -0.2524
     14 N           8.8957   -1.8402   32.1686 N.am    1  UNL1       -0.2485
     15 H           8.6930    0.3143   33.9111 H       1  UNL1        0.1509
     16 H           9.7521   -1.3584   32.2288 H       1  UNL1        0.1583
     17 C           8.7727   -3.0436   31.2816 C.ar    1  UNL1        0.1664
     18 N           9.2494   -4.4288   31.6039 N.ar    1  UNL1       -0.2282
     19 C           8.9228   -5.3144   30.4381 C.ar    1  UNL1        0.0701
     20 C           9.2222   -6.7805   30.3335 C.3     1  UNL1        0.0528
     21 C           8.2443   -4.4764   29.3953 C.ar    1  UNL1        0.0803
     22 S           8.1515   -3.0730   29.9166 S.2     1  UNL1       -0.0488
     23 C           7.7460   -4.9574   28.0647 C.2     1  UNL1        0.1807
     24 C           6.3153   -5.3797   27.9077 C.3     1  UNL1        0.0779
     25 O           8.6785   -5.0162   26.8912 O.2     1  UNL1       -0.2908
     26 C           0.8020    0.6246   39.9028 C.3     1  UNL1        0.0230
     27 C           1.6739    1.6202   39.1966 C.3     1  UNL1        0.0910
     28 C           5.9778    1.8892   32.7040 C.3     1  UNL1        0.0754
     29 N           5.5414    1.1248   31.4895 N.3     1  UNL1       -0.2726
     30 C           6.5263    0.8234   30.3990 C.3     1  UNL1        0.0721
     31 C           6.0898    0.0589   29.1844 C.3     1  UNL1        0.0174
     32 C           4.6685   -0.4040   29.0603 C.3     1  UNL1        0.0031
     33 C           3.6836   -0.1026   30.1507 C.3     1  UNL1        0.0204
     34 C           4.1200    0.6618   31.3653 C.3     1  UNL1        0.0724
     35 C           2.2623   -0.5656   30.0266 C.3     1  UNL1        0.0277
     36 C           1.2744    0.2471   29.2432 C.ar    1  UNL1       -0.0220
     37 C          -0.1100   -0.2797   29.0064 C.ar    1  UNL1       -0.0020
     38 C          -1.0978    0.5330   28.2229 C.ar    1  UNL1        0.0293
     39 C          -0.7013    1.8723   27.6764 C.ar    1  UNL1        0.1401
     40 F          -1.6891    2.6850   26.8929 F       1  UNL1       -0.2042
     41 C           0.6831    2.3991   27.9132 C.ar    1  UNL1        0.0293
     42 C           1.6709    1.5865   28.6966 C.ar    1  UNL1       -0.0020
@<TRIPOS>BOND
     1    26    27    1
     2    27     1    1
     3     1     2   am
     4     2     3    2
     5     2     4   am
     6     4     5    1
     7     5     6    1
     8     6     7    1
     9     7    11    1
    10    11    12   am
    11    12    13    2
    12    12    14   am
    13    14    17    1
    14    17    18   ar
    15    18    19   ar
    16    19    20    1
    17    19    21   ar
    18    21    23    1
    19    23    24    1
    20    23    25    2
    21    21    22   ar
    22     7     8    1
    23     8    28    1
    24    28    29    1
    25    29    30    1
    26    30    31    1
    27    31    32    1
    28    32    33    1
    29    33    35    1
    30    35    36    1
    31    36    37   ar
    32    37    38   ar
    33    38    39   ar
    34    39    40    1
    35    39    41   ar
    36    41    42   ar
    37    33    34    1
    38     8     9    1
    39     9     4    1
    40    22    17   ar
    41    34    29    1
    42    42    36   ar
    43     1    10    1
    44    11    15    1
    45    14    16    1
@<TRIPOS>MOLECULE
*****
 42 45 0 0 0
SMALL
GASTEIGER

@<TRIPOS>ATOM
      1 N          -3.6015    3.5825   26.6232 N.am    1  UNL1       -0.2888
      2 C          -2.1720    3.5459   26.1705 C.2     1  UNL1        0.3040
      3 O          -1.6962    4.4954   25.1112 O.2     1  UNL1       -0.2526
      4 N          -1.2181    2.5599   26.7771 N.am    1  UNL1       -0.2641
      5 C          -1.6939    1.6104   27.8364 C.3     1  UNL1        0.0966
      6 C          -0.7401    0.6244   28.4429 C.3     1  UNL1        0.0413
      7 C           0.6895    0.5878   27.9902 C.3     1  UNL1        0.0777
      8 C           1.1652    1.5373   26.9310 C.3     1  UNL1        0.0539
      9 C           0.2114    2.5233   26.3244 C.3     1  UNL1        0.0979
     10 H          -3.9138    2.9593   27.3185 H       1  UNL1        0.1510
     11 N           1.6433   -0.3982   28.5968 N.am    1  UNL1       -0.2901
     12 C           2.3947   -0.0440   29.8458 C.2     1  UNL1        0.3058
     13 O           2.1922    1.2963   30.4882 O.2     1  UNL1       -0.2524
     14 N           3.3485   -1.0300   30.4524 N.am    1  UNL1       -0.2485
     15 H           1.7762   -1.2779   28.1752 H       1  UNL1        0.1509
     16 H           3.4814   -1.9097   30.0307 H       1  UNL1        0.1583
     17 C           4.0999   -0.6758   31.7014 C.ar    1  UNL1        0.1664
     18 N           3.6814   -1.0017   33.1045 N.ar    1  UNL1       -0.2282
     19 C           4.7246   -0.4607   34.0368 C.ar    1  UNL1        0.0701
     20 C           4.7075   -0.5622   35.5333 C.3     1  UNL1        0.0528
     21 C           5.7878    0.1995   33.2099 C.ar    1  UNL1        0.0803
     22 S           5.4017    0.0666   31.7665 S.2     1  UNL1       -0.0488
     23 C           7.0206    0.8742   33.7343 C.2     1  UNL1        0.1807
     24 C           8.3709    0.2734   33.4781 C.3     1  UNL1        0.0779
     25 O           6.9030    2.1497   34.5149 O.2     1  UNL1       -0.2908
     26 C          -5.5505    4.1152   24.9898 C.3     1  UNL1        0.0230
     27 C          -4.5554    4.5686   26.0166 C.3     1  UNL1        0.0910
     28 C           2.5949    1.5008   26.4782 C.3     1  UNL1        0.0754
     29 N           3.0598    0.4193   25.5486 N.3     1  UNL1       -0.2726
     30 C           3.9488   -0.6763   26.0576 C.3     1  UNL1        0.0721
     31 C           4.4137   -1.7578   25.1279 C.3     1  UNL1        0.0174
     32 C           3.9895   -1.7437   23.6892 C.3     1  UNL1        0.0031
     33 C           3.1005   -0.6480   23.1802 C.3     1  UNL1        0.0204
     34 C           2.6356    0.4334   24.1098 C.3     1  UNL1        0.0724
     35 C           2.6763   -0.6339   21.7415 C.3     1  UNL1        0.0277
     36 C           3.5935   -1.1725   20.6838 C.ar    1  UNL1       -0.0220
     37 C           4.8074   -0.3918   20.2752 C.ar    1  UNL1       -0.0020
     38 C           5.7246   -0.9304   19.2176 C.ar    1  UNL1        0.0293
     39 C           5.4278   -2.2497   18.5685 C.ar    1  UNL1        0.1401
     40 F           6.3450   -2.7883   17.5107 F       1  UNL1       -0.2042
     41 C           4.2139   -3.0304   18.9770 C.ar    1  UNL1        0.0293
     42 C           3.2967   -2.4918   20.0347 C.ar    1  UNL1       -0.0020
@<TRIPOS>BOND
     1    26    27    1
     2    27     1    1
     3     1     2   am
     4     2     3    2
     5     2     4   am
     6     4     5    1
     7     5     6    1
     8     6     7    1
     9     7    11    1
    10    11    12   am
    11    12    13    2
    12    12    14   am
    13    14    17    1
    14    17    18   ar
    15    18    19   ar
    16    19    20    1
    17    19    21   ar
    18    21    23    1
    19    23    24    1
    20    23    25    2
    21    21    22   ar
    22     7     8    1
    23     8    28    1
    24    28    29    1
    25    29    30    1
    26    30    31    1
    27    31    32    1
    28    32    33    1
    29    33    35    1
    30    35    36    1
    31    36    37   ar
    32    37    38   ar
    33    38    39   ar
    34    39    40    1
    35    39    41   ar
    36    41    42   ar
    37    33    34    1
    38     8     9    1
    39     9     4    1
    40    22    17   ar
    41    34    29    1
    42    42    36   ar
    43     1    10    1
    44    11    15    1
    45    14    16    1
@<TRIPOS>MOLECULE
*****
 42 45 0 0 0
SMALL
GASTEIGER

@<TRIPOS>ATOM
      1 N           7.6998   -7.6760   27.5111 N.am    1  UNL1       -0.2888
      2 C           7.6860   -6.7666   26.3183 C.2     1  UNL1        0.3040
      3 O           8.0682   -7.2954   24.9676 O.2     1  UNL1       -0.2526
      4 N           7.2901   -5.3284   26.4761 N.am    1  UNL1       -0.2641
      5 C           6.9080   -4.7996   27.8267 C.3     1  UNL1        0.0966
      6 C           6.5120   -3.3615   27.9846 C.3     1  UNL1        0.0413
      7 C           6.4982   -2.4521   26.7918 C.3     1  UNL1        0.0777
      8 C           6.8804   -2.9809   25.4411 C.3     1  UNL1        0.0539
      9 C           7.2763   -4.4191   25.2833 C.3     1  UNL1        0.0979
     10 H           7.4490   -7.3289   28.3976 H       1  UNL1        0.1510
     11 N           6.1023   -1.0139   26.9496 N.am    1  UNL1       -0.2901
     12 C           4.7556   -0.6639   27.5098 C.2     1  UNL1        0.3058
     13 O           3.8047   -1.7521   27.9122 O.2     1  UNL1       -0.2524
     14 N           4.3596    0.7742   27.6676 N.am    1  UNL1       -0.2485
     15 H           6.7263   -0.2998   26.6855 H       1  UNL1        0.1509
     16 H           4.9837    1.4884   27.4036 H       1  UNL1        0.1583
     17 C           3.0129    1.1242   28.2278 C.ar    1  UNL1        0.1664
     18 N           2.7546    1.8440   29.5183 N.ar    1  UNL1       -0.2282
     19 C           1.2701    1.9805   29.6839 C.ar    1  UNL1        0.0701
     20 C           0.5680    2.6371   30.8354 C.3     1  UNL1        0.0528
     21 C           0.6107    1.3450   28.4958 C.ar    1  UNL1        0.0803
     22 S           1.6879    0.8158   27.5959 S.2     1  UNL1       -0.0488
     23 C          -0.8663    1.2546   28.2506 C.2     1  UNL1        0.1807
     24 C          -1.6910    0.2509   29.0007 C.3     1  UNL1        0.0779
     25 O          -1.5187    2.1679   27.2554 O.2     1  UNL1       -0.2908
     26 C           9.5123   -9.5347   27.6113 C.3     1  UNL1        0.0230
     27 C           8.0958   -9.1141   27.3532 C.3     1  UNL1        0.0910
     28 C           6.8666   -2.0715   24.2482 C.3     1  UNL1        0.0754
     29 N           6.6742   -2.6404   22.8737 N.3     1  UNL1       -0.2726
     30 C           7.8433   -3.2131   22.1286 C.3     1  UNL1        0.0721
     31 C           7.6508   -3.7820   20.7540 C.3     1  UNL1        0.0174
     32 C           6.2893   -3.7781   20.1246 C.3     1  UNL1        0.0031
     33 C           5.1202   -3.2053   20.8697 C.3     1  UNL1        0.0204
     34 C           5.3126   -2.6365   22.2442 C.3     1  UNL1        0.0724
     35 C           3.7587   -3.2014   20.2402 C.3     1  UNL1        0.0277
     36 C           3.1957   -1.9295   19.6787 C.ar    1  UNL1       -0.0220
     37 C           3.7864   -1.3322   18.4360 C.ar    1  UNL1       -0.0020
     38 C           3.2234   -0.0603   17.8744 C.ar    1  UNL1        0.0293
     39 C           2.0698    0.6143   18.5556 C.ar    1  UNL1        0.1401
     40 F           1.5067    1.8862   17.9940 F       1  UNL1       -0.2042
     41 C           1.4791    0.0170   19.7983 C.ar    1  UNL1        0.0293
     42 C           2.0421   -1.2549   20.3598 C.ar    1  UNL1       -0.0020
@<TRIPOS>BOND
     1    26    27    1
     2    27     1    1
     3     1     2   am
     4     2     3    2
     5     2     4   am
     6     4     5    1
     7     5     6    1
     8     6     7    1
     9     7    11    1
    10    11    12   am
    11    12    13    2
    12    12    14   am
    13    14    17    1
    14    17    18   ar
    15    18    19   ar
    16    19    20    1
    17    19    21   ar
    18    21    23    1
    19    23    24    1
    20    23    25    2
    21    21    22   ar
    22     7     8    1
    23     8    28    1
    24    28    29    1
    25    29    30    1
    26    30    31    1
    27    31    32    1
    28    32    33    1
    29    33    35    1
    30    35    36    1
    31    36    37   ar
    32    37    38   ar
    33    38    39   ar
    34    39    40    1
    35    39    41   ar
    36    41    42   ar
    37    33    34    1
    38     8     9    1
    39     9     4    1
    40    22    17   ar
    41    34    29    1
    42    42    36   ar
    43     1    10    1
    44    11    15    1
    45    14    16    1
@<TRIPOS>MOLECULE
*****
 42 45 0 0 0
SMALL
GASTEIGER

@<TRIPOS>ATOM
      1 N          -2.8718    3.0249   26.8308 N.am    1  UNL1       -0.2888
      2 C          -1.3896    3.0762   26.6066 C.2     1  UNL1        0.3040
      3 O          -0.8073    4.0946   25.6720 O.2     1  UNL1       -0.2526
      4 N          -0.4897    2.1091   27.3171 N.am    1  UNL1       -0.2641
      5 C          -1.0720    1.0906   28.2518 C.3     1  UNL1        0.0966
      6 C          -0.1720    0.1235   28.9623 C.3     1  UNL1        0.0413
      7 C           1.3102    0.1749   28.7381 C.3     1  UNL1        0.0777
      8 C           1.8925    1.1933   27.8035 C.3     1  UNL1        0.0539
      9 C           0.9926    2.1604   27.0930 C.3     1  UNL1        0.0979
     10 H          -3.2540    2.3564   27.4443 H       1  UNL1        0.1510
     11 N           2.2102   -0.7922   29.4486 N.am    1  UNL1       -0.2901
     12 C           2.9273   -0.3711   30.6970 C.2     1  UNL1        0.3058
     13 O           2.7444    1.0172   31.2349 O.2     1  UNL1       -0.2524
     14 N           3.8272   -1.3382   31.4075 N.am    1  UNL1       -0.2485
     15 H           2.3301   -1.7034   29.0956 H       1  UNL1        0.1509
     16 H           3.9472   -2.2494   31.0545 H       1  UNL1        0.1583
     17 C           4.5443   -0.9170   32.6559 C.ar    1  UNL1        0.1664
     18 N           3.9533   -0.8524   34.0330 N.ar    1  UNL1       -0.2282
     19 C           5.0221   -0.3819   34.9745 C.ar    1  UNL1        0.0701
     20 C           4.8666   -0.1740   36.4519 C.3     1  UNL1        0.0528
     21 C           6.2737   -0.1558   34.1792 C.ar    1  UNL1        0.0803
     22 S           5.9784   -0.4865   32.7462 S.2     1  UNL1       -0.0488
     23 C           7.5895    0.3178   34.7217 C.2     1  UNL1        0.1807
     24 C           7.7830    1.7659   35.0618 C.3     1  UNL1        0.0779
     25 O           8.7118   -0.6566   34.9240 O.2     1  UNL1       -0.2908
     26 C          -4.3070    3.6574   24.7595 C.3     1  UNL1        0.0230
     27 C          -3.7718    3.9920   26.1203 C.3     1  UNL1        0.0910
     28 C           3.3748    1.2447   27.5793 C.3     1  UNL1        0.0754
     29 N           4.0679    0.1107   26.8838 N.3     1  UNL1       -0.2726
     30 C           3.5229   -0.4221   25.5919 C.3     1  UNL1        0.0721
     31 C           4.2160   -1.5561   24.8964 C.3     1  UNL1        0.0174
     32 C           5.4541   -2.1573   25.4928 C.3     1  UNL1        0.0031
     33 C           5.9991   -1.6244   26.7847 C.3     1  UNL1        0.0204
     34 C           5.3060   -0.4904   27.4802 C.3     1  UNL1        0.0724
     35 C           7.2372   -2.2255   27.3812 C.3     1  UNL1        0.0277
     36 C           7.1246   -3.2226   28.4962 C.ar    1  UNL1       -0.0220
     37 C           7.1600   -4.6916   28.1951 C.ar    1  UNL1       -0.0020
     38 C           7.0474   -5.6887   29.3100 C.ar    1  UNL1        0.0293
     39 C           6.8995   -5.2167   30.7261 C.ar    1  UNL1        0.1401
     40 F           6.7869   -6.2138   31.8411 F       1  UNL1       -0.2042
     41 C           6.8642   -3.7477   31.0272 C.ar    1  UNL1        0.0293
     42 C           6.9768   -2.7506   29.9123 C.ar    1  UNL1       -0.0020
@<TRIPOS>BOND
     1    26    27    1
     2    27     1    1
     3     1     2   am
     4     2     3    2
     5     2     4   am
     6     4     5    1
     7     5     6    1
     8     6     7    1
     9     7    11    1
    10    11    12   am
    11    12    13    2
    12    12    14   am
    13    14    17    1
    14    17    18   ar
    15    18    19   ar
    16    19    20    1
    17    19    21   ar
    18    21    23    1
    19    23    24    1
    20    23    25    2
    21    21    22   ar
    22     7     8    1
    23     8    28    1
    24    28    29    1
    25    29    30    1
    26    30    31    1
    27    31    32    1
    28    32    33    1
    29    33    35    1
    30    35    36    1
    31    36    37   ar
    32    37    38   ar
    33    38    39   ar
    34    39    40    1
    35    39    41   ar
    36    41    42   ar
    37    33    34    1
    38     8     9    1
    39     9     4    1
    40    22    17   ar
    41    34    29    1
    42    42    36   ar
    43     1    10    1
    44    11    15    1
    45    14    16    1
@<TRIPOS>MOLECULE
*****
 42 45 0 0 0
SMALL
GASTEIGER

@<TRIPOS>ATOM
      1 N           3.1726   -2.3972   19.7570 N.am    1  UNL1       -0.2888
      2 C           3.0439   -1.3348   20.8080 C.2     1  UNL1        0.3040
      3 O           3.6969   -1.5202   22.1456 O.2     1  UNL1       -0.2526
      4 N           2.2623   -0.0871   20.5214 N.am    1  UNL1       -0.2641
      5 C           1.6093    0.0983   19.1838 C.3     1  UNL1        0.0966
      6 C           0.8277    1.3461   18.8972 C.3     1  UNL1        0.0413
      7 C           0.6990    2.4084   19.9482 C.3     1  UNL1        0.0777
      8 C           1.3519    2.2231   21.2859 C.3     1  UNL1        0.0539
      9 C           2.1336    0.9753   21.5724 C.3     1  UNL1        0.0979
     10 H           2.7441   -2.2756   18.8790 H       1  UNL1        0.1510
     11 N          -0.0827    3.6562   19.6617 N.am    1  UNL1       -0.2901
     12 C          -1.5662    3.6791   19.8819 C.2     1  UNL1        0.3058
     13 O          -2.2682    2.4541   20.3888 O.2     1  UNL1       -0.2524
     14 N          -2.3479    4.9268   19.5954 N.am    1  UNL1       -0.2485
     15 H           0.3780    4.4601   19.3290 H       1  UNL1        0.1509
     16 H          -1.8872    5.7308   19.2627 H       1  UNL1        0.1583
     17 C          -3.8315    4.9496   19.8157 C.ar    1  UNL1        0.1664
     18 N          -4.8827    4.8358   18.7518 N.ar    1  UNL1       -0.2282
     19 C          -6.2252    4.9061   19.4171 C.ar    1  UNL1        0.0701
     20 C          -7.5556    4.8320   18.7283 C.3     1  UNL1        0.0528
     21 C          -6.0037    5.0634   20.8924 C.ar    1  UNL1        0.0803
     22 S          -4.5243    5.0903   21.1387 S.2     1  UNL1       -0.0488
     23 C          -7.0737    5.1744   21.9377 C.2     1  UNL1        0.1807
     24 C          -7.1097    4.2029   23.0801 C.3     1  UNL1        0.0779
     25 O          -8.1077    6.2567   21.8407 O.2     1  UNL1       -0.2908
     26 C           4.2374   -4.6224   18.9414 C.3     1  UNL1        0.0230
     27 C           3.9543   -3.6450   20.0435 C.3     1  UNL1        0.0910
     28 C           1.2232    3.2855   22.3370 C.3     1  UNL1        0.0754
     29 N           0.1853    3.1552   23.4119 N.3     1  UNL1       -0.2726
     30 C          -1.1289    3.8654   23.2757 C.3     1  UNL1        0.0721
     31 C          -2.1669    3.7350   24.3507 C.3     1  UNL1        0.0174
     32 C          -1.8907    2.8945   25.5620 C.3     1  UNL1        0.0031
     33 C          -0.5765    2.1843   25.6983 C.3     1  UNL1        0.0204
     34 C           0.4615    2.3146   24.6233 C.3     1  UNL1        0.0724
     35 C          -0.3003    1.3438   26.9095 C.3     1  UNL1        0.0277
     36 C           0.0689    1.9979   28.2080 C.ar    1  UNL1       -0.0220
     37 C           0.4740    3.4419   28.2318 C.ar    1  UNL1       -0.0020
     38 C           0.8432    4.0960   29.5302 C.ar    1  UNL1        0.0293
     39 C           0.8072    3.3060   30.8048 C.ar    1  UNL1        0.1401
     40 F           1.1764    3.9600   32.1033 F       1  UNL1       -0.2042
     41 C           0.4021    1.8619   30.7810 C.ar    1  UNL1        0.0293
     42 C           0.0329    1.2079   29.4826 C.ar    1  UNL1       -0.0020
@<TRIPOS>BOND
     1    26    27    1
     2    27     1    1
     3     1     2   am
     4     2     3    2
     5     2     4   am
     6     4     5    1
     7     5     6    1
     8     6     7    1
     9     7    11    1
    10    11    12   am
    11    12    13    2
    12    12    14   am
    13    14    17    1
    14    17    18   ar
    15    18    19   ar
    16    19    20    1
    17    19    21   ar
    18    21    23    1
    19    23    24    1
    20    23    25    2
    21    21    22   ar
    22     7     8    1
    23     8    28    1
    24    28    29    1
    25    29    30    1
    26    30    31    1
    27    31    32    1
    28    32    33    1
    29    33    35    1
    30    35    36    1
    31    36    37   ar
    32    37    38   ar
    33    38    39   ar
    34    39    40    1
    35    39    41   ar
    36    41    42   ar
    37    33    34    1
    38     8     9    1
    39     9     4    1
    40    22    17   ar
    41    34    29    1
    42    42    36   ar
    43     1    10    1
    44    11    15    1
    45    14    16    1
@<TRIPOS>MOLECULE
*****
 42 45 0 0 0
SMALL
GASTEIGER

@<TRIPOS>ATOM
      1 N           2.5837    1.9845   34.2542 N.am    1  UNL1       -0.2888
      2 C           1.7613    2.3302   33.0484 C.2     1  UNL1        0.3040
      3 O           0.8087    3.4878   33.0970 O.2     1  UNL1       -0.2526
      4 N           1.8915    1.5182   31.7939 N.am    1  UNL1       -0.2641
      5 C           2.8441    0.3606   31.7452 C.3     1  UNL1        0.0966
      6 C           2.9742   -0.4514   30.4908 C.3     1  UNL1        0.0413
      7 C           2.1518   -0.1058   29.2849 C.3     1  UNL1        0.0777
      8 C           1.1992    1.0518   29.3335 C.3     1  UNL1        0.0539
      9 C           1.0691    1.8638   30.5880 C.3     1  UNL1        0.0979
     10 H           3.2089    1.2247   34.2223 H       1  UNL1        0.1510
     11 N           2.2820   -0.9178   28.0304 N.am    1  UNL1       -0.2901
     12 C           3.5245   -0.8155   27.1964 C.2     1  UNL1        0.3058
     13 O           4.6369    0.0989   27.6167 O.2     1  UNL1       -0.2524
     14 N           3.6547   -1.6275   25.9419 N.am    1  UNL1       -0.2485
     15 H           1.5519   -1.5179   27.7545 H       1  UNL1        0.1509
     16 H           2.9246   -2.2276   25.6659 H       1  UNL1        0.1583
     17 C           4.8972   -1.5251   25.1078 C.ar    1  UNL1        0.1664
     18 N           5.4422   -0.2728   24.4877 N.ar    1  UNL1       -0.2282
     19 C           6.6947   -0.6308   23.7440 C.ar    1  UNL1        0.0701
     20 C           7.5653    0.3182   22.9749 C.3     1  UNL1        0.0528
     21 C           6.9239   -2.1046   23.9046 C.ar    1  UNL1        0.0803
     22 S           5.8129   -2.6572   24.7474 S.2     1  UNL1       -0.0488
     23 C           8.0637   -2.8880   23.3242 C.2     1  UNL1        0.1807
     24 C           9.0588   -3.5484   24.2317 C.3     1  UNL1        0.0779
     25 O           8.2085   -3.0110   21.8362 O.2     1  UNL1       -0.2908
     26 C           2.8294    2.1981   36.8318 C.3     1  UNL1        0.0230
     27 C           2.4535    2.7965   35.5087 C.3     1  UNL1        0.0910
     28 C           0.3768    1.3975   28.1277 C.3     1  UNL1        0.0754
     29 N           1.0510    1.8171   26.8551 N.3     1  UNL1       -0.2726
     30 C           2.2962    2.6518   26.9060 C.3     1  UNL1        0.0721
     31 C           2.9705    3.0713   25.6334 C.3     1  UNL1        0.0174
     32 C           2.3994    2.6562   24.3100 C.3     1  UNL1        0.0031
     33 C           1.1542    1.8215   24.2591 C.3     1  UNL1        0.0204
     34 C           0.4799    1.4019   25.5316 C.3     1  UNL1        0.0724
     35 C           0.5831    1.4063   22.9357 C.3     1  UNL1        0.0277
     36 C           1.3425    0.4584   22.0553 C.ar    1  UNL1       -0.0220
     37 C           2.4918   -0.3268   22.6142 C.ar    1  UNL1       -0.0020
     38 C           3.2512   -1.2746   21.7339 C.ar    1  UNL1        0.0293
     39 C           2.8612   -1.4372   20.2946 C.ar    1  UNL1        0.1401
     40 F           3.6205   -2.3850   19.4142 F       1  UNL1       -0.2042
     41 C           1.7118   -0.6519   19.7357 C.ar    1  UNL1        0.0293
     42 C           0.9525    0.2959   20.6160 C.ar    1  UNL1       -0.0020
@<TRIPOS>BOND
     1    26    27    1
     2    27     1    1
     3     1     2   am
     4     2     3    2
     5     2     4   am
     6     4     5    1
     7     5     6    1
     8     6     7    1
     9     7    11    1
    10    11    12   am
    11    12    13    2
    12    12    14   am
    13    14    17    1
    14    17    18   ar
    15    18    19   ar
    16    19    20    1
    17    19    21   ar
    18    21    23    1
    19    23    24    1
    20    23    25    2
    21    21    22   ar
    22     7     8    1
    23     8    28    1
    24    28    29    1
    25    29    30    1
    26    30    31    1
    27    31    32    1
    28    32    33    1
    29    33    35    1
    30    35    36    1
    31    36    37   ar
    32    37    38   ar
    33    38    39   ar
    34    39    40    1
    35    39    41   ar
    36    41    42   ar
    37    33    34    1
    38     8     9    1
    39     9     4    1
    40    22    17   ar
    41    34    29    1
    42    42    36   ar
    43     1    10    1
    44    11    15    1
    45    14    16    1
@<TRIPOS>MOLECULE
*****
 42 45 0 0 0
SMALL
GASTEIGER

@<TRIPOS>ATOM
      1 N           3.4382   -2.4622   19.5343 N.am    1  UNL1       -0.2888
      2 C           3.3625   -1.1979   18.7307 C.2     1  UNL1        0.3040
      3 O           3.9061   -1.1639   17.3331 O.2     1  UNL1       -0.2526
      4 N           2.7432    0.0324   19.3246 N.am    1  UNL1       -0.2641
      5 C           2.1995   -0.0016   20.7222 C.3     1  UNL1        0.0966
      6 C           1.5802    1.2287   21.3162 C.3     1  UNL1        0.0413
      7 C           1.5045    2.4930   20.5125 C.3     1  UNL1        0.0777
      8 C           2.0481    2.5270   19.1150 C.3     1  UNL1        0.0539
      9 C           2.6675    1.2967   18.5210 C.3     1  UNL1        0.0979
     10 H           3.0814   -2.4845   20.4516 H       1  UNL1        0.1510
     11 N           0.8851    3.7233   21.1065 N.am    1  UNL1       -0.2901
     12 C          -0.5948    3.7778   21.3445 C.2     1  UNL1        0.3058
     13 O          -1.4555    2.6020   20.9885 O.2     1  UNL1       -0.2524
     14 N          -1.2142    5.0081   21.9384 N.am    1  UNL1       -0.2485
     15 H           1.4500    4.4950   21.3402 H       1  UNL1        0.1509
     16 H          -0.6493    5.7798   22.1721 H       1  UNL1        0.1583
     17 C          -2.6942    5.0626   22.1764 C.ar    1  UNL1        0.1664
     18 N          -3.4454    4.3102   23.2345 N.ar    1  UNL1       -0.2282
     19 C          -4.8983    4.6616   23.1100 C.ar    1  UNL1        0.0701
     20 C          -6.0094    4.1358   23.9697 C.3     1  UNL1        0.0528
     21 C          -5.0451    5.6312   21.9749 C.ar    1  UNL1        0.0803
     22 S          -3.6829    5.8790   21.3979 S.2     1  UNL1       -0.0488
     23 C          -6.3287    6.2451   21.5002 C.2     1  UNL1        0.1807
     24 C          -6.3025    7.5138   20.7003 C.3     1  UNL1        0.0779
     25 O          -7.6386    5.5904   21.8253 O.2     1  UNL1       -0.2908
     26 C           3.6451   -5.0498   19.4278 C.3     1  UNL1        0.0230
     27 C           4.0575   -3.6925   18.9404 C.3     1  UNL1        0.0910
     28 C           1.9724    3.7913   18.3113 C.3     1  UNL1        0.0754
     29 N           0.6632    4.5080   18.1622 N.3     1  UNL1       -0.2726
     30 C           0.5360    5.9366   18.6014 C.3     1  UNL1        0.0721
     31 C          -0.7733    6.6533   18.4524 C.3     1  UNL1        0.0174
     32 C          -1.9552    5.9414   17.8641 C.3     1  UNL1        0.0031
     33 C          -1.8280    4.5128   17.4249 C.3     1  UNL1        0.0204
     34 C          -0.5188    3.7961   17.5739 C.3     1  UNL1        0.0724
     35 C          -3.0100    3.8009   16.8366 C.3     1  UNL1        0.0277
     36 C          -4.3951    4.1292   17.3099 C.ar    1  UNL1       -0.0220
     37 C          -4.9550    3.4458   18.5222 C.ar    1  UNL1       -0.0020
     38 C          -6.3400    3.7740   18.9955 C.ar    1  UNL1        0.0293
     39 C          -7.1650    4.7856   18.2566 C.ar    1  UNL1        0.1401
     40 F          -8.5501    5.1138   18.7298 F       1  UNL1       -0.2042
     41 C          -6.6051    5.4689   17.0443 C.ar    1  UNL1        0.0293
     42 C          -5.2201    5.1407   16.5710 C.ar    1  UNL1       -0.0020
@<TRIPOS>BOND
     1    26    27    1
     2    27     1    1
     3     1     2   am
     4     2     3    2
     5     2     4   am
     6     4     5    1
     7     5     6    1
     8     6     7    1
     9     7    11    1
    10    11    12   am
    11    12    13    2
    12    12    14   am
    13    14    17    1
    14    17    18   ar
    15    18    19   ar
    16    19    20    1
    17    19    21   ar
    18    21    23    1
    19    23    24    1
    20    23    25    2
    21    21    22   ar
    22     7     8    1
    23     8    28    1
    24    28    29    1
    25    29    30    1
    26    30    31    1
    27    31    32    1
    28    32    33    1
    29    33    35    1
    30    35    36    1
    31    36    37   ar
    32    37    38   ar
    33    38    39   ar
    34    39    40    1
    35    39    41   ar
    36    41    42   ar
    37    33    34    1
    38     8     9    1
    39     9     4    1
    40    22    17   ar
    41    34    29    1
    42    42    36   ar
    43     1    10    1
    44    11    15    1
    45    14    16    1
@<TRIPOS>MOLECULE
*****
 42 45 0 0 0
SMALL
GASTEIGER

@<TRIPOS>ATOM
      1 N          -4.6081    4.7391   17.9628 N.am    1  UNL1       -0.2888
      2 C          -3.7248    4.8134   19.1728 C.2     1  UNL1        0.3040
      3 O          -4.2528    5.3908   20.4525 O.2     1  UNL1       -0.2526
      4 N          -2.3134    4.3102   19.1031 N.am    1  UNL1       -0.2641
      5 C          -1.7854    3.7327   17.8234 C.3     1  UNL1        0.0966
      6 C          -0.3740    3.2295   17.7537 C.3     1  UNL1        0.0413
      7 C           0.5093    3.3037   18.9637 C.3     1  UNL1        0.0777
      8 C          -0.0187    3.8812   20.2434 C.3     1  UNL1        0.0539
      9 C          -1.4301    4.3844   20.3131 C.3     1  UNL1        0.0979
     10 H          -4.2616    4.3601   17.1229 H       1  UNL1        0.1510
     11 N           1.9207    2.8005   18.8940 N.am    1  UNL1       -0.2901
     12 C           2.2247    1.3709   19.2312 C.2     1  UNL1        0.3058
     13 O           1.1174    0.4444   19.6381 O.2     1  UNL1       -0.2524
     14 N           3.6361    0.8677   19.1615 N.am    1  UNL1       -0.2485
     15 H           2.6474    3.4086   18.6269 H       1  UNL1        0.1509
     16 H           4.3628    1.4758   18.8944 H       1  UNL1        0.1583
     17 C           3.9401   -0.5620   19.4987 C.ar    1  UNL1        0.1664
     18 N           3.5776   -1.7593   18.6711 N.ar    1  UNL1       -0.2282
     19 C           4.0735   -2.9826   19.3836 C.ar    1  UNL1        0.0701
     20 C           3.9263   -4.3986   18.9111 C.3     1  UNL1        0.0528
     21 C           4.7424   -2.5413   20.6516 C.ar    1  UNL1        0.0803
     22 S           4.6599   -1.0452   20.7227 S.2     1  UNL1       -0.0488
     23 C           5.3815   -3.4384   21.6697 C.2     1  UNL1        0.1807
     24 C           4.9047   -3.4183   23.0918 C.3     1  UNL1        0.0779
     25 O           6.4975   -4.3558   21.2658 O.2     1  UNL1       -0.2908
     26 C          -6.3006    6.7090   17.8910 C.3     1  UNL1        0.0230
     27 C          -6.0195    5.2423   18.0325 C.3     1  UNL1        0.0910
     28 C           0.8647    3.9555   21.4535 C.3     1  UNL1        0.0754
     29 N           0.5320    3.1516   22.6754 N.3     1  UNL1       -0.2726
     30 C           1.1224    1.7847   22.8575 C.3     1  UNL1        0.0721
     31 C           0.7897    0.9808   24.0794 C.3     1  UNL1        0.0174
     32 C          -0.1333    1.5438   25.1192 C.3     1  UNL1        0.0031
     33 C          -0.7236    2.9106   24.9371 C.3     1  UNL1        0.0204
     34 C          -0.3910    3.7145   23.7152 C.3     1  UNL1        0.0724
     35 C          -1.6465    3.4736   25.9769 C.3     1  UNL1        0.0277
     36 C          -3.0698    3.7900   25.6242 C.ar    1  UNL1       -0.0220
     37 C          -3.6393    3.3263   24.3163 C.ar    1  UNL1       -0.0020
     38 C          -5.0624    3.6426   23.9636 C.ar    1  UNL1        0.0293
     39 C          -5.9162    4.4227   24.9188 C.ar    1  UNL1        0.1401
     40 F          -7.3394    4.7391   24.5662 F       1  UNL1       -0.2042
     41 C          -5.3467    4.8865   26.2268 C.ar    1  UNL1        0.0293
     42 C          -3.9235    4.5701   26.5795 C.ar    1  UNL1       -0.0020
@<TRIPOS>BOND
     1    26    27    1
     2    27     1    1
     3     1     2   am
     4     2     3    2
     5     2     4   am
     6     4     5    1
     7     5     6    1
     8     6     7    1
     9     7    11    1
    10    11    12   am
    11    12    13    2
    12    12    14   am
    13    14    17    1
    14    17    18   ar
    15    18    19   ar
    16    19    20    1
    17    19    21   ar
    18    21    23    1
    19    23    24    1
    20    23    25    2
    21    21    22   ar
    22     7     8    1
    23     8    28    1
    24    28    29    1
    25    29    30    1
    26    30    31    1
    27    31    32    1
    28    32    33    1
    29    33    35    1
    30    35    36    1
    31    36    37   ar
    32    37    38   ar
    33    38    39   ar
    34    39    40    1
    35    39    41   ar
    36    41    42   ar
    37    33    34    1
    38     8     9    1
    39     9     4    1
    40    22    17   ar
    41    34    29    1
    42    42    36   ar
    43     1    10    1
    44    11    15    1
    45    14    16    1
@<TRIPOS>MOLECULE
*****
 42 45 0 0 0
SMALL
GASTEIGER

@<TRIPOS>ATOM
      1 N           2.7263    1.4244   30.9786 N.am    1  UNL1       -0.2888
      2 C           1.6541    1.2902   29.9382 C.2     1  UNL1        0.3040
      3 O           0.2418    0.9980   30.3501 O.2     1  UNL1       -0.2526
      4 N           1.9944    1.4482   28.4859 N.am    1  UNL1       -0.2641
      5 C           3.4068    1.7404   28.0739 C.3     1  UNL1        0.0966
      6 C           3.7471    1.8984   26.6216 C.3     1  UNL1        0.0413
      7 C           2.6750    1.7642   25.5812 C.3     1  UNL1        0.0777
      8 C           1.2626    1.4720   25.9931 C.3     1  UNL1        0.0539
      9 C           0.9223    1.3140   27.4455 C.3     1  UNL1        0.0979
     10 H           3.6533    1.6161   30.7083 H       1  UNL1        0.1510
     11 N           3.0152    1.9222   24.1289 N.am    1  UNL1       -0.2901
     12 C           3.4924    0.7407   23.3375 C.2     1  UNL1        0.3058
     13 O           3.6293   -0.5989   23.9985 O.2     1  UNL1       -0.2524
     14 N           3.8326    0.8988   21.8852 N.am    1  UNL1       -0.2485
     15 H           2.9254    2.8014   23.6951 H       1  UNL1        0.1509
     16 H           3.7428    1.7779   21.4514 H       1  UNL1        0.1583
     17 C           4.3098   -0.2829   21.0938 C.ar    1  UNL1        0.1664
     18 N           3.5065   -1.5060   20.7646 N.ar    1  UNL1       -0.2282
     19 C           4.3742   -2.4278   19.9600 C.ar    1  UNL1        0.0701
     20 C           3.9728   -3.7679   19.4185 C.3     1  UNL1        0.0528
     21 C           5.7140   -1.7743   19.7920 C.ar    1  UNL1        0.0803
     22 S           5.6741   -0.4486   20.4927 S.2     1  UNL1       -0.0488
     23 C           6.8874   -2.3460   19.0531 C.2     1  UNL1        0.1807
     24 C           8.0172   -2.9762   19.8124 C.3     1  UNL1        0.0779
     25 O           6.9311   -2.2877   17.5548 O.2     1  UNL1       -0.2908
     26 C           2.7491    2.3451   33.4080 C.3     1  UNL1        0.0230
     27 C           2.3860    1.2664   32.4309 C.3     1  UNL1        0.0910
     28 C           0.1903    1.3378   24.9527 C.3     1  UNL1        0.0754
     29 N          -0.0187    2.4300   23.9460 N.3     1  UNL1       -0.2726
     30 C          -0.2152    3.8447   24.4041 C.3     1  UNL1        0.0721
     31 C          -0.4243    4.9369   23.3973 C.3     1  UNL1        0.0174
     32 C          -0.4369    4.6142   21.9325 C.3     1  UNL1        0.0031
     33 C          -0.2404    3.1995   21.4744 C.3     1  UNL1        0.0204
     34 C          -0.0313    2.1074   22.4811 C.3     1  UNL1        0.0724
     35 C          -0.2529    2.8768   20.0096 C.3     1  UNL1        0.0277
     36 C           0.9708    2.3053   19.3569 C.ar    1  UNL1       -0.0220
     37 C           2.2251    3.1233   19.2687 C.ar    1  UNL1       -0.0020
     38 C           3.4488    2.5519   18.6161 C.ar    1  UNL1        0.0293
     39 C           3.4183    1.1625   18.0517 C.ar    1  UNL1        0.1401
     40 F           4.6420    0.5910   17.3990 F       1  UNL1       -0.2042
     41 C           2.1640    0.3445   18.1399 C.ar    1  UNL1        0.0293
     42 C           0.9403    0.9159   18.7925 C.ar    1  UNL1       -0.0020
@<TRIPOS>BOND
     1    26    27    1
     2    27     1    1
     3     1     2   am
     4     2     3    2
     5     2     4   am
     6     4     5    1
     7     5     6    1
     8     6     7    1
     9     7    11    1
    10    11    12   am
    11    12    13    2
    12    12    14   am
    13    14    17    1
    14    17    18   ar
    15    18    19   ar
    16    19    20    1
    17    19    21   ar
    18    21    23    1
    19    23    24    1
    20    23    25    2
    21    21    22   ar
    22     7     8    1
    23     8    28    1
    24    28    29    1
    25    29    30    1
    26    30    31    1
    27    31    32    1
    28    32    33    1
    29    33    35    1
    30    35    36    1
    31    36    37   ar
    32    37    38   ar
    33    38    39   ar
    34    39    40    1
    35    39    41   ar
    36    41    42   ar
    37    33    34    1
    38     8     9    1
    39     9     4    1
    40    22    17   ar
    41    34    29    1
    42    42    36   ar
    43     1    10    1
    44    11    15    1
    45    14    16    1
