@<TRIPOS>MOLECULE
*****
 28 30 0 0 0
SMALL
GASTEIGER

@<TRIPOS>ATOM
      1 C          -9.1473  -16.4314   23.7593 C.3     1  UNL1        0.2157
      2 O          -9.8528  -15.1923   24.2249 O.3     1  UNL1       -0.3697
      3 H          -9.2919  -14.7202   24.8601 H       1  UNL1        0.2117
      4 C          -7.9779  -16.0952   24.6367 C.ar    1  UNL1        0.0159
      5 C          -8.1261  -16.1278   26.1289 C.ar    1  UNL1       -0.0012
      6 C          -6.9568  -15.7917   27.0062 C.ar    1  UNL1       -0.0002
      7 C          -5.6393  -15.4229   26.3912 C.ar    1  UNL1       -0.0000
      8 C          -5.4911  -15.3903   24.8989 C.ar    1  UNL1       -0.0002
      9 C          -6.6605  -15.7265   24.0216 C.ar    1  UNL1       -0.0012
     10 C         -10.3166  -16.7675   22.8820 C.ar    1  UNL1        0.0159
     11 C         -11.4773  -17.5359   23.4411 C.ar    1  UNL1       -0.0012
     12 C         -12.6467  -17.8720   22.5638 C.ar    1  UNL1       -0.0002
     13 C         -12.6554  -17.4398   21.1275 C.ar    1  UNL1       -0.0000
     14 C         -11.4947  -16.6715   20.5684 C.ar    1  UNL1       -0.0002
     15 C         -10.3253  -16.3353   21.4457 C.ar    1  UNL1       -0.0012
     16 C          -8.4418  -17.6705   23.2937 C.2     1  UNL1        0.3496
     17 O          -8.7988  -19.0031   23.8829 O.2     1  UNL1       -0.2468
     18 O          -7.3794  -17.5773   22.2390 O.3     1  UNL1       -0.4399
     19 C          -6.5846  -18.7934   21.8654 C.3     1  UNL1        0.2689
     20 C          -5.1476  -18.9068   22.2803 C.3     1  UNL1        0.1567
     21 N          -4.0576  -18.5445   21.3157 N.4     1  UNL1        0.2998
     22 C          -3.6963  -17.6507   22.4647 C.3     1  UNL1        0.1086
     23 C          -2.5018  -16.7486   22.3663 C.3     1  UNL1        0.0612
     24 C          -1.6687  -16.7405   21.1190 C.3     1  UNL1        0.0122
     25 C          -2.0301  -17.6344   19.9699 C.3     1  UNL1        0.0612
     26 C          -3.2246  -18.5365   20.0683 C.3     1  UNL1        0.1086
     27 C          -4.0590  -20.7230   19.8999 C.3     1  UNL1        0.0671
     28 C          -4.7976  -19.5643   20.5017 C.3     1  UNL1        0.1088
@<TRIPOS>UNITY_ATOM_ATTR
21 1
charge 1
@<TRIPOS>BOND
     1    27    28    1
     2    28    21    1
     3    21    20    1
     4    20    19    1
     5    19    18    1
     6    18    16    1
     7    16    17    2
     8    16     1    1
     9     1     2    1
    10     1     4    1
    11     4     5   ar
    12     5     6   ar
    13     6     7   ar
    14     7     8   ar
    15     8     9   ar
    16     1    10    1
    17    10    11   ar
    18    11    12   ar
    19    12    13   ar
    20    13    14   ar
    21    14    15   ar
    22    21    22    1
    23    22    23    1
    24    23    24    1
    25    24    25    1
    26    25    26    1
    27    26    21    1
    28     9     4   ar
    29    15    10   ar
    30     2     3    1
@<TRIPOS>MOLECULE
*****
 28 30 0 0 0
SMALL
GASTEIGER

@<TRIPOS>ATOM
      1 C          -9.1469  -16.4283   23.7896 C.3     1  UNL1        0.2157
      2 O          -9.8565  -15.1888   24.2481 O.3     1  UNL1       -0.3697
      3 H         -10.7208  -15.1310   23.8118 H       1  UNL1        0.2117
      4 C         -10.3138  -16.7715   22.9118 C.ar    1  UNL1        0.0159
      5 C         -10.2958  -16.3965   21.4596 C.ar    1  UNL1       -0.0012
      6 C         -11.4627  -16.7398   20.5818 C.ar    1  UNL1       -0.0002
      7 C         -12.6476  -17.4581   21.1563 C.ar    1  UNL1       -0.0000
      8 C         -12.6657  -17.8330   22.6086 C.ar    1  UNL1       -0.0002
      9 C         -11.4988  -17.4898   23.4863 C.ar    1  UNL1       -0.0012
     10 C          -7.9800  -16.0850   24.6674 C.ar    1  UNL1        0.0159
     11 C          -8.1190  -16.1509   26.1596 C.ar    1  UNL1       -0.0012
     12 C          -6.9521  -15.8076   27.0373 C.ar    1  UNL1       -0.0002
     13 C          -5.6463  -15.3984   26.4231 C.ar    1  UNL1       -0.0000
     14 C          -5.5073  -15.3325   24.9310 C.ar    1  UNL1       -0.0002
     15 C          -6.6742  -15.6757   24.0531 C.ar    1  UNL1       -0.0012
     16 C          -8.4373  -17.6677   23.3311 C.2     1  UNL1        0.3496
     17 O          -8.8313  -19.0054   23.8838 O.2     1  UNL1       -0.2468
     18 O          -7.3338  -17.5695   22.3199 O.3     1  UNL1       -0.4399
     19 C          -6.5666  -18.7967   21.9255 C.3     1  UNL1        0.2689
     20 C          -5.1192  -18.9278   22.2967 C.3     1  UNL1        0.1567
     21 N          -4.0546  -18.5526   21.3089 N.4     1  UNL1        0.2998
     22 C          -3.6626  -17.6748   22.4603 C.3     1  UNL1        0.1086
     23 C          -2.4704  -16.7719   22.3431 C.3     1  UNL1        0.0612
     24 C          -1.6704  -16.7468   21.0745 C.3     1  UNL1        0.0122
     25 C          -2.0624  -17.6246   19.9231 C.3     1  UNL1        0.0612
     26 C          -3.2546  -18.5275   20.0403 C.3     1  UNL1        0.1086
     27 C          -4.1023  -20.7363   19.9020 C.3     1  UNL1        0.0671
     28 C          -4.8164  -19.5607   20.5005 C.3     1  UNL1        0.1088
@<TRIPOS>UNITY_ATOM_ATTR
21 1
charge 1
@<TRIPOS>BOND
     1    27    28    1
     2    28    21    1
     3    21    20    1
     4    20    19    1
     5    19    18    1
     6    18    16    1
     7    16    17    2
     8    16     1    1
     9     1     2    1
    10     1     4    1
    11     4     5   ar
    12     5     6   ar
    13     6     7   ar
    14     7     8   ar
    15     8     9   ar
    16     1    10    1
    17    10    11   ar
    18    11    12   ar
    19    12    13   ar
    20    13    14   ar
    21    14    15   ar
    22    21    22    1
    23    22    23    1
    24    23    24    1
    25    24    25    1
    26    25    26    1
    27    26    21    1
    28     9     4   ar
    29    15    10   ar
    30     2     3    1
@<TRIPOS>MOLECULE
*****
 28 30 0 0 0
SMALL
GASTEIGER

@<TRIPOS>ATOM
      1 C          -9.4724  -17.3341   23.2356 C.3     1  UNL1        0.2157
      2 O         -10.8464  -17.3139   23.8371 O.3     1  UNL1       -0.3697
      3 H         -10.7936  -16.9997   24.7532 H       1  UNL1        0.2117
      4 C          -8.9002  -16.8258   24.5257 C.ar    1  UNL1        0.0159
      5 C          -8.0098  -15.6187   24.5272 C.ar    1  UNL1       -0.0012
      6 C          -7.4377  -15.1105   25.8173 C.ar    1  UNL1       -0.0002
      7 C          -7.7559  -15.8094   27.1058 C.ar    1  UNL1       -0.0000
      8 C          -8.6463  -17.0165   27.1043 C.ar    1  UNL1       -0.0002
      9 C          -9.2184  -17.5247   25.8142 C.ar    1  UNL1       -0.0012
     10 C         -10.0446  -17.8424   21.9456 C.ar    1  UNL1        0.0159
     11 C         -10.7468  -16.8998   21.0135 C.ar    1  UNL1       -0.0012
     12 C         -11.3190  -17.4080   19.7235 C.ar    1  UNL1       -0.0002
     13 C         -11.1891  -18.8589   19.3654 C.ar    1  UNL1       -0.0000
     14 C         -10.4870  -19.8015   20.2974 C.ar    1  UNL1       -0.0002
     15 C          -9.9148  -19.2932   21.5875 C.ar    1  UNL1       -0.0012
     16 C          -8.0985  -17.3543   22.6341 C.2     1  UNL1        0.3496
     17 O          -7.6836  -16.2780   21.6752 O.2     1  UNL1       -0.2468
     18 O          -7.1393  -18.4508   22.9914 O.3     1  UNL1       -0.4399
     19 C          -6.1700  -18.9626   21.9674 C.3     1  UNL1        0.2689
     20 C          -4.7504  -19.2511   22.3568 C.3     1  UNL1        0.1567
     21 N          -3.6615  -18.2865   21.9910 N.4     1  UNL1        0.2998
     22 C          -3.8366  -18.9916   20.6788 C.3     1  UNL1        0.1086
     23 C          -2.9932  -18.6035   19.5005 C.3     1  UNL1        0.0612
     24 C          -1.9749  -17.5103   19.6345 C.3     1  UNL1        0.0122
     25 C          -1.7998  -16.8052   20.9469 C.3     1  UNL1        0.0612
     26 C          -2.6432  -17.1933   22.1252 C.3     1  UNL1        0.1086
     27 C          -4.3627  -16.5478   23.7898 C.3     1  UNL1        0.0671
     28 C          -3.8647  -17.9164   23.4304 C.3     1  UNL1        0.1088
@<TRIPOS>UNITY_ATOM_ATTR
21 1
charge 1
@<TRIPOS>BOND
     1    27    28    1
     2    28    21    1
     3    21    20    1
     4    20    19    1
     5    19    18    1
     6    18    16    1
     7    16    17    2
     8    16     1    1
     9     1     2    1
    10     1     4    1
    11     4     5   ar
    12     5     6   ar
    13     6     7   ar
    14     7     8   ar
    15     8     9   ar
    16     1    10    1
    17    10    11   ar
    18    11    12   ar
    19    12    13   ar
    20    13    14   ar
    21    14    15   ar
    22    21    22    1
    23    22    23    1
    24    23    24    1
    25    24    25    1
    26    25    26    1
    27    26    21    1
    28     9     4   ar
    29    15    10   ar
    30     2     3    1
@<TRIPOS>MOLECULE
*****
 28 30 0 0 0
SMALL
GASTEIGER

@<TRIPOS>ATOM
      1 C          -9.3779  -17.2594   23.3074 C.3     1  UNL1        0.2157
      2 O         -10.7332  -17.4494   23.9213 O.3     1  UNL1       -0.3697
      3 H         -11.3438  -17.8008   23.2545 H       1  UNL1        0.2117
      4 C          -9.9002  -17.7686   21.9967 C.ar    1  UNL1        0.0159
      5 C          -9.4784  -19.1175   21.4943 C.ar    1  UNL1       -0.0012
      6 C         -10.0007  -19.6267   20.1836 C.ar    1  UNL1       -0.0002
      7 C         -10.9448  -18.7869   19.3753 C.ar    1  UNL1       -0.0000
      8 C         -11.3667  -17.4380   19.8777 C.ar    1  UNL1       -0.0002
      9 C         -10.8444  -16.9288   21.1884 C.ar    1  UNL1       -0.0012
     10 C          -8.8557  -16.7502   24.6181 C.ar    1  UNL1        0.0159
     11 C          -8.0342  -15.4958   24.6618 C.ar    1  UNL1       -0.0012
     12 C          -7.5120  -14.9866   25.9725 C.ar    1  UNL1       -0.0002
     13 C          -7.8111  -15.7317   27.2395 C.ar    1  UNL1       -0.0000
     14 C          -8.6325  -16.9860   27.1958 C.ar    1  UNL1       -0.0002
     15 C          -9.1548  -17.4953   25.8851 C.ar    1  UNL1       -0.0012
     16 C          -8.0225  -17.0693   22.6935 C.2     1  UNL1        0.3496
     17 O          -7.8418  -16.1059   21.5581 O.2     1  UNL1       -0.2468
     18 O          -6.8479  -17.8427   23.2151 O.3     1  UNL1       -0.4399
     19 C          -5.9046  -18.5098   22.2584 C.3     1  UNL1        0.2689
     20 C          -4.4466  -18.6164   22.5943 C.3     1  UNL1        0.1567
     21 N          -3.4199  -18.5712   21.5018 N.4     1  UNL1        0.2998
     22 C          -3.0901  -17.2975   22.2221 C.3     1  UNL1        0.1086
     23 C          -1.9718  -16.4263   21.7314 C.3     1  UNL1        0.0612
     24 C          -1.1835  -16.8289   20.5204 C.3     1  UNL1        0.0122
     25 C          -1.5133  -18.1026   19.8001 C.3     1  UNL1        0.0612
     26 C          -2.6316  -18.9738   20.2908 C.3     1  UNL1        0.1086
     27 C          -3.9215  -20.4727   19.8040 C.3     1  UNL1        0.0671
     28 C          -4.1064  -19.8606   21.1609 C.3     1  UNL1        0.1088
@<TRIPOS>UNITY_ATOM_ATTR
21 1
charge 1
@<TRIPOS>BOND
     1    27    28    1
     2    28    21    1
     3    21    20    1
     4    20    19    1
     5    19    18    1
     6    18    16    1
     7    16    17    2
     8    16     1    1
     9     1     2    1
    10     1     4    1
    11     4     5   ar
    12     5     6   ar
    13     6     7   ar
    14     7     8   ar
    15     8     9   ar
    16     1    10    1
    17    10    11   ar
    18    11    12   ar
    19    12    13   ar
    20    13    14   ar
    21    14    15   ar
    22    21    22    1
    23    22    23    1
    24    23    24    1
    25    24    25    1
    26    25    26    1
    27    26    21    1
    28     9     4   ar
    29    15    10   ar
    30     2     3    1
@<TRIPOS>MOLECULE
*****
 28 30 0 0 0
SMALL
GASTEIGER

@<TRIPOS>ATOM
      1 C          -9.0130  -16.3080   23.6765 C.3     1  UNL1        0.2157
      2 O          -9.8676  -15.6168   24.6972 O.3     1  UNL1       -0.3697
      3 H         -10.8012  -15.7014   24.4479 H       1  UNL1        0.2117
      4 C         -10.2422  -16.6910   22.9068 C.ar    1  UNL1        0.0159
      5 C         -11.1287  -17.7919   23.4087 C.ar    1  UNL1       -0.0012
      6 C         -12.3579  -18.1749   22.6389 C.ar    1  UNL1       -0.0002
      7 C         -12.7005  -17.4569   21.3673 C.ar    1  UNL1       -0.0000
      8 C         -11.8139  -16.3560   20.8653 C.ar    1  UNL1       -0.0002
      9 C         -10.5848  -15.9730   21.6351 C.ar    1  UNL1       -0.0012
     10 C          -7.7839  -15.9249   24.4463 C.ar    1  UNL1        0.0159
     11 C          -7.7993  -15.9522   25.9460 C.ar    1  UNL1       -0.0012
     12 C          -6.5702  -15.5691   26.7157 C.ar    1  UNL1       -0.0002
     13 C          -5.3257  -15.1589   25.9859 C.ar    1  UNL1       -0.0000
     14 C          -5.3102  -15.1316   24.4862 C.ar    1  UNL1       -0.0002
     15 C          -6.5394  -15.5147   23.7164 C.ar    1  UNL1       -0.0012
     16 C          -8.1584  -16.9991   22.6558 C.2     1  UNL1        0.3496
     17 O          -7.7756  -16.2873   21.3921 O.2     1  UNL1       -0.2468
     18 O          -7.6866  -18.4021   22.8987 O.3     1  UNL1       -0.4399
     19 C          -6.6843  -19.0270   21.9739 C.3     1  UNL1        0.2689
     20 C          -5.3160  -19.3787   22.4780 C.3     1  UNL1        0.1567
     21 N          -4.1008  -18.8053   21.8113 N.4     1  UNL1        0.2998
     22 C          -4.6647  -19.6098   20.6778 C.3     1  UNL1        0.1086
     23 C          -3.9639  -19.6306   19.3516 C.3     1  UNL1        0.0612
     24 C          -2.6995  -18.8470   19.1590 C.3     1  UNL1        0.0122
     25 C          -2.1357  -18.0425   20.2926 C.3     1  UNL1        0.0612
     26 C          -2.8364  -18.0216   21.6188 C.3     1  UNL1        0.1086
     27 C          -2.6778  -17.5255   23.5684 C.3     1  UNL1        0.0671
     28 C          -3.9591  -18.1999   23.1765 C.3     1  UNL1        0.1088
@<TRIPOS>UNITY_ATOM_ATTR
21 1
charge 1
@<TRIPOS>BOND
     1    27    28    1
     2    28    21    1
     3    21    20    1
     4    20    19    1
     5    19    18    1
     6    18    16    1
     7    16    17    2
     8    16     1    1
     9     1     2    1
    10     1     4    1
    11     4     5   ar
    12     5     6   ar
    13     6     7   ar
    14     7     8   ar
    15     8     9   ar
    16     1    10    1
    17    10    11   ar
    18    11    12   ar
    19    12    13   ar
    20    13    14   ar
    21    14    15   ar
    22    21    22    1
    23    22    23    1
    24    23    24    1
    25    24    25    1
    26    25    26    1
    27    26    21    1
    28     9     4   ar
    29    15    10   ar
    30     2     3    1
@<TRIPOS>MOLECULE
*****
 28 30 0 0 0
SMALL
GASTEIGER

@<TRIPOS>ATOM
      1 C          -8.8951  -16.6506   23.6083 C.3     1  UNL1        0.2157
      2 O          -9.7286  -16.7245   24.8532 O.3     1  UNL1       -0.3697
      3 H          -9.1983  -16.4420   25.6146 H       1  UNL1        0.2117
      4 C          -7.7305  -16.1611   24.4172 C.ar    1  UNL1        0.0159
      5 C          -6.4175  -15.8813   23.7483 C.ar    1  UNL1       -0.0012
      6 C          -5.2530  -15.3918   24.5571 C.ar    1  UNL1       -0.0002
      7 C          -5.4016  -15.1820   26.0349 C.ar    1  UNL1       -0.0000
      8 C          -6.7147  -15.4618   26.7039 C.ar    1  UNL1       -0.0002
      9 C          -7.8792  -15.9513   25.8950 C.ar    1  UNL1       -0.0012
     10 C         -10.0597  -17.1401   22.7995 C.ar    1  UNL1        0.0159
     11 C         -10.1563  -18.5894   22.4249 C.ar    1  UNL1       -0.0012
     12 C         -11.3209  -19.0789   21.6161 C.ar    1  UNL1       -0.0002
     13 C         -12.3888  -18.1192   21.1819 C.ar    1  UNL1       -0.0000
     14 C         -12.2921  -16.6700   21.5565 C.ar    1  UNL1       -0.0002
     15 C         -11.1276  -16.1804   22.3653 C.ar    1  UNL1       -0.0012
     16 C          -8.0616  -16.5767   22.3634 C.2     1  UNL1        0.3496
     17 O          -8.2176  -15.4177   21.4241 O.2     1  UNL1       -0.2468
     18 O          -7.0721  -17.6619   22.0579 O.3     1  UNL1       -0.4399
     19 C          -7.0265  -18.2712   20.6879 C.3     1  UNL1        0.2689
     20 C          -6.0378  -19.3572   20.3827 C.3     1  UNL1        0.1567
     21 N          -4.6734  -19.3258   21.0049 N.4     1  UNL1        0.2998
     22 C          -4.3403  -18.8482   19.6226 C.3     1  UNL1        0.1086
     23 C          -2.9229  -18.5088   19.2676 C.3     1  UNL1        0.0612
     24 C          -1.8387  -18.6471   20.2948 C.3     1  UNL1        0.0122
     25 C          -2.1718  -19.1247   21.6772 C.3     1  UNL1        0.0612
     26 C          -3.5892  -19.4641   22.0323 C.3     1  UNL1        0.1086
     27 C          -6.2259  -21.1126   22.0760 C.3     1  UNL1        0.0671
     28 C          -5.4804  -19.8143   22.1712 C.3     1  UNL1        0.1088
@<TRIPOS>UNITY_ATOM_ATTR
21 1
charge 1
@<TRIPOS>BOND
     1    27    28    1
     2    28    21    1
     3    21    20    1
     4    20    19    1
     5    19    18    1
     6    18    16    1
     7    16    17    2
     8    16     1    1
     9     1     2    1
    10     1     4    1
    11     4     5   ar
    12     5     6   ar
    13     6     7   ar
    14     7     8   ar
    15     8     9   ar
    16     1    10    1
    17    10    11   ar
    18    11    12   ar
    19    12    13   ar
    20    13    14   ar
    21    14    15   ar
    22    21    22    1
    23    22    23    1
    24    23    24    1
    25    24    25    1
    26    25    26    1
    27    26    21    1
    28     9     4   ar
    29    15    10   ar
    30     2     3    1
@<TRIPOS>MOLECULE
*****
 28 30 0 0 0
SMALL
GASTEIGER

@<TRIPOS>ATOM
      1 C         -10.9764   -3.7221   17.8225 C.3     1  UNL1        0.2157
      2 O          -9.5504   -3.3137   17.5996 O.3     1  UNL1       -0.3697
      3 H          -9.5097   -2.3590   17.4330 H       1  UNL1        0.2117
      4 C         -11.4139   -2.3005   17.6279 C.ar    1  UNL1        0.0159
      5 C         -12.1500   -1.5858   18.7221 C.ar    1  UNL1       -0.0012
      6 C         -12.5874   -0.1643   18.5275 C.ar    1  UNL1       -0.0002
      7 C         -12.2886    0.5426   17.2387 C.ar    1  UNL1       -0.0000
      8 C         -11.5525   -0.1721   16.1445 C.ar    1  UNL1       -0.0002
      9 C         -11.1151   -1.5936   16.3391 C.ar    1  UNL1       -0.0012
     10 C         -10.5390   -5.1436   18.0170 C.ar    1  UNL1        0.0159
     11 C         -11.0019   -6.2076   17.0663 C.ar    1  UNL1       -0.0012
     12 C         -10.5644   -7.6291   17.2609 C.ar    1  UNL1       -0.0002
     13 C          -9.6641   -7.9867   18.4061 C.ar    1  UNL1       -0.0000
     14 C          -9.2012   -6.9228   19.3568 C.ar    1  UNL1       -0.0002
     15 C          -9.6387   -5.5012   19.1623 C.ar    1  UNL1       -0.0012
     16 C         -12.4024   -4.1304   18.0453 C.2     1  UNL1        0.3496
     17 O         -13.3555   -4.1887   16.8884 O.2     1  UNL1       -0.2468
     18 O         -12.8755   -4.4805   19.4250 O.3     1  UNL1       -0.4399
     19 C         -13.5632   -5.7905   19.6723 C.3     1  UNL1        0.2689
     20 C         -14.9768   -5.9937   19.2135 C.3     1  UNL1        0.1567
     21 N         -15.5380   -7.3805   19.1050 N.4     1  UNL1        0.2998
     22 C         -16.7043   -6.6759   19.7320 C.3     1  UNL1        0.1086
     23 C         -17.9591   -7.4356   20.0457 C.3     1  UNL1        0.0612
     24 C         -18.0476   -8.8998   19.7325 C.3     1  UNL1        0.0122
     25 C         -16.8812   -9.6045   19.1055 C.3     1  UNL1        0.0612
     26 C         -15.6264   -8.8447   18.7917 C.3     1  UNL1        0.1086
     27 C         -14.0257   -8.4135   17.2622 C.3     1  UNL1        0.0671
     28 C         -14.1767   -7.6035   18.5157 C.3     1  UNL1        0.1088
@<TRIPOS>UNITY_ATOM_ATTR
21 1
charge 1
@<TRIPOS>BOND
     1    27    28    1
     2    28    21    1
     3    21    20    1
     4    20    19    1
     5    19    18    1
     6    18    16    1
     7    16    17    2
     8    16     1    1
     9     1     2    1
    10     1     4    1
    11     4     5   ar
    12     5     6   ar
    13     6     7   ar
    14     7     8   ar
    15     8     9   ar
    16     1    10    1
    17    10    11   ar
    18    11    12   ar
    19    12    13   ar
    20    13    14   ar
    21    14    15   ar
    22    21    22    1
    23    22    23    1
    24    23    24    1
    25    24    25    1
    26    25    26    1
    27    26    21    1
    28     9     4   ar
    29    15    10   ar
    30     2     3    1
@<TRIPOS>MOLECULE
*****
 28 30 0 0 0
SMALL
GASTEIGER

@<TRIPOS>ATOM
      1 C         -12.8238   -3.0593   18.9607 C.3     1  UNL1        0.2157
      2 O         -12.5691   -2.9335   20.4335 O.3     1  UNL1       -0.3697
      3 H         -12.0251   -3.6788   20.7324 H       1  UNL1        0.2117
      4 C         -12.0214   -4.3263   18.9302 C.ar    1  UNL1        0.0159
      5 C         -12.7171   -5.6551   18.9425 C.ar    1  UNL1       -0.0012
      6 C         -11.9147   -6.9221   18.9121 C.ar    1  UNL1       -0.0002
      7 C         -10.4166   -6.8602   18.8693 C.ar    1  UNL1       -0.0000
      8 C          -9.7209   -5.5314   18.8571 C.ar    1  UNL1       -0.0002
      9 C         -10.5233   -4.2645   18.8875 C.ar    1  UNL1       -0.0012
     10 C         -13.6261   -1.7923   18.9912 C.ar    1  UNL1        0.0159
     11 C         -14.9453   -1.7569   19.7043 C.ar    1  UNL1       -0.0012
     12 C         -15.7477   -0.4900   19.7348 C.ar    1  UNL1       -0.0002
     13 C         -15.2309    0.7417   19.0522 C.ar    1  UNL1       -0.0000
     14 C         -13.9117    0.7063   18.3391 C.ar    1  UNL1       -0.0002
     15 C         -13.1093   -0.5607   18.3085 C.ar    1  UNL1       -0.0012
     16 C         -13.0784   -3.1851   17.4878 C.2     1  UNL1        0.3496
     17 O         -11.9355   -3.1053   16.5196 O.2     1  UNL1       -0.2468
     18 O         -14.4759   -3.3907   16.9832 O.3     1  UNL1       -0.4399
     19 C         -14.8549   -4.6878   16.3320 C.3     1  UNL1        0.2689
     20 C         -16.1202   -5.3867   16.7330 C.3     1  UNL1        0.1567
     21 N         -16.0854   -6.4568   17.7835 N.4     1  UNL1        0.2998
     22 C         -15.2518   -7.1083   16.7202 C.3     1  UNL1        0.1086
     23 C         -14.6771   -8.4748   16.9501 C.3     1  UNL1        0.0612
     24 C         -14.9360   -9.1895   18.2432 C.3     1  UNL1        0.0122
     25 C         -15.7696   -8.5379   19.3064 C.3     1  UNL1        0.0612
     26 C         -16.3443   -7.1715   19.0766 C.3     1  UNL1        0.1086
     27 C         -16.5098   -4.8982   19.8184 C.3     1  UNL1        0.0671
     28 C         -16.9311   -5.4335   18.4819 C.3     1  UNL1        0.1088
@<TRIPOS>UNITY_ATOM_ATTR
21 1
charge 1
@<TRIPOS>BOND
     1    27    28    1
     2    28    21    1
     3    21    20    1
     4    20    19    1
     5    19    18    1
     6    18    16    1
     7    16    17    2
     8    16     1    1
     9     1     2    1
    10     1     4    1
    11     4     5   ar
    12     5     6   ar
    13     6     7   ar
    14     7     8   ar
    15     8     9   ar
    16     1    10    1
    17    10    11   ar
    18    11    12   ar
    19    12    13   ar
    20    13    14   ar
    21    14    15   ar
    22    21    22    1
    23    22    23    1
    24    23    24    1
    25    24    25    1
    26    25    26    1
    27    26    21    1
    28     9     4   ar
    29    15    10   ar
    30     2     3    1
@<TRIPOS>MOLECULE
*****
 28 30 0 0 0
SMALL
GASTEIGER

@<TRIPOS>ATOM
      1 C         -12.8355   -3.0306   18.9448 C.3     1  UNL1        0.2157
      2 O         -12.5585   -2.8946   20.4126 O.3     1  UNL1       -0.3697
      3 H         -12.9836   -2.0901   20.7487 H       1  UNL1        0.2117
      4 C         -13.6307   -1.7591   18.9770 C.ar    1  UNL1        0.0159
      5 C         -14.9520   -1.7186   19.6858 C.ar    1  UNL1       -0.0012
      6 C         -15.7471   -0.4471   19.7180 C.ar    1  UNL1       -0.0002
      7 C         -15.2208    0.7839   19.0415 C.ar    1  UNL1       -0.0000
      8 C         -13.8995    0.7434   18.3328 C.ar    1  UNL1       -0.0002
      9 C         -13.1044   -0.5281   18.3005 C.ar    1  UNL1       -0.0012
     10 C         -12.0404   -4.3021   18.9126 C.ar    1  UNL1        0.0159
     11 C         -12.7434   -5.6271   18.9317 C.ar    1  UNL1       -0.0012
     12 C         -11.9482   -6.8985   18.8995 C.ar    1  UNL1       -0.0002
     13 C         -10.4501   -6.8451   18.8481 C.ar    1  UNL1       -0.0000
     14 C          -9.7470   -5.5202   18.8290 C.ar    1  UNL1       -0.0002
     15 C         -10.5422   -4.2487   18.8612 C.ar    1  UNL1       -0.0012
     16 C         -13.1125   -3.1666   17.4769 C.2     1  UNL1        0.3496
     17 O         -11.9825   -3.1096   16.4919 O.2     1  UNL1       -0.2468
     18 O         -14.5194   -3.3597   16.9938 O.3     1  UNL1       -0.4399
     19 C         -14.9087   -4.6362   16.3090 C.3     1  UNL1        0.2689
     20 C         -16.1593   -5.3560   16.7190 C.3     1  UNL1        0.1567
     21 N         -16.1004   -6.4197   17.7749 N.4     1  UNL1        0.2998
     22 C         -15.2906   -7.0774   16.6972 C.3     1  UNL1        0.1086
     23 C         -14.7102   -8.4422   16.9225 C.3     1  UNL1        0.0612
     24 C         -14.9397   -9.1492   18.2254 C.3     1  UNL1        0.0122
     25 C         -15.7496   -8.4914   19.3031 C.3     1  UNL1        0.0612
     26 C         -16.3300   -7.1266   19.0778 C.3     1  UNL1        0.1086
     27 C         -16.4970   -4.8734   19.8248 C.3     1  UNL1        0.0671
     28 C         -16.9308   -5.3925   18.4859 C.3     1  UNL1        0.1088
@<TRIPOS>UNITY_ATOM_ATTR
21 1
charge 1
@<TRIPOS>BOND
     1    27    28    1
     2    28    21    1
     3    21    20    1
     4    20    19    1
     5    19    18    1
     6    18    16    1
     7    16    17    2
     8    16     1    1
     9     1     2    1
    10     1     4    1
    11     4     5   ar
    12     5     6   ar
    13     6     7   ar
    14     7     8   ar
    15     8     9   ar
    16     1    10    1
    17    10    11   ar
    18    11    12   ar
    19    12    13   ar
    20    13    14   ar
    21    14    15   ar
    22    21    22    1
    23    22    23    1
    24    23    24    1
    25    24    25    1
    26    25    26    1
    27    26    21    1
    28     9     4   ar
    29    15    10   ar
    30     2     3    1
