@<TRIPOS>MOLECULE
*****
 30 32 0 0 0
SMALL
GASTEIGER

@<TRIPOS>ATOM
      1 N          -5.8872  -18.7164   22.3466 N.am    1  UNL1       -0.2904
      2 C          -6.7423  -18.7167   21.1143 C.2     1  UNL1        0.2673
      3 O          -6.1118  -18.5465   19.7639 O.2     1  UNL1       -0.2684
      4 H          -6.3010  -18.8281   23.2329 H       1  UNL1        0.1503
      5 C          -8.2279  -18.8872   21.2322 C.ar    1  UNL1        0.1761
      6 C          -9.0696  -18.4949   22.4102 C.ar    1  UNL1        0.0673
      7 C         -10.4945  -18.8451   22.0990 C.ar    1  UNL1        0.1792
      8 O         -10.5335  -19.4539   20.7286 O.2     1  UNL1       -0.3532
      9 N          -9.1327  -19.4799   20.1929 N.ar    1  UNL1       -0.0723
     10 C         -11.6736  -18.6252   22.9999 C.ar    1  UNL1        0.0647
     11 C         -11.6208  -19.0794   24.4285 C.ar    1  UNL1        0.0054
     12 C         -12.7998  -18.8595   25.3294 C.ar    1  UNL1        0.0002
     13 C         -14.0315  -18.1854   24.8017 C.ar    1  UNL1        0.0023
     14 C         -14.0843  -17.7313   23.3731 C.ar    1  UNL1        0.0297
     15 C         -12.9053  -17.9512   22.4722 C.ar    1  UNL1        0.1431
     16 F         -12.9580  -17.4970   21.0435 F       1  UNL1       -0.2041
     17 C          -4.4016  -18.5460   22.2286 C.3     1  UNL1        0.1945
     18 C          -3.7051  -17.4738   23.0130 C.2     1  UNL1        0.3370
     19 O          -2.3441  -17.7300   23.5892 O.2     1  UNL1       -0.2482
     20 O          -4.3697  -16.1452   23.2211 O.3     1  UNL1       -0.4473
     21 C          -5.0837  -15.8573   24.5086 C.3     1  UNL1        0.2084
     22 C          -7.2803  -15.3660   23.2111 C.3     1  UNL1        0.0038
     23 C          -6.5626  -15.6061   24.5061 C.3     1  UNL1        0.0439
     24 C          -7.3236  -15.5951   25.7986 C.3     1  UNL1        0.0038
     25 C          -3.6125  -19.4477   21.3263 C.3     1  UNL1        0.1386
     26 N          -2.6342  -18.8633   20.3511 N.ar    1  UNL1       -0.3055
     27 C          -2.9782  -18.1551   19.0743 C.ar    1  UNL1        0.0981
     28 C          -1.6966  -17.7385   18.4154 C.ar    1  UNL1        0.1193
     29 N          -0.5605  -18.1892   19.2850 N.ar    1  UNL1       -0.2223
     30 C          -1.1400  -18.8844   20.4813 C.ar    1  UNL1        0.1787
@<TRIPOS>BOND
     1    22    23    1
     2    23    24    1
     3    23    21    1
     4    21    20    1
     5    20    18    1
     6    18    19    2
     7    18    17    1
     8    17    25    1
     9    25    26    1
    10    26    27   ar
    11    27    28   ar
    12    28    29   ar
    13    29    30   ar
    14    17     1    1
    15     1     2   am
    16     2     3    2
    17     2     5    1
    18     5     6   ar
    19     6     7   ar
    20     7    10    1
    21    10    11   ar
    22    11    12   ar
    23    12    13   ar
    24    13    14   ar
    25    14    15   ar
    26    15    16    1
    27     7     8   ar
    28     8     9   ar
    29    30    26   ar
    30     9     5   ar
    31    15    10   ar
    32     1     4    1
@<TRIPOS>MOLECULE
*****
 30 32 0 0 0
SMALL
GASTEIGER

@<TRIPOS>ATOM
      1 N           3.4552   -0.9784   28.1406 N.am    1  UNL1       -0.2904
      2 C           3.5381    0.1709   27.1803 C.2     1  UNL1        0.2673
      3 O           3.9647    1.5246   27.6657 O.2     1  UNL1       -0.2684
      4 H           3.1752   -1.8668   27.8220 H       1  UNL1        0.1503
      5 C           3.1945   -0.0334   25.7345 C.ar    1  UNL1        0.1761
      6 C           3.8184   -1.0398   24.8137 C.ar    1  UNL1        0.0673
      7 C           3.1761   -0.8956   23.4659 C.ar    1  UNL1        0.1792
      8 O           2.1552    0.1999   23.5537 O.2     1  UNL1       -0.3532
      9 N           2.1665    0.7328   24.9558 N.ar    1  UNL1       -0.0723
     10 C           3.4981   -1.7049   22.2446 C.ar    1  UNL1        0.0647
     11 C           2.9757   -1.2801   20.9042 C.ar    1  UNL1        0.0054
     12 C           3.2978   -2.0894   19.6830 C.ar    1  UNL1        0.0002
     13 C           4.1422   -3.3233   19.8022 C.ar    1  UNL1        0.0023
     14 C           4.6647   -3.7481   21.1425 C.ar    1  UNL1        0.0297
     15 C           4.3426   -2.9388   22.3637 C.ar    1  UNL1        0.1431
     16 F           4.8650   -3.3636   23.7042 F       1  UNL1       -0.2041
     17 C           3.7988   -0.7740   29.5863 C.3     1  UNL1        0.1945
     18 C           2.7078   -0.5648   30.5941 C.2     1  UNL1        0.3370
     19 O           3.0480   -0.4129   32.0472 O.2     1  UNL1       -0.2482
     20 O           1.2765   -0.5075   30.1490 O.3     1  UNL1       -0.4473
     21 C           0.7357    0.7432   29.5216 C.3     1  UNL1        0.2084
     22 C          -1.6423   -0.1677   29.0063 C.3     1  UNL1        0.0038
     23 C          -0.4615    0.6730   28.6206 C.3     1  UNL1        0.0439
     24 C          -0.4779    1.4437   27.3338 C.3     1  UNL1        0.0038
     25 C           5.2335   -0.7789   30.0242 C.3     1  UNL1        0.1386
     26 N           5.8499   -2.0371   30.5596 N.ar    1  UNL1       -0.3055
     27 C           5.8770   -2.4629   31.9976 C.ar    1  UNL1        0.0981
     28 C           6.5914   -3.7795   32.0778 C.ar    1  UNL1        0.1193
     29 N           7.0059   -4.1673   30.6893 N.ar    1  UNL1       -0.2223
     30 C           6.5476   -3.0904   29.7510 C.ar    1  UNL1        0.1787
@<TRIPOS>BOND
     1    22    23    1
     2    23    24    1
     3    23    21    1
     4    21    20    1
     5    20    18    1
     6    18    19    2
     7    18    17    1
     8    17    25    1
     9    25    26    1
    10    26    27   ar
    11    27    28   ar
    12    28    29   ar
    13    29    30   ar
    14    17     1    1
    15     1     2   am
    16     2     3    2
    17     2     5    1
    18     5     6   ar
    19     6     7   ar
    20     7    10    1
    21    10    11   ar
    22    11    12   ar
    23    12    13   ar
    24    13    14   ar
    25    14    15   ar
    26    15    16    1
    27     7     8   ar
    28     8     9   ar
    29    30    26   ar
    30     9     5   ar
    31    15    10   ar
    32     1     4    1
@<TRIPOS>MOLECULE
*****
 30 32 0 0 0
SMALL
GASTEIGER

@<TRIPOS>ATOM
      1 N           6.0747   -3.6407   25.3966 N.am    1  UNL1       -0.2904
      2 C           5.8612   -2.4003   24.5807 C.2     1  UNL1        0.2673
      3 O           6.4121   -1.0876   25.0535 O.2     1  UNL1       -0.2684
      4 H           5.7131   -4.5023   25.0863 H       1  UNL1        0.1503
      5 C           5.0969   -2.4724   23.2921 C.ar    1  UNL1        0.1761
      6 C           4.4011   -1.3293   22.6145 C.ar    1  UNL1        0.0673
      7 C           3.7683   -1.8507   21.3584 C.ar    1  UNL1        0.1792
      8 O           4.0730   -3.3162   21.2597 O.2     1  UNL1       -0.3532
      9 N           4.8941   -3.7004   22.4548 N.ar    1  UNL1       -0.0723
     10 C           2.9708   -1.0477   20.3739 C.ar    1  UNL1        0.0647
     11 C           1.5826   -0.5986   20.7219 C.ar    1  UNL1        0.0054
     12 C           0.7852    0.2043   19.7374 C.ar    1  UNL1        0.0002
     13 C           1.3760    0.5581   18.4048 C.ar    1  UNL1        0.0023
     14 C           2.7642    0.1090   18.0567 C.ar    1  UNL1        0.0297
     15 C           3.5616   -0.6939   19.0413 C.ar    1  UNL1        0.1431
     16 F           4.9499   -1.1431   18.6932 F       1  UNL1       -0.2041
     17 C           6.8390   -3.5686   26.6852 C.3     1  UNL1        0.1945
     18 C           8.3275   -3.7536   26.6856 C.2     1  UNL1        0.3370
     19 O           9.2319   -2.5586   26.7501 O.2     1  UNL1       -0.2482
     20 O           8.9117   -5.1337   26.6216 O.3     1  UNL1       -0.4473
     21 C           9.3322   -5.7097   25.3019 C.3     1  UNL1        0.2084
     22 C           7.7043   -7.7051   25.6463 C.3     1  UNL1        0.0038
     23 C           8.6767   -6.9557   24.7844 C.3     1  UNL1        0.0439
     24 C           8.9935   -7.4522   23.4049 C.3     1  UNL1        0.0038
     25 C           6.1148   -3.3114   27.9734 C.3     1  UNL1        0.1386
     26 N           6.4624   -4.1017   29.1999 N.ar    1  UNL1       -0.3055
     27 C           6.6695   -3.5458   30.5776 C.ar    1  UNL1        0.0981
     28 C           6.9991   -4.6873   31.4934 C.ar    1  UNL1        0.1193
     29 N           6.9957   -5.9486   30.6816 N.ar    1  UNL1       -0.2223
     30 C           6.6640   -5.5867   29.2642 C.ar    1  UNL1        0.1787
@<TRIPOS>BOND
     1    22    23    1
     2    23    24    1
     3    23    21    1
     4    21    20    1
     5    20    18    1
     6    18    19    2
     7    18    17    1
     8    17    25    1
     9    25    26    1
    10    26    27   ar
    11    27    28   ar
    12    28    29   ar
    13    29    30   ar
    14    17     1    1
    15     1     2   am
    16     2     3    2
    17     2     5    1
    18     5     6   ar
    19     6     7   ar
    20     7    10    1
    21    10    11   ar
    22    11    12   ar
    23    12    13   ar
    24    13    14   ar
    25    14    15   ar
    26    15    16    1
    27     7     8   ar
    28     8     9   ar
    29    30    26   ar
    30     9     5   ar
    31    15    10   ar
    32     1     4    1
@<TRIPOS>MOLECULE
*****
 30 32 0 0 0
SMALL
GASTEIGER

@<TRIPOS>ATOM
      1 N           6.0466   -3.6283   27.5626 N.am    1  UNL1       -0.2904
      2 C           7.0105   -3.5976   26.4137 C.2     1  UNL1        0.2673
      3 O           8.4848   -3.5039   26.6739 O.2     1  UNL1       -0.2684
      4 H           5.0790   -3.6898   27.3918 H       1  UNL1        0.1503
      5 C           6.5001   -3.6606   25.0046 C.ar    1  UNL1        0.1761
      6 C           5.4593   -2.7636   24.4029 C.ar    1  UNL1        0.0673
      7 C           5.2569   -3.1803   22.9763 C.ar    1  UNL1        0.1792
      8 O           6.1726   -4.3349   22.6962 O.2     1  UNL1       -0.3532
      9 N           6.9410   -4.6318   23.9498 N.ar    1  UNL1       -0.0723
     10 C           4.3057   -2.5526   22.0008 C.ar    1  UNL1        0.0647
     11 C           3.4407   -1.4047   22.4297 C.ar    1  UNL1        0.0054
     12 C           2.4896   -0.7771   21.4543 C.ar    1  UNL1        0.0002
     13 C           2.4035   -1.2974   20.0500 C.ar    1  UNL1        0.0023
     14 C           3.2685   -2.4453   19.6212 C.ar    1  UNL1        0.0297
     15 C           4.2196   -3.0729   20.5966 C.ar    1  UNL1        0.1431
     16 F           5.0847   -4.2209   20.1678 F       1  UNL1       -0.2041
     17 C           6.5570   -3.5653   28.9717 C.3     1  UNL1        0.1945
     18 C           7.0070   -4.8180   29.6630 C.2     1  UNL1        0.3370
     19 O           7.5069   -4.7568   31.0760 O.2     1  UNL1       -0.2482
     20 O           6.9572   -6.1321   28.9414 O.3     1  UNL1       -0.4473
     21 C           8.1998   -6.6906   28.3136 C.3     1  UNL1        0.2084
     22 C           8.7049   -9.1496   27.6438 C.3     1  UNL1        0.0038
     23 C           8.1006   -7.8142   27.3248 C.3     1  UNL1        0.0439
     24 C           7.3972   -7.6025   26.0170 C.3     1  UNL1        0.0038
     25 C           6.6174   -2.2495   29.6894 C.3     1  UNL1        0.1386
     26 N           5.4667   -1.8080   30.5443 N.ar    1  UNL1       -0.3055
     27 C           4.3928   -0.8396   30.1456 C.ar    1  UNL1        0.0981
     28 C           3.4502   -0.6905   31.3030 C.ar    1  UNL1        0.1193
     29 N           3.9415   -1.5668   32.4169 N.ar    1  UNL1       -0.2223
     30 C           5.1878   -2.2574   31.9479 C.ar    1  UNL1        0.1787
@<TRIPOS>BOND
     1    22    23    1
     2    23    24    1
     3    23    21    1
     4    21    20    1
     5    20    18    1
     6    18    19    2
     7    18    17    1
     8    17    25    1
     9    25    26    1
    10    26    27   ar
    11    27    28   ar
    12    28    29   ar
    13    29    30   ar
    14    17     1    1
    15     1     2   am
    16     2     3    2
    17     2     5    1
    18     5     6   ar
    19     6     7   ar
    20     7    10    1
    21    10    11   ar
    22    11    12   ar
    23    12    13   ar
    24    13    14   ar
    25    14    15   ar
    26    15    16    1
    27     7     8   ar
    28     8     9   ar
    29    30    26   ar
    30     9     5   ar
    31    15    10   ar
    32     1     4    1
@<TRIPOS>MOLECULE
*****
 30 32 0 0 0
SMALL
GASTEIGER

@<TRIPOS>ATOM
      1 N           5.8871   -3.7676   24.5987 N.am    1  UNL1       -0.2904
      2 C           6.5343   -3.8230   23.2467 C.2     1  UNL1        0.2673
      3 O           7.9864   -4.1785   23.1244 O.2     1  UNL1       -0.2684
      4 H           4.9340   -3.5342   24.6790 H       1  UNL1        0.1503
      5 C           5.7294   -3.5229   22.0170 C.ar    1  UNL1        0.1761
      6 C           4.8384   -2.3332   21.8151 C.ar    1  UNL1        0.0673
      7 C           4.2326   -2.4348   20.4466 C.ar    1  UNL1        0.1792
      8 O           4.7493   -3.6872   19.8028 O.2     1  UNL1       -0.3532
      9 N           5.6744   -4.3597   20.7733 N.ar    1  UNL1       -0.0723
     10 C           3.2777   -1.4558   19.8302 C.ar    1  UNL1        0.0647
     11 C           2.0177   -1.0809   20.5524 C.ar    1  UNL1        0.0054
     12 C           1.0629   -0.1019   19.9360 C.ar    1  UNL1        0.0002
     13 C           1.3682    0.5020   18.5973 C.ar    1  UNL1        0.0023
     14 C           2.6282    0.1270   17.8751 C.ar    1  UNL1        0.0297
     15 C           3.5830   -0.8519   18.4915 C.ar    1  UNL1        0.1431
     16 F           4.8431   -1.2269   17.7693 F       1  UNL1       -0.2041
     17 C           6.6919   -4.0677   25.8284 C.3     1  UNL1        0.1945
     18 C           7.4062   -2.9610   26.5458 C.2     1  UNL1        0.3370
     19 O           8.9057   -2.9203   26.5584 O.2     1  UNL1       -0.2482
     20 O           6.6211   -1.8947   27.2507 O.3     1  UNL1       -0.4473
     21 C           5.2457   -2.1949   27.7688 C.3     1  UNL1        0.2084
     22 C           3.8653   -1.1466   25.8335 C.3     1  UNL1        0.0038
     23 C           4.0741   -1.3842   27.2997 C.3     1  UNL1        0.0439
     24 C           3.1113   -0.8110   28.2969 C.3     1  UNL1        0.0038
     25 C           6.7824   -5.4746   26.3407 C.3     1  UNL1        0.1386
     26 N           7.3032   -5.7376   27.7225 N.ar    1  UNL1       -0.3055
     27 C           6.5918   -5.4287   29.0064 C.ar    1  UNL1        0.0981
     28 C           7.4758   -5.8558   30.1406 C.ar    1  UNL1        0.1193
     29 N           8.7335   -6.4288   29.5576 N.ar    1  UNL1       -0.2223
     30 C           8.6267   -6.3557   28.0631 C.ar    1  UNL1        0.1787
@<TRIPOS>BOND
     1    22    23    1
     2    23    24    1
     3    23    21    1
     4    21    20    1
     5    20    18    1
     6    18    19    2
     7    18    17    1
     8    17    25    1
     9    25    26    1
    10    26    27   ar
    11    27    28   ar
    12    28    29   ar
    13    29    30   ar
    14    17     1    1
    15     1     2   am
    16     2     3    2
    17     2     5    1
    18     5     6   ar
    19     6     7   ar
    20     7    10    1
    21    10    11   ar
    22    11    12   ar
    23    12    13   ar
    24    13    14   ar
    25    14    15   ar
    26    15    16    1
    27     7     8   ar
    28     8     9   ar
    29    30    26   ar
    30     9     5   ar
    31    15    10   ar
    32     1     4    1
@<TRIPOS>MOLECULE
*****
 30 32 0 0 0
SMALL
GASTEIGER

@<TRIPOS>ATOM
      1 N          -5.9431  -20.0035   21.5044 N.am    1  UNL1       -0.2904
      2 C          -6.8945  -19.0204   20.8892 C.2     1  UNL1        0.2673
      3 O          -6.3679  -17.8763   20.0746 O.2     1  UNL1       -0.2684
      4 H          -6.2887  -20.7544   22.0390 H       1  UNL1        0.1503
      5 C          -8.3724  -19.1816   21.0886 C.ar    1  UNL1        0.1761
      6 C          -9.1641  -18.6792   22.2594 C.ar    1  UNL1        0.0673
      7 C         -10.5991  -19.0605   22.0466 C.ar    1  UNL1        0.1792
      8 O         -10.6943  -19.7986   20.7443 O.2     1  UNL1       -0.3532
      9 N          -9.3182  -19.8735   20.1521 N.ar    1  UNL1       -0.0723
     10 C         -11.7388  -18.7571   22.9735 C.ar    1  UNL1        0.0647
     11 C         -12.9531  -18.0418   22.4599 C.ar    1  UNL1        0.0054
     12 C         -14.0928  -17.7383   23.3867 C.ar    1  UNL1        0.0002
     13 C         -14.0181  -18.1502   24.8271 C.ar    1  UNL1        0.0023
     14 C         -12.8038  -18.8655   25.3407 C.ar    1  UNL1        0.0297
     15 C         -11.6642  -19.1689   24.4139 C.ar    1  UNL1        0.1431
     16 F         -10.4498  -19.8842   24.9275 F       1  UNL1       -0.2041
     17 C          -4.4651  -19.8423   21.3050 C.3     1  UNL1        0.1945
     18 C          -3.5851  -19.4930   22.4683 C.2     1  UNL1        0.3370
     19 O          -2.1827  -20.0215   22.5333 O.2     1  UNL1       -0.2482
     20 O          -4.1075  -18.6151   23.5668 O.3     1  UNL1       -0.4473
     21 C          -4.2664  -17.1412   23.3375 C.3     1  UNL1        0.2084
     22 C          -5.0550  -15.7427   25.3801 C.3     1  UNL1        0.0038
     23 C          -5.3436  -16.3825   24.0545 C.3     1  UNL1        0.0439
     24 C          -6.7094  -16.2637   23.4459 C.3     1  UNL1        0.0038
     25 C          -3.8673  -20.0305   19.9422 C.3     1  UNL1        0.1386
     26 N          -2.9400  -18.9940   19.3804 N.ar    1  UNL1       -0.3055
     27 C          -1.4791  -18.8564   19.6915 C.ar    1  UNL1        0.0981
     28 C          -0.9470  -17.6904   18.9121 C.ar    1  UNL1        0.1193
     29 N          -2.0790  -17.1073   18.1193 N.ar    1  UNL1       -0.2223
     30 C          -3.3108  -17.9131   18.4088 C.ar    1  UNL1        0.1787
@<TRIPOS>BOND
     1    22    23    1
     2    23    24    1
     3    23    21    1
     4    21    20    1
     5    20    18    1
     6    18    19    2
     7    18    17    1
     8    17    25    1
     9    25    26    1
    10    26    27   ar
    11    27    28   ar
    12    28    29   ar
    13    29    30   ar
    14    17     1    1
    15     1     2   am
    16     2     3    2
    17     2     5    1
    18     5     6   ar
    19     6     7   ar
    20     7    10    1
    21    10    11   ar
    22    11    12   ar
    23    12    13   ar
    24    13    14   ar
    25    14    15   ar
    26    15    16    1
    27     7     8   ar
    28     8     9   ar
    29    30    26   ar
    30     9     5   ar
    31    15    10   ar
    32     1     4    1
@<TRIPOS>MOLECULE
*****
 30 32 0 0 0
SMALL
GASTEIGER

@<TRIPOS>ATOM
      1 N           2.4338   -0.9142   27.9624 N.am    1  UNL1       -0.2904
      2 C           3.3796   -0.0636   27.1675 C.2     1  UNL1        0.2673
      3 O           3.7032    1.3275   27.6258 O.2     1  UNL1       -0.2684
      4 H           2.2214   -1.8272   27.6616 H       1  UNL1        0.1503
      5 C           4.0018   -0.6042   25.9142 C.ar    1  UNL1        0.1761
      6 C           3.2713   -0.9871   24.6614 C.ar    1  UNL1        0.0673
      7 C           4.2818   -1.4764   23.6666 C.ar    1  UNL1        0.1792
      8 O           5.6369   -1.3958   24.3047 O.2     1  UNL1       -0.3532
      9 N           5.4640   -0.8568   25.6938 N.ar    1  UNL1       -0.0723
     10 C           3.9887   -1.9610   22.2776 C.ar    1  UNL1        0.0647
     11 C           3.1397   -1.1340   21.3583 C.ar    1  UNL1        0.0054
     12 C           2.8466   -1.6187   19.9693 C.ar    1  UNL1        0.0002
     13 C           3.4025   -2.9304   19.4998 C.ar    1  UNL1        0.0023
     14 C           4.2515   -3.7574   20.4192 C.ar    1  UNL1        0.0297
     15 C           4.5445   -3.2727   21.8081 C.ar    1  UNL1        0.1431
     16 F           5.3935   -4.0997   22.7276 F       1  UNL1       -0.2041
     17 C           1.8115   -0.3736   29.2156 C.3     1  UNL1        0.1945
     18 C           0.4848    0.3234   29.1539 C.2     1  UNL1        0.3370
     19 O          -0.7834   -0.4776   29.1385 O.2     1  UNL1       -0.2482
     20 O           0.4262    1.8216   29.1075 O.3     1  UNL1       -0.4473
     21 C           0.5536    2.5368   27.7951 C.3     1  UNL1        0.2084
     22 C          -1.7573    2.8418   26.6475 C.3     1  UNL1        0.0038
     23 C          -0.3919    2.2214   26.6741 C.3     1  UNL1        0.0439
     24 C           0.0281    1.2855   25.5797 C.3     1  UNL1        0.0038
     25 C           2.5161   -0.5300   30.5306 C.3     1  UNL1        0.1386
     26 N           3.9760   -0.2046   30.6426 N.ar    1  UNL1       -0.3055
     27 C           5.1123   -1.1461   30.3740 C.ar    1  UNL1        0.0981
     28 C           6.3947   -0.4039   30.6084 C.ar    1  UNL1        0.1193
     29 N           6.0508    0.9964   31.0218 N.ar    1  UNL1       -0.2223
     30 C           4.5559    1.1196   31.0429 C.ar    1  UNL1        0.1787
@<TRIPOS>BOND
     1    22    23    1
     2    23    24    1
     3    23    21    1
     4    21    20    1
     5    20    18    1
     6    18    19    2
     7    18    17    1
     8    17    25    1
     9    25    26    1
    10    26    27   ar
    11    27    28   ar
    12    28    29   ar
    13    29    30   ar
    14    17     1    1
    15     1     2   am
    16     2     3    2
    17     2     5    1
    18     5     6   ar
    19     6     7   ar
    20     7    10    1
    21    10    11   ar
    22    11    12   ar
    23    12    13   ar
    24    13    14   ar
    25    14    15   ar
    26    15    16    1
    27     7     8   ar
    28     8     9   ar
    29    30    26   ar
    30     9     5   ar
    31    15    10   ar
    32     1     4    1
@<TRIPOS>MOLECULE
*****
 30 32 0 0 0
SMALL
GASTEIGER

@<TRIPOS>ATOM
      1 N           5.5650   -3.9324   19.7937 N.am    1  UNL1       -0.2904
      2 C           6.5095   -3.4767   20.8661 C.2     1  UNL1        0.2673
      3 O           6.6860   -2.0120   21.1372 O.2     1  UNL1       -0.2684
      4 H           5.4492   -4.8938   19.6157 H       1  UNL1        0.1503
      5 C           7.2776   -4.4857   21.6675 C.ar    1  UNL1        0.1761
      6 C           7.2200   -4.6577   23.1564 C.ar    1  UNL1        0.0673
      7 C           8.1449   -5.7781   23.5297 C.ar    1  UNL1        0.1792
      8 O           8.7741   -6.2985   22.2714 O.2     1  UNL1       -0.3532
      9 N           8.2381   -5.4998   21.1204 N.ar    1  UNL1       -0.0723
     10 C           8.3965   -6.2885   24.9176 C.ar    1  UNL1        0.0647
     11 C           7.9698   -7.6760   25.2953 C.ar    1  UNL1        0.0054
     12 C           8.2214   -8.1863   26.6832 C.ar    1  UNL1        0.0002
     13 C           8.8996   -7.3092   27.6934 C.ar    1  UNL1        0.0023
     14 C           9.3263   -5.9216   27.3157 C.ar    1  UNL1        0.0297
     15 C           9.0747   -5.4113   25.9279 C.ar    1  UNL1        0.1431
     16 F           9.5014   -4.0237   25.5501 F       1  UNL1       -0.2041
     17 C           4.7969   -2.9235   18.9924 C.3     1  UNL1        0.1945
     18 C           5.4902   -2.1268   17.9272 C.2     1  UNL1        0.3370
     19 O           6.9303   -2.3972   17.6060 O.2     1  UNL1       -0.2482
     20 O           4.7434   -1.0596   17.1833 O.3     1  UNL1       -0.4473
     21 C           5.1856    0.3706   17.2788 C.3     1  UNL1        0.2084
     22 C           5.4601    1.0199   19.7794 C.3     1  UNL1        0.0038
     23 C           4.7773    1.2048   18.4567 C.3     1  UNL1        0.0439
     24 C           3.6863    2.2239   18.3119 C.3     1  UNL1        0.0038
     25 C           3.3357   -2.7113   19.2562 C.3     1  UNL1        0.1386
     26 N           2.8939   -1.6497   20.2194 N.ar    1  UNL1       -0.3055
     27 C           3.3994   -1.4638   21.6193 C.ar    1  UNL1        0.0981
     28 C           2.6869   -0.2868   22.2170 C.ar    1  UNL1        0.1193
     29 N           1.7411    0.2548   21.1863 N.ar    1  UNL1       -0.2223
     30 C           1.8691   -0.5876   19.9517 C.ar    1  UNL1        0.1787
@<TRIPOS>BOND
     1    22    23    1
     2    23    24    1
     3    23    21    1
     4    21    20    1
     5    20    18    1
     6    18    19    2
     7    18    17    1
     8    17    25    1
     9    25    26    1
    10    26    27   ar
    11    27    28   ar
    12    28    29   ar
    13    29    30   ar
    14    17     1    1
    15     1     2   am
    16     2     3    2
    17     2     5    1
    18     5     6   ar
    19     6     7   ar
    20     7    10    1
    21    10    11   ar
    22    11    12   ar
    23    12    13   ar
    24    13    14   ar
    25    14    15   ar
    26    15    16    1
    27     7     8   ar
    28     8     9   ar
    29    30    26   ar
    30     9     5   ar
    31    15    10   ar
    32     1     4    1
@<TRIPOS>MOLECULE
*****
 30 32 0 0 0
SMALL
GASTEIGER

@<TRIPOS>ATOM
      1 N           2.4760    1.3729   33.6052 N.am    1  UNL1       -0.2904
      2 C           2.6609    2.0792   32.2949 C.2     1  UNL1        0.2673
      3 O           3.8167    3.0160   32.1044 O.2     1  UNL1       -0.2684
      4 H           1.7173    0.7580   33.7303 H       1  UNL1        0.1503
      5 C           1.6899    1.8486   31.1751 C.ar    1  UNL1        0.1761
      6 C           1.9915    1.9590   29.7099 C.ar    1  UNL1        0.0673
      7 C           0.7348    1.6458   28.9531 C.ar    1  UNL1        0.1792
      8 O          -0.3434    1.3417   29.9506 O.2     1  UNL1       -0.3532
      9 N           0.2468    1.4671   31.3239 N.ar    1  UNL1       -0.0723
     10 C           0.5830    1.6379   27.4607 C.ar    1  UNL1        0.0647
     11 C          -0.6229    2.2649   26.8262 C.ar    1  UNL1        0.0054
     12 C          -0.7746    2.2570   25.3340 C.ar    1  UNL1        0.0002
     13 C           0.2796    1.6221   24.4762 C.ar    1  UNL1        0.0023
     14 C           1.4855    0.9952   25.1107 C.ar    1  UNL1        0.0297
     15 C           1.6372    1.0031   26.6030 C.ar    1  UNL1        0.1431
     16 F           2.8432    0.3761   27.2376 F       1  UNL1       -0.2041
     17 C           3.4470    1.6035   34.7251 C.3     1  UNL1        0.1945
     18 C           3.1334    2.6072   35.7948 C.2     1  UNL1        0.3370
     19 O           3.9079    3.8896   35.8703 O.2     1  UNL1       -0.2482
     20 O           2.0454    2.3285   36.7890 O.3     1  UNL1       -0.4473
     21 C           2.3933    1.8441   38.1655 C.3     1  UNL1        0.2084
     22 C           1.2694   -0.0533   39.5391 C.3     1  UNL1        0.0038
     23 C           1.3100    1.3781   39.0926 C.3     1  UNL1        0.0439
     24 C           0.2675    2.3435   39.5731 C.3     1  UNL1        0.0038
     25 C           4.7314    0.8304   34.7752 C.3     1  UNL1        0.1386
     26 N           4.9451   -0.3297   33.8489 N.ar    1  UNL1       -0.3055
     27 C           4.3922   -1.7128   34.0260 C.ar    1  UNL1        0.0981
     28 C           4.8546   -2.5486   32.8692 C.ar    1  UNL1        0.1193
     29 N           5.6932   -1.6819   31.9773 N.ar    1  UNL1       -0.2223
     30 C           5.7491   -0.3106   32.5828 C.ar    1  UNL1        0.1787
@<TRIPOS>BOND
     1    22    23    1
     2    23    24    1
     3    23    21    1
     4    21    20    1
     5    20    18    1
     6    18    19    2
     7    18    17    1
     8    17    25    1
     9    25    26    1
    10    26    27   ar
    11    27    28   ar
    12    28    29   ar
    13    29    30   ar
    14    17     1    1
    15     1     2   am
    16     2     3    2
    17     2     5    1
    18     5     6   ar
    19     6     7   ar
    20     7    10    1
    21    10    11   ar
    22    11    12   ar
    23    12    13   ar
    24    13    14   ar
    25    14    15   ar
    26    15    16    1
    27     7     8   ar
    28     8     9   ar
    29    30    26   ar
    30     9     5   ar
    31    15    10   ar
    32     1     4    1
