@<TRIPOS>MOLECULE
*****
 32 35 0 0 0
SMALL
GASTEIGER

@<TRIPOS>ATOM
      1 C         -10.2103  -19.9565   19.7236 C.3     1  UNL1        0.0203
      2 C          -9.5162  -19.1357   20.7699 C.3     1  UNL1        0.0888
      3 N          -8.0467  -19.3152   21.0111 N.3     1  UNL1       -0.2713
      4 C          -7.5722  -20.1871   22.1356 C.3     1  UNL1        0.0749
      5 C          -6.1027  -20.3666   22.3768 C.3     1  UNL1        0.0485
      6 C          -5.1076  -19.6743   21.4934 C.3     1  UNL1        0.1096
      7 O          -4.1750  -20.3924   22.4234 O.3     1  UNL1       -0.3826
      8 C          -5.5820  -18.8024   20.3688 C.3     1  UNL1        0.0485
      9 C          -7.0516  -18.6229   20.1276 C.3     1  UNL1        0.0749
     10 H          -4.6903  -20.8986   23.0708 H       1  UNL1        0.2107
     11 C          -3.7886  -19.2313   20.9330 C.ar    1  UNL1        0.0019
     12 C          -3.6120  -19.0940   19.4498 C.ar    1  UNL1        0.0003
     13 C          -2.2931  -18.6510   18.8893 C.ar    1  UNL1        0.0294
     14 C          -1.1506  -18.3454   19.8121 C.ar    1  UNL1        0.1401
     15 F           0.1683  -17.9025   19.2516 F       1  UNL1       -0.2042
     16 C          -1.3272  -18.4828   21.2953 C.ar    1  UNL1        0.0294
     17 C          -2.6462  -18.9258   21.8558 C.ar    1  UNL1        0.0003
     18 C         -10.2917  -18.1354   21.5749 C.3     1  UNL1        0.1472
     19 O         -11.7659  -17.9730   21.3505 O.3     1  UNL1       -0.3787
     20 H         -12.1107  -17.2910   21.9479 H       1  UNL1        0.2108
     21 C          -9.5929  -17.2974   22.6043 C.ar    1  UNL1        0.0053
     22 C          -8.8246  -16.0796   22.1842 C.ar    1  UNL1       -0.0007
     23 C          -8.1259  -15.2417   23.2136 C.ar    1  UNL1        0.0141
     24 C          -8.1955  -15.6216   24.6630 C.ar    1  UNL1        0.0462
     25 C          -8.9638  -16.8395   25.0831 C.ar    1  UNL1       -0.0085
     26 C          -9.6625  -17.6774   24.0537 C.ar    1  UNL1       -0.0049
     27 C          -9.0334  -17.2194   26.5325 C.3     1  UNL1        0.0372
     28 C          -8.3347  -16.3815   27.5619 C.3     1  UNL1        0.0901
     29 C          -7.5663  -15.1636   27.1419 C.2     1  UNL1        0.2264
     30 O          -6.8676  -14.3257   28.1712 O.2     1  UNL1       -0.2748
     31 N          -7.4967  -14.7836   25.6924 N.am    1  UNL1       -0.2842
     32 H          -6.9924  -13.9843   25.4168 H       1  UNL1        0.1548
@<TRIPOS>BOND
     1     1     2    1
     2     2    18    1
     3    18    19    1
     4    18    21    1
     5    21    22   ar
     6    22    23   ar
     7    23    24   ar
     8    24    25   ar
     9    25    26   ar
    10    25    27    1
    11    27    28    1
    12    28    29    1
    13    29    30    2
    14    29    31   am
    15     2     3    1
    16     3     4    1
    17     4     5    1
    18     5     6    1
    19     6     7    1
    20     6    11    1
    21    11    12   ar
    22    12    13   ar
    23    13    14   ar
    24    14    15    1
    25    14    16   ar
    26    16    17   ar
    27     6     8    1
    28     8     9    1
    29    26    21   ar
    30     9     3    1
    31    31    24    1
    32    17    11   ar
    33    19    20    1
    34    31    32    1
    35     7    10    1
@<TRIPOS>MOLECULE
*****
 32 35 0 0 0
SMALL
GASTEIGER

@<TRIPOS>ATOM
      1 C          -8.8641  -20.7669   18.4163 C.3     1  UNL1        0.0203
      2 C          -8.6330  -19.9012   19.6194 C.3     1  UNL1        0.0888
      3 N          -7.2447  -19.7202   20.1576 N.3     1  UNL1       -0.2713
      4 C          -6.8647  -20.3319   21.4734 C.3     1  UNL1        0.0749
      5 C          -5.4764  -20.1509   22.0116 C.3     1  UNL1        0.0485
      6 C          -4.4679  -19.3583   21.2340 C.3     1  UNL1        0.1096
      7 O          -3.6376  -19.7408   22.4233 O.3     1  UNL1       -0.3826
      8 C          -4.8478  -18.7466   19.9181 C.3     1  UNL1        0.0485
      9 C          -6.2362  -18.9276   19.3799 C.3     1  UNL1        0.0749
     10 H          -4.1722  -20.2728   23.0332 H       1  UNL1        0.2107
     11 C          -3.1711  -18.6984   20.8693 C.ar    1  UNL1        0.0019
     12 C          -2.4490  -17.8552   21.8780 C.ar    1  UNL1        0.0003
     13 C          -1.1522  -17.1954   21.5134 C.ar    1  UNL1        0.0294
     14 C          -0.5775  -17.3789   20.1400 C.ar    1  UNL1        0.1401
     15 F           0.7193  -16.7191   19.7754 F       1  UNL1       -0.2042
     16 C          -1.2996  -18.2222   19.1314 C.ar    1  UNL1        0.0294
     17 C          -2.5964  -18.8820   19.4960 C.ar    1  UNL1        0.0003
     18 C          -9.7903  -19.2166   20.2842 C.3     1  UNL1        0.1472
     19 O         -11.0844  -19.0437   19.5456 O.3     1  UNL1       -0.3787
     20 H         -11.7225  -18.5853   20.1145 H       1  UNL1        0.2108
     21 C          -9.6535  -18.7049   21.6876 C.ar    1  UNL1        0.0053
     22 C         -10.2547  -19.4722   22.8276 C.ar    1  UNL1       -0.0007
     23 C         -10.1179  -18.9605   24.2309 C.ar    1  UNL1        0.0141
     24 C          -9.3799  -17.6814   24.4942 C.ar    1  UNL1        0.0462
     25 C          -8.7787  -16.9141   23.3542 C.ar    1  UNL1       -0.0085
     26 C          -8.9155  -17.4258   21.9509 C.ar    1  UNL1       -0.0049
     27 C          -8.0407  -15.6350   23.6175 C.3     1  UNL1        0.0372
     28 C          -7.9039  -15.1233   25.0209 C.3     1  UNL1        0.0901
     29 C          -8.5051  -15.8906   26.1610 C.2     1  UNL1        0.2264
     30 O          -8.3683  -15.3789   27.5643 O.2     1  UNL1       -0.2748
     31 N          -9.2431  -17.1697   25.8977 N.am    1  UNL1       -0.2842
     32 H          -9.6377  -17.6734   26.6459 H       1  UNL1        0.1548
@<TRIPOS>BOND
     1     1     2    1
     2     2    18    1
     3    18    19    1
     4    18    21    1
     5    21    22   ar
     6    22    23   ar
     7    23    24   ar
     8    24    25   ar
     9    25    26   ar
    10    25    27    1
    11    27    28    1
    12    28    29    1
    13    29    30    2
    14    29    31   am
    15     2     3    1
    16     3     4    1
    17     4     5    1
    18     5     6    1
    19     6     7    1
    20     6    11    1
    21    11    12   ar
    22    12    13   ar
    23    13    14   ar
    24    14    15    1
    25    14    16   ar
    26    16    17   ar
    27     6     8    1
    28     8     9    1
    29    26    21   ar
    30     9     3    1
    31    31    24    1
    32    17    11   ar
    33    19    20    1
    34    31    32    1
    35     7    10    1
@<TRIPOS>MOLECULE
*****
 32 35 0 0 0
SMALL
GASTEIGER

@<TRIPOS>ATOM
      1 C          -5.1185  -14.9397   26.1148 C.3     1  UNL1        0.0203
      2 C          -5.4089  -16.0688   25.1709 C.3     1  UNL1        0.0888
      3 N          -6.7312  -16.1358   24.4660 N.3     1  UNL1       -0.2713
      4 C          -6.9009  -15.4829   23.1263 C.3     1  UNL1        0.0749
      5 C          -8.2233  -15.5499   22.4214 C.3     1  UNL1        0.0485
      6 C          -9.3759  -16.2699   23.0562 C.3     1  UNL1        0.1096
      7 O         -10.0241  -15.8117   21.7834 O.3     1  UNL1       -0.3826
      8 C          -9.2063  -16.9229   24.3960 C.3     1  UNL1        0.0485
      9 C          -7.8839  -16.8558   25.1009 C.3     1  UNL1        0.0749
     10 H          -9.3806  -15.3165   21.2528 H       1  UNL1        0.2107
     11 C         -10.7538  -16.8307   23.2490 C.ar    1  UNL1        0.0019
     12 C         -11.9295  -16.1760   22.5865 C.ar    1  UNL1        0.0003
     13 C         -13.3073  -16.7368   22.7792 C.ar    1  UNL1        0.0294
     14 C         -13.5093  -17.9525   23.6346 C.ar    1  UNL1        0.1401
     15 F         -14.8871  -18.5133   23.8273 F       1  UNL1       -0.2042
     16 C         -12.3336  -18.6072   24.2971 C.ar    1  UNL1        0.0294
     17 C         -10.9558  -18.0463   24.1043 C.ar    1  UNL1        0.0003
     18 C          -4.3769  -17.1308   24.9320 C.3     1  UNL1        0.1472
     19 O          -3.7461  -17.8386   26.0943 O.3     1  UNL1       -0.3787
     20 H          -3.1056  -18.4897   25.7675 H       1  UNL1        0.2108
     21 C          -3.9758  -17.4851   23.5306 C.ar    1  UNL1        0.0053
     22 C          -4.7805  -18.4809   22.7492 C.ar    1  UNL1       -0.0007
     23 C          -4.3793  -18.8351   21.3479 C.ar    1  UNL1        0.0141
     24 C          -3.1734  -18.1935   20.7281 C.ar    1  UNL1        0.0462
     25 C          -2.3687  -17.1977   21.5096 C.ar    1  UNL1       -0.0085
     26 C          -2.7699  -16.8435   22.9108 C.ar    1  UNL1       -0.0049
     27 C          -1.1628  -16.5561   20.8898 C.3     1  UNL1        0.0372
     28 C          -0.7616  -16.9103   19.4886 C.3     1  UNL1        0.0901
     29 C          -1.5664  -17.9062   18.7070 C.2     1  UNL1        0.2264
     30 O          -1.1652  -18.2604   17.3058 O.2     1  UNL1       -0.2748
     31 N          -2.7723  -18.5478   19.3268 N.am    1  UNL1       -0.2842
     32 H          -3.3005  -19.2014   18.8139 H       1  UNL1        0.1548
@<TRIPOS>BOND
     1     1     2    1
     2     2    18    1
     3    18    19    1
     4    18    21    1
     5    21    22   ar
     6    22    23   ar
     7    23    24   ar
     8    24    25   ar
     9    25    26   ar
    10    25    27    1
    11    27    28    1
    12    28    29    1
    13    29    30    2
    14    29    31   am
    15     2     3    1
    16     3     4    1
    17     4     5    1
    18     5     6    1
    19     6     7    1
    20     6    11    1
    21    11    12   ar
    22    12    13   ar
    23    13    14   ar
    24    14    15    1
    25    14    16   ar
    26    16    17   ar
    27     6     8    1
    28     8     9    1
    29    26    21   ar
    30     9     3    1
    31    31    24    1
    32    17    11   ar
    33    19    20    1
    34    31    32    1
    35     7    10    1
@<TRIPOS>MOLECULE
*****
 32 35 0 0 0
SMALL
GASTEIGER

@<TRIPOS>ATOM
      1 C         -10.9591  -18.8761   19.3559 C.3     1  UNL1        0.0203
      2 C          -9.7377  -19.2249   20.1537 C.3     1  UNL1        0.0888
      3 N          -9.6543  -18.8449   21.6024 N.3     1  UNL1       -0.2713
      4 C         -10.4731  -19.5829   22.6197 C.3     1  UNL1        0.0749
      5 C         -10.3897  -19.2028   24.0683 C.3     1  UNL1        0.0485
      6 C          -9.4876  -18.0848   24.4997 C.3     1  UNL1        0.1096
      7 O         -10.0625  -18.4825   25.8269 O.3     1  UNL1       -0.3826
      8 C          -8.6688  -17.3467   23.4824 C.3     1  UNL1        0.0485
      9 C          -8.7521  -17.7268   22.0337 C.3     1  UNL1        0.0749
     10 H         -10.6831  -19.2176   25.7033 H       1  UNL1        0.2107
     11 C          -8.7851  -17.1048   25.3920 C.ar    1  UNL1        0.0019
     12 C          -8.9726  -17.1759   26.8785 C.ar    1  UNL1        0.0003
     13 C          -8.2701  -16.1960   27.7708 C.ar    1  UNL1        0.0294
     14 C          -7.3801  -15.1449   27.1765 C.ar    1  UNL1        0.1401
     15 F          -6.6776  -14.1649   28.0689 F       1  UNL1       -0.2042
     16 C          -7.1926  -15.0737   25.6900 C.ar    1  UNL1        0.0294
     17 C          -7.8951  -16.0537   24.7977 C.ar    1  UNL1        0.0003
     18 C          -8.5996  -19.9538   19.5029 C.3     1  UNL1        0.1472
     19 O          -8.8470  -20.7997   18.2891 O.3     1  UNL1       -0.3787
     20 H          -8.0121  -21.1974   17.9965 H       1  UNL1        0.2108
     21 C          -7.2142  -19.8368   20.0658 C.ar    1  UNL1        0.0053
     22 C          -6.8930  -20.4430   21.3997 C.ar    1  UNL1       -0.0007
     23 C          -5.5076  -20.3260   21.9626 C.ar    1  UNL1        0.0141
     24 C          -4.4433  -19.6028   21.1916 C.ar    1  UNL1        0.0462
     25 C          -4.7645  -18.9966   19.8578 C.ar    1  UNL1       -0.0085
     26 C          -6.1500  -19.1136   19.2949 C.ar    1  UNL1       -0.0049
     27 C          -3.7003  -18.2734   19.0868 C.3     1  UNL1        0.0372
     28 C          -2.3149  -18.1564   19.6497 C.3     1  UNL1        0.0901
     29 C          -1.9937  -18.7626   20.9836 C.2     1  UNL1        0.2264
     30 O          -0.6083  -18.6456   21.5465 O.2     1  UNL1       -0.2748
     31 N          -3.0579  -19.4858   21.7546 N.am    1  UNL1       -0.2842
     32 H          -2.8471  -19.8837   22.6301 H       1  UNL1        0.1548
@<TRIPOS>BOND
     1     1     2    1
     2     2    18    1
     3    18    19    1
     4    18    21    1
     5    21    22   ar
     6    22    23   ar
     7    23    24   ar
     8    24    25   ar
     9    25    26   ar
    10    25    27    1
    11    27    28    1
    12    28    29    1
    13    29    30    2
    14    29    31   am
    15     2     3    1
    16     3     4    1
    17     4     5    1
    18     5     6    1
    19     6     7    1
    20     6    11    1
    21    11    12   ar
    22    12    13   ar
    23    13    14   ar
    24    14    15    1
    25    14    16   ar
    26    16    17   ar
    27     6     8    1
    28     8     9    1
    29    26    21   ar
    30     9     3    1
    31    31    24    1
    32    17    11   ar
    33    19    20    1
    34    31    32    1
    35     7    10    1
@<TRIPOS>MOLECULE
*****
 32 35 0 0 0
SMALL
GASTEIGER

@<TRIPOS>ATOM
      1 C          -8.4204  -19.6004   18.8099 C.3     1  UNL1        0.0203
      2 C          -7.5928  -19.5435   20.0597 C.3     1  UNL1        0.0888
      3 N          -7.9438  -18.5728   21.1481 N.3     1  UNL1       -0.2713
      4 C          -9.2589  -17.8522   21.1149 C.3     1  UNL1        0.0749
      5 C          -9.6099  -16.8815   22.2033 C.3     1  UNL1        0.0485
      6 C          -8.6458  -16.6314   23.3248 C.3     1  UNL1        0.1096
      7 O          -9.7606  -15.7132   23.7300 O.3     1  UNL1       -0.3826
      8 C          -7.3306  -17.3521   23.3581 C.3     1  UNL1        0.0485
      9 C          -6.9796  -18.3228   22.2697 C.3     1  UNL1        0.0749
     10 H         -10.4779  -15.7688   23.0795 H       1  UNL1        0.2107
     11 C          -8.0688  -16.0625   24.5872 C.ar    1  UNL1        0.0019
     12 C          -8.9149  -15.9669   25.8220 C.ar    1  UNL1        0.0003
     13 C          -8.3380  -15.3980   27.0844 C.ar    1  UNL1        0.0294
     14 C          -6.9149  -14.9245   27.1117 C.ar    1  UNL1        0.1401
     15 F          -6.3380  -14.3556   28.3741 F       1  UNL1       -0.2042
     16 C          -6.0688  -15.0201   25.8769 C.ar    1  UNL1        0.0294
     17 C          -6.6458  -15.5891   24.6145 C.ar    1  UNL1        0.0003
     18 C          -6.4143  -20.4573   20.2211 C.3     1  UNL1        0.1472
     19 O          -6.5999  -21.9432   20.1342 O.3     1  UNL1       -0.3787
     20 H          -5.7449  -22.3838   20.2597 H       1  UNL1        0.2108
     21 C          -5.0500  -19.8852   20.4695 C.ar    1  UNL1        0.0053
     22 C          -4.4668  -19.9093   21.8512 C.ar    1  UNL1       -0.0007
     23 C          -3.1026  -19.3371   22.0995 C.ar    1  UNL1        0.0141
     24 C          -2.3217  -18.7409   20.9660 C.ar    1  UNL1        0.0462
     25 C          -2.9050  -18.7168   19.5843 C.ar    1  UNL1       -0.0085
     26 C          -4.2691  -19.2889   19.3360 C.ar    1  UNL1       -0.0049
     27 C          -2.1241  -18.1206   18.4508 C.3     1  UNL1        0.0372
     28 C          -0.7599  -17.5485   18.6991 C.3     1  UNL1        0.0901
     29 C          -0.1766  -17.5726   20.0809 C.2     1  UNL1        0.2264
     30 O           1.1876  -17.0004   20.3291 O.2     1  UNL1       -0.2748
     31 N          -0.9575  -18.1688   21.2143 N.am    1  UNL1       -0.2842
     32 H          -0.5747  -18.1846   22.1212 H       1  UNL1        0.1548
@<TRIPOS>BOND
     1     1     2    1
     2     2    18    1
     3    18    19    1
     4    18    21    1
     5    21    22   ar
     6    22    23   ar
     7    23    24   ar
     8    24    25   ar
     9    25    26   ar
    10    25    27    1
    11    27    28    1
    12    28    29    1
    13    29    30    2
    14    29    31   am
    15     2     3    1
    16     3     4    1
    17     4     5    1
    18     5     6    1
    19     6     7    1
    20     6    11    1
    21    11    12   ar
    22    12    13   ar
    23    13    14   ar
    24    14    15    1
    25    14    16   ar
    26    16    17   ar
    27     6     8    1
    28     8     9    1
    29    26    21   ar
    30     9     3    1
    31    31    24    1
    32    17    11   ar
    33    19    20    1
    34    31    32    1
    35     7    10    1
@<TRIPOS>MOLECULE
*****
 32 35 0 0 0
SMALL
GASTEIGER

@<TRIPOS>ATOM
      1 C           0.1652    1.3439   25.0986 C.3     1  UNL1        0.0203
      2 C           0.0094    2.1582   23.8485 C.3     1  UNL1        0.0888
      3 N           0.4569    1.6008   22.5297 N.3     1  UNL1       -0.2713
      4 C          -0.2736    1.9700   21.2727 C.3     1  UNL1        0.0749
      5 C           0.1739    1.4126   19.9540 C.3     1  UNL1        0.0485
      6 C           1.3519    0.4861   19.8922 C.3     1  UNL1        0.1096
      7 O           0.9864    0.5400   18.4384 O.3     1  UNL1       -0.3826
      8 C           2.0825    0.1169   21.1493 C.3     1  UNL1        0.0485
      9 C           1.6350    0.6743   22.4680 C.3     1  UNL1        0.0749
     10 H           0.2176    1.1194   18.3195 H       1  UNL1        0.2107
     11 C           2.4030   -0.4217   19.3256 C.ar    1  UNL1        0.0019
     12 C           2.7604   -1.6922   20.0385 C.ar    1  UNL1        0.0003
     13 C           3.8115   -2.6000   19.4719 C.ar    1  UNL1        0.0294
     14 C           4.5052   -2.2373   18.1923 C.ar    1  UNL1        0.1401
     15 F           5.5563   -3.1452   17.6257 F       1  UNL1       -0.2042
     16 C           4.1478   -0.9669   17.4794 C.ar    1  UNL1        0.0294
     17 C           3.0967   -0.0591   18.0460 C.ar    1  UNL1        0.0003
     18 C          -0.5939    3.5298   23.9171 C.3     1  UNL1        0.1472
     19 O           0.2810    4.7413   23.7878 O.3     1  UNL1       -0.3787
     20 H          -0.2631    5.5416   23.8538 H       1  UNL1        0.2108
     21 C          -2.0722    3.6899   24.1151 C.ar    1  UNL1        0.0053
     22 C          -2.6499    3.6708   25.4992 C.ar    1  UNL1       -0.0007
     23 C          -4.1282    3.8309   25.6971 C.ar    1  UNL1        0.0141
     24 C          -5.0286    4.0101   24.5109 C.ar    1  UNL1        0.0462
     25 C          -4.4509    4.0291   23.1268 C.ar    1  UNL1       -0.0085
     26 C          -2.9726    3.8690   22.9289 C.ar    1  UNL1       -0.0049
     27 C          -5.3513    4.2083   21.9406 C.3     1  UNL1        0.0372
     28 C          -6.8295    4.3684   22.1385 C.3     1  UNL1        0.0901
     29 C          -7.4074    4.3493   23.5226 C.2     1  UNL1        0.2264
     30 O          -8.8856    4.5094   23.7205 O.2     1  UNL1       -0.2748
     31 N          -6.5069    4.1702   24.7088 N.am    1  UNL1       -0.2842
     32 H          -6.8861    4.1576   25.6173 H       1  UNL1        0.1548
@<TRIPOS>BOND
     1     1     2    1
     2     2    18    1
     3    18    19    1
     4    18    21    1
     5    21    22   ar
     6    22    23   ar
     7    23    24   ar
     8    24    25   ar
     9    25    26   ar
    10    25    27    1
    11    27    28    1
    12    28    29    1
    13    29    30    2
    14    29    31   am
    15     2     3    1
    16     3     4    1
    17     4     5    1
    18     5     6    1
    19     6     7    1
    20     6    11    1
    21    11    12   ar
    22    12    13   ar
    23    13    14   ar
    24    14    15    1
    25    14    16   ar
    26    16    17   ar
    27     6     8    1
    28     8     9    1
    29    26    21   ar
    30     9     3    1
    31    31    24    1
    32    17    11   ar
    33    19    20    1
    34    31    32    1
    35     7    10    1
@<TRIPOS>MOLECULE
*****
 32 35 0 0 0
SMALL
GASTEIGER

@<TRIPOS>ATOM
      1 C           4.3088   -4.9780   18.9277 C.3     1  UNL1        0.0203
      2 C           5.2158   -3.8735   19.3832 C.3     1  UNL1        0.0888
      3 N           5.9164   -3.9756   20.7056 N.3     1  UNL1       -0.2713
      4 C           7.3918   -4.2419   20.7542 C.3     1  UNL1        0.0749
      5 C           8.0923   -4.3440   22.0766 C.3     1  UNL1        0.0485
      6 C           7.3176   -4.1798   23.3504 C.3     1  UNL1        0.1096
      7 O           8.6893   -4.4178   23.9087 O.3     1  UNL1       -0.3826
      8 C           5.8421   -3.9135   23.3019 C.3     1  UNL1        0.0485
      9 C           5.1416   -3.8114   21.9795 C.3     1  UNL1        0.0749
     10 H           9.3172   -4.5451   23.1804 H       1  UNL1        0.2107
     11 C           7.0192   -4.0983   24.8182 C.ar    1  UNL1        0.0019
     12 C           6.6266   -2.7872   25.4321 C.ar    1  UNL1        0.0003
     13 C           6.3282   -2.7056   26.8998 C.ar    1  UNL1        0.0294
     14 C           6.4224   -3.9353   27.7537 C.ar    1  UNL1        0.1401
     15 F           6.1240   -3.8537   29.2215 F       1  UNL1       -0.2042
     16 C           6.8149   -5.2464   27.1399 C.ar    1  UNL1        0.0294
     17 C           7.1133   -5.3279   25.6721 C.ar    1  UNL1        0.0003
     18 C           5.4223   -2.6670   18.5163 C.3     1  UNL1        0.1472
     19 O           6.5954   -2.6054   17.5836 O.3     1  UNL1       -0.3787
     20 H           6.5807   -1.7644   17.1005 H       1  UNL1        0.2108
     21 C           4.4555   -1.5219   18.5820 C.ar    1  UNL1        0.0053
     22 C           4.6927   -0.2917   17.7571 C.ar    1  UNL1       -0.0007
     23 C           3.7260    0.8532   17.8229 C.ar    1  UNL1        0.0141
     24 C           2.5220    0.7681   18.7135 C.ar    1  UNL1        0.0462
     25 C           2.2848   -0.4621   19.5384 C.ar    1  UNL1       -0.0085
     26 C           3.2515   -1.6070   19.4726 C.ar    1  UNL1       -0.0049
     27 C           1.0808   -0.5472   20.4290 C.3     1  UNL1        0.0372
     28 C           0.1141    0.5978   20.4948 C.3     1  UNL1        0.0901
     29 C           0.3513    1.8280   19.6699 C.2     1  UNL1        0.2264
     30 O          -0.6155    2.9730   19.7356 O.2     1  UNL1       -0.2748
     31 N           1.5552    1.9132   18.7793 N.am    1  UNL1       -0.2842
     32 H           1.7109    2.7206   18.2379 H       1  UNL1        0.1548
@<TRIPOS>BOND
     1     1     2    1
     2     2    18    1
     3    18    19    1
     4    18    21    1
     5    21    22   ar
     6    22    23   ar
     7    23    24   ar
     8    24    25   ar
     9    25    26   ar
    10    25    27    1
    11    27    28    1
    12    28    29    1
    13    29    30    2
    14    29    31   am
    15     2     3    1
    16     3     4    1
    17     4     5    1
    18     5     6    1
    19     6     7    1
    20     6    11    1
    21    11    12   ar
    22    12    13   ar
    23    13    14   ar
    24    14    15    1
    25    14    16   ar
    26    16    17   ar
    27     6     8    1
    28     8     9    1
    29    26    21   ar
    30     9     3    1
    31    31    24    1
    32    17    11   ar
    33    19    20    1
    34    31    32    1
    35     7    10    1
@<TRIPOS>MOLECULE
*****
 32 35 0 0 0
SMALL
GASTEIGER

@<TRIPOS>ATOM
      1 C           9.2077   -2.9573   22.0391 C.3     1  UNL1        0.0203
      2 C           8.1473   -3.9813   21.7614 C.3     1  UNL1        0.0888
      3 N           6.9150   -3.5966   20.9975 N.3     1  UNL1       -0.2713
      4 C           6.2357   -4.6011   20.1148 C.3     1  UNL1        0.0749
      5 C           5.0034   -4.2164   19.3509 C.3     1  UNL1        0.0485
      6 C           4.4504   -2.8271   19.4698 C.3     1  UNL1        0.1096
      7 O           3.4595   -3.4208   18.5129 O.3     1  UNL1       -0.3826
      8 C           5.1298   -1.8225   20.3526 C.3     1  UNL1        0.0485
      9 C           6.3621   -2.2072   21.1165 C.3     1  UNL1        0.0749
     10 H           3.6948   -4.3451   18.3359 H       1  UNL1        0.2107
     11 C           3.5534   -1.6440   19.2564 C.ar    1  UNL1        0.0019
     12 C           2.3474   -1.4505   20.1270 C.ar    1  UNL1        0.0003
     13 C           1.4503   -0.2674   19.9137 C.ar    1  UNL1        0.0294
     14 C           1.7593    0.7222   18.8296 C.ar    1  UNL1        0.1401
     15 F           0.8622    1.9053   18.6162 F       1  UNL1       -0.2042
     16 C           2.9653    0.5287   17.9589 C.ar    1  UNL1        0.0294
     17 C           3.8623   -0.6544   18.1724 C.ar    1  UNL1        0.0003
     18 C           8.3192   -5.3898   22.2475 C.3     1  UNL1        0.1472
     19 O           8.7355   -6.4678   21.2911 O.3     1  UNL1       -0.3787
     20 H           8.7997   -7.3124   21.7638 H       1  UNL1        0.2108
     21 C           8.0747   -5.7205   23.6901 C.ar    1  UNL1        0.0053
     22 C           8.2852   -7.1209   24.1846 C.ar    1  UNL1       -0.0007
     23 C           8.0407   -7.4515   25.6271 C.ar    1  UNL1        0.0141
     24 C           7.5859   -6.3818   26.5751 C.ar    1  UNL1        0.0462
     25 C           7.3754   -4.9814   26.0806 C.ar    1  UNL1       -0.0085
     26 C           7.6198   -4.6508   24.6381 C.ar    1  UNL1       -0.0049
     27 C           6.9205   -3.9116   27.0286 C.3     1  UNL1        0.0372
     28 C           6.6761   -4.2423   28.4711 C.3     1  UNL1        0.0901
     29 C           6.8865   -5.6427   28.9657 C.2     1  UNL1        0.2264
     30 O           6.6421   -5.9733   30.4082 O.2     1  UNL1       -0.2748
     31 N           7.3414   -6.7125   28.0177 N.am    1  UNL1       -0.2842
     32 H           7.4795   -7.6316   28.3423 H       1  UNL1        0.1548
@<TRIPOS>BOND
     1     1     2    1
     2     2    18    1
     3    18    19    1
     4    18    21    1
     5    21    22   ar
     6    22    23   ar
     7    23    24   ar
     8    24    25   ar
     9    25    26   ar
    10    25    27    1
    11    27    28    1
    12    28    29    1
    13    29    30    2
    14    29    31   am
    15     2     3    1
    16     3     4    1
    17     4     5    1
    18     5     6    1
    19     6     7    1
    20     6    11    1
    21    11    12   ar
    22    12    13   ar
    23    13    14   ar
    24    14    15    1
    25    14    16   ar
    26    16    17   ar
    27     6     8    1
    28     8     9    1
    29    26    21   ar
    30     9     3    1
    31    31    24    1
    32    17    11   ar
    33    19    20    1
    34    31    32    1
    35     7    10    1
@<TRIPOS>MOLECULE
*****
 32 35 0 0 0
SMALL
GASTEIGER

@<TRIPOS>ATOM
      1 C           1.9396    3.0598   21.4444 C.3     1  UNL1        0.0203
      2 C           0.9591    2.0337   21.9301 C.3     1  UNL1        0.0888
      3 N           0.0680    2.3412   23.0969 N.3     1  UNL1       -0.2713
      4 C           0.3514    1.7320   24.4380 C.3     1  UNL1        0.0749
      5 C          -0.5396    2.0394   25.6048 C.3     1  UNL1        0.0485
      6 C          -1.7141    2.9561   25.4306 C.3     1  UNL1        0.1096
      7 O          -1.8556    2.6253   26.8868 O.3     1  UNL1       -0.3826
      8 C          -1.9975    3.5653   24.0894 C.3     1  UNL1        0.0485
      9 C          -1.1065    3.2579   22.9226 C.3     1  UNL1        0.0749
     10 H          -1.1438    2.0221   27.1521 H       1  UNL1        0.2107
     11 C          -2.9377    3.7579   25.7621 C.ar    1  UNL1        0.0019
     12 C          -2.8891    4.7828   26.8561 C.ar    1  UNL1        0.0003
     13 C          -4.1127    5.5847   27.1877 C.ar    1  UNL1        0.0294
     14 C          -5.3850    5.3614   26.4250 C.ar    1  UNL1        0.1401
     15 F          -6.6086    6.1633   26.7565 F       1  UNL1       -0.2042
     16 C          -5.4336    4.3365   25.3309 C.ar    1  UNL1        0.0294
     17 C          -4.2100    3.5347   24.9994 C.ar    1  UNL1        0.0003
     18 C           0.8696    0.7003   21.2489 C.3     1  UNL1        0.1472
     19 O          -0.3656    0.3313   20.4820 O.3     1  UNL1       -0.3787
     20 H          -0.2600   -0.5571   20.1071 H       1  UNL1        0.2108
     21 C           2.0153   -0.2641   21.3347 C.ar    1  UNL1        0.0053
     22 C           2.7825   -0.4053   22.6159 C.ar    1  UNL1       -0.0007
     23 C           3.9281   -1.3697   22.7016 C.ar    1  UNL1        0.0141
     24 C           4.3066   -2.1929   21.5062 C.ar    1  UNL1        0.0462
     25 C           3.5394   -2.0517   20.2250 C.ar    1  UNL1       -0.0085
     26 C           2.3938   -1.0873   20.1393 C.ar    1  UNL1       -0.0049
     27 C           3.9179   -2.8749   19.0295 C.3     1  UNL1        0.0372
     28 C           5.0635   -3.8393   19.1153 C.3     1  UNL1        0.0901
     29 C           5.8308   -3.9805   20.3965 C.2     1  UNL1        0.2264
     30 O           6.9764   -4.9449   20.4822 O.2     1  UNL1       -0.2748
     31 N           5.4523   -3.1573   21.5920 N.am    1  UNL1       -0.2842
     32 H           5.9558   -3.2500   22.4329 H       1  UNL1        0.1548
@<TRIPOS>BOND
     1     1     2    1
     2     2    18    1
     3    18    19    1
     4    18    21    1
     5    21    22   ar
     6    22    23   ar
     7    23    24   ar
     8    24    25   ar
     9    25    26   ar
    10    25    27    1
    11    27    28    1
    12    28    29    1
    13    29    30    2
    14    29    31   am
    15     2     3    1
    16     3     4    1
    17     4     5    1
    18     5     6    1
    19     6     7    1
    20     6    11    1
    21    11    12   ar
    22    12    13   ar
    23    13    14   ar
    24    14    15    1
    25    14    16   ar
    26    16    17   ar
    27     6     8    1
    28     8     9    1
    29    26    21   ar
    30     9     3    1
    31    31    24    1
    32    17    11   ar
    33    19    20    1
    34    31    32    1
    35     7    10    1
