@<TRIPOS>MOLECULE
*****
 30 33 0 0 0
SMALL
GASTEIGER

@<TRIPOS>ATOM
      1 N          -6.3695  -18.5150   22.2278 N.am    1  UNL1       -0.2683
      2 C          -7.7746  -18.2346   21.7838 C.2     1  UNL1        0.3047
      3 O          -8.2749  -18.7893   20.4830 O.2     1  UNL1       -0.2525
      4 N          -8.6794  -17.3997   22.6406 N.am    1  UNL1       -0.2863
      5 H          -6.0411  -18.1510   23.0815 H       1  UNL1        0.1564
      6 H          -8.3510  -17.0356   23.4944 H       1  UNL1        0.1512
      7 C         -10.0844  -17.1193   22.1967 C.3     1  UNL1        0.1019
      8 C         -10.3331  -16.3957   20.9065 C.3     1  UNL1        0.0642
      9 C         -11.7382  -16.1154   20.4626 C.3     1  UNL1        0.1352
     10 C         -12.8793  -15.6215   19.6235 C.3     1  UNL1        0.0437
     11 C         -10.9781  -15.5005   19.3249 C.3     1  UNL1        0.0437
     12 O         -12.8947  -16.5587   21.3088 O.3     1  UNL1       -0.4827
     13 C         -12.6460  -17.2823   22.5989 C.ar    1  UNL1        0.1379
     14 C         -13.8025  -17.7257   23.4451 C.ar    1  UNL1        0.0662
     15 C         -13.5538  -18.4493   24.7353 C.ar    1  UNL1        0.1431
     16 F         -14.7103  -18.8926   25.5815 F       1  UNL1       -0.2041
     17 C         -12.1487  -18.7296   25.1792 C.ar    1  UNL1        0.0296
     18 C         -10.9923  -18.2863   24.3330 C.ar    1  UNL1        0.0026
     19 C         -11.2410  -17.5627   23.0429 C.ar    1  UNL1        0.0298
     20 C          -1.7120  -15.7899   21.8643 C.3     1  UNL1        0.0521
     21 C          -2.1978  -17.0974   21.3125 C.ar    1  UNL1        0.0594
     22 C          -3.5883  -17.5700   21.6176 C.ar    1  UNL1        0.0160
     23 C          -4.0741  -18.8775   21.0658 C.ar    1  UNL1        0.0162
     24 C          -5.4647  -19.3500   21.3709 C.ar    1  UNL1        0.0516
     25 C          -5.9505  -20.6575   20.8192 C.ar    1  UNL1        0.0147
     26 C          -5.0457  -21.4925   19.9623 C.ar    1  UNL1        0.0013
     27 C          -3.6551  -21.0199   19.6572 C.ar    1  UNL1        0.0016
     28 C          -3.1694  -19.7124   20.2090 C.ar    1  UNL1        0.0204
     29 C          -1.7788  -19.2399   19.9040 C.ar    1  UNL1        0.0984
     30 N          -1.2931  -17.9324   20.4557 N.ar    1  UNL1       -0.2481
@<TRIPOS>BOND
     1    20    21    1
     2    21    22   ar
     3    22    23   ar
     4    23    24   ar
     5    24     1    1
     6     1     2   am
     7     2     3    2
     8     2     4   am
     9     7     4    1
    10     7     8    1
    11     8     9    1
    12     9    10    1
    13     9    11    1
    14     9    12    1
    15    12    13    1
    16    13    14   ar
    17    14    15   ar
    18    15    16    1
    19    15    17   ar
    20    17    18   ar
    21    18    19   ar
    22    24    25   ar
    23    25    26   ar
    24    26    27   ar
    25    27    28   ar
    26    28    29   ar
    27    29    30   ar
    28    30    21   ar
    29    28    23   ar
    30    19     7    1
    31    19    13   ar
    32     1     5    1
    33     4     6    1
@<TRIPOS>MOLECULE
*****
 30 33 0 0 0
SMALL
GASTEIGER

@<TRIPOS>ATOM
      1 N          -8.2463  -17.3109   23.5457 N.am    1  UNL1       -0.2683
      2 C          -7.3447  -18.1139   22.6555 C.2     1  UNL1        0.3047
      3 O          -7.8888  -19.2924   21.9037 O.2     1  UNL1       -0.2525
      4 N          -5.8991  -17.7384   22.5171 N.am    1  UNL1       -0.2863
      5 H          -7.8892  -16.5374   24.0391 H       1  UNL1        0.1564
      6 H          -5.5420  -16.9650   23.0106 H       1  UNL1        0.1512
      7 C          -4.9976  -18.5414   21.6270 C.3     1  UNL1        0.1019
      8 C          -5.4691  -19.8505   21.0665 C.3     1  UNL1        0.0642
      9 C          -4.5675  -20.6535   20.1763 C.3     1  UNL1        0.1352
     10 C          -4.0846  -21.7665   19.2943 C.3     1  UNL1        0.0437
     11 C          -5.7728  -21.5461   20.1997 C.3     1  UNL1        0.0437
     12 O          -3.1945  -20.1475   19.8466 O.3     1  UNL1       -0.4827
     13 C          -2.7230  -18.8384   20.4071 C.ar    1  UNL1        0.1379
     14 C          -1.3500  -18.3324   20.0774 C.ar    1  UNL1        0.0662
     15 C          -0.8786  -17.0233   20.6378 C.ar    1  UNL1        0.1431
     16 F           0.4945  -16.5173   20.3080 F       1  UNL1       -0.2041
     17 C          -1.7801  -16.2203   21.5279 C.ar    1  UNL1        0.0296
     18 C          -3.1531  -16.7264   21.8577 C.ar    1  UNL1        0.0026
     19 C          -3.6245  -18.0354   21.2972 C.ar    1  UNL1        0.0298
     20 C         -10.7521  -15.2497   19.2187 C.3     1  UNL1        0.0521
     21 C         -11.2099  -16.0466   20.4042 C.ar    1  UNL1        0.0594
     22 C         -10.2221  -16.4680   21.4513 C.ar    1  UNL1        0.0160
     23 C         -10.6799  -17.2649   22.6368 C.ar    1  UNL1        0.0162
     24 C          -9.6920  -17.6863   23.6840 C.ar    1  UNL1        0.0516
     25 C         -10.1497  -18.4832   24.8695 C.ar    1  UNL1        0.0147
     26 C         -11.5955  -18.8587   25.0078 C.ar    1  UNL1        0.0013
     27 C         -12.5833  -18.4372   23.9607 C.ar    1  UNL1        0.0016
     28 C         -12.1255  -17.6404   22.7752 C.ar    1  UNL1        0.0204
     29 C         -13.1133  -17.2189   21.7281 C.ar    1  UNL1        0.0984
     30 N         -12.6555  -16.4221   20.5426 N.ar    1  UNL1       -0.2481
@<TRIPOS>BOND
     1    20    21    1
     2    21    22   ar
     3    22    23   ar
     4    23    24   ar
     5    24     1    1
     6     1     2   am
     7     2     3    2
     8     2     4   am
     9     7     4    1
    10     7     8    1
    11     8     9    1
    12     9    10    1
    13     9    11    1
    14     9    12    1
    15    12    13    1
    16    13    14   ar
    17    14    15   ar
    18    15    16    1
    19    15    17   ar
    20    17    18   ar
    21    18    19   ar
    22    24    25   ar
    23    25    26   ar
    24    26    27   ar
    25    27    28   ar
    26    28    29   ar
    27    29    30   ar
    28    30    21   ar
    29    28    23   ar
    30    19     7    1
    31    19    13   ar
    32     1     5    1
    33     4     6    1
@<TRIPOS>MOLECULE
*****
 30 33 0 0 0
SMALL
GASTEIGER

@<TRIPOS>ATOM
      1 N          -6.2623  -17.6337   23.5334 N.am    1  UNL1       -0.2683
      2 C          -7.5254  -17.3534   22.7743 C.2     1  UNL1        0.3047
      3 O          -7.4641  -17.0208   21.3130 O.2     1  UNL1       -0.2525
      4 N          -8.8497  -17.4058   23.4767 N.am    1  UNL1       -0.2863
      5 H          -6.3025  -17.8520   24.4925 H       1  UNL1        0.1564
      6 H          -8.8900  -17.6241   24.4358 H       1  UNL1        0.1512
      7 C         -10.1128  -17.1255   22.7176 C.3     1  UNL1        0.1019
      8 C         -10.0537  -16.4054   21.4031 C.3     1  UNL1        0.0642
      9 C         -11.3168  -16.1251   20.6441 C.3     1  UNL1        0.1352
     10 C         -12.2309  -15.6327   19.5615 C.3     1  UNL1        0.0437
     11 C         -10.3122  -15.5143   19.7126 C.3     1  UNL1        0.0437
     12 O         -12.6389  -16.5650   21.1996 O.3     1  UNL1       -0.4827
     13 C         -12.6980  -17.2851   22.5141 C.ar    1  UNL1        0.1379
     14 C         -14.0200  -17.7249   23.0696 C.ar    1  UNL1        0.0662
     15 C         -14.0791  -18.4450   24.3841 C.ar    1  UNL1        0.1431
     16 F         -15.4013  -18.8848   24.9396 F       1  UNL1       -0.2041
     17 C         -12.8161  -18.7253   25.1431 C.ar    1  UNL1        0.0296
     18 C         -11.4940  -18.2854   24.5877 C.ar    1  UNL1        0.0026
     19 C         -11.4349  -17.5653   23.2731 C.ar    1  UNL1        0.0298
     20 C          -6.2316  -21.7940   20.0778 C.3     1  UNL1        0.0521
     21 C          -5.2460  -20.7146   20.4149 C.ar    1  UNL1        0.0594
     22 C          -5.5847  -19.6877   21.4544 C.ar    1  UNL1        0.0160
     23 C          -4.5991  -18.6083   21.7915 C.ar    1  UNL1        0.0162
     24 C          -4.9379  -17.5813   22.8310 C.ar    1  UNL1        0.0516
     25 C          -3.9523  -16.5020   23.1682 C.ar    1  UNL1        0.0147
     26 C          -2.6279  -16.4497   22.4658 C.ar    1  UNL1        0.0013
     27 C          -2.2892  -17.4767   21.4263 C.ar    1  UNL1        0.0016
     28 C          -3.2748  -18.5560   21.0892 C.ar    1  UNL1        0.0204
     29 C          -2.9360  -19.5830   20.0497 C.ar    1  UNL1        0.0984
     30 N          -3.9216  -20.6623   19.7126 N.ar    1  UNL1       -0.2481
@<TRIPOS>BOND
     1    20    21    1
     2    21    22   ar
     3    22    23   ar
     4    23    24   ar
     5    24     1    1
     6     1     2   am
     7     2     3    2
     8     2     4   am
     9     7     4    1
    10     7     8    1
    11     8     9    1
    12     9    10    1
    13     9    11    1
    14     9    12    1
    15    12    13    1
    16    13    14   ar
    17    14    15   ar
    18    15    16    1
    19    15    17   ar
    20    17    18   ar
    21    18    19   ar
    22    24    25   ar
    23    25    26   ar
    24    26    27   ar
    25    27    28   ar
    26    28    29   ar
    27    29    30   ar
    28    30    21   ar
    29    28    23   ar
    30    19     7    1
    31    19    13   ar
    32     1     5    1
    33     4     6    1
@<TRIPOS>MOLECULE
*****
 30 33 0 0 0
SMALL
GASTEIGER

@<TRIPOS>ATOM
      1 N         -16.2604   -7.3734   16.9926 N.am    1  UNL1       -0.2683
      2 C         -15.0710   -6.7984   17.7032 C.2     1  UNL1        0.3047
      3 O         -14.9603   -6.9141   19.1947 O.2     1  UNL1       -0.2525
      4 N         -13.9926   -6.1076   16.9225 N.am    1  UNL1       -0.2863
      5 H         -16.3331   -7.2974   16.0138 H       1  UNL1        0.1564
      6 H         -14.0653   -6.0316   15.9436 H       1  UNL1        0.1512
      7 C         -12.8033   -5.5326   17.6331 C.3     1  UNL1        0.1019
      8 C         -11.6854   -6.4311   18.0724 C.3     1  UNL1        0.0642
      9 C         -10.4962   -5.8560   18.7831 C.3     1  UNL1        0.1352
     10 C          -9.1720   -5.7841   19.4840 C.3     1  UNL1        0.0437
     11 C         -10.1076   -7.3045   18.7552 C.3     1  UNL1        0.0437
     12 O         -10.4248   -4.3825   19.0544 O.3     1  UNL1       -0.4827
     13 C         -11.5427   -3.4840   18.6150 C.ar    1  UNL1        0.1379
     14 C         -11.4714   -2.0105   18.8863 C.ar    1  UNL1        0.0662
     15 C         -12.5893   -1.1120   18.4470 C.ar    1  UNL1        0.1431
     16 F         -12.5179    0.3616   18.7183 F       1  UNL1       -0.2041
     17 C         -13.7785   -1.6870   17.7363 C.ar    1  UNL1        0.0296
     18 C         -13.8498   -3.1605   17.4651 C.ar    1  UNL1        0.0026
     19 C         -12.7319   -4.0590   17.9044 C.ar    1  UNL1        0.0298
     20 C         -19.1804   -3.4541   19.3083 C.3     1  UNL1        0.0521
     21 C         -19.2592   -4.9520   19.3150 C.ar    1  UNL1        0.0594
     22 C         -18.2596   -5.7591   18.5409 C.ar    1  UNL1        0.0160
     23 C         -18.3385   -7.2570   18.5476 C.ar    1  UNL1        0.0162
     24 C         -17.3388   -8.0642   17.7734 C.ar    1  UNL1        0.0516
     25 C         -17.4177   -9.5621   17.7801 C.ar    1  UNL1        0.0147
     26 C         -18.4963  -10.2528   18.5610 C.ar    1  UNL1        0.0013
     27 C         -19.4959   -9.4457   19.3351 C.ar    1  UNL1        0.0016
     28 C         -19.4170   -7.9478   19.3284 C.ar    1  UNL1        0.0204
     29 C         -20.4166   -7.1406   20.1025 C.ar    1  UNL1        0.0984
     30 N         -20.3377   -5.6427   20.0958 N.ar    1  UNL1       -0.2481
@<TRIPOS>BOND
     1    20    21    1
     2    21    22   ar
     3    22    23   ar
     4    23    24   ar
     5    24     1    1
     6     1     2   am
     7     2     3    2
     8     2     4   am
     9     7     4    1
    10     7     8    1
    11     8     9    1
    12     9    10    1
    13     9    11    1
    14     9    12    1
    15    12    13    1
    16    13    14   ar
    17    14    15   ar
    18    15    16    1
    19    15    17   ar
    20    17    18   ar
    21    18    19   ar
    22    24    25   ar
    23    25    26   ar
    24    26    27   ar
    25    27    28   ar
    26    28    29   ar
    27    29    30   ar
    28    30    21   ar
    29    28    23   ar
    30    19     7    1
    31    19    13   ar
    32     1     5    1
    33     4     6    1
@<TRIPOS>MOLECULE
*****
 30 33 0 0 0
SMALL
GASTEIGER

@<TRIPOS>ATOM
      1 N         -16.3619   -7.0404   16.8991 N.am    1  UNL1       -0.2683
      2 C         -15.2576   -6.2963   17.5897 C.2     1  UNL1        0.3047
      3 O         -15.1334   -6.3549   19.0834 O.2     1  UNL1       -0.2525
      4 N         -14.2775   -5.4936   16.7865 N.am    1  UNL1       -0.2863
      5 H         -16.4435   -7.0019   15.9187 H       1  UNL1        0.1564
      6 H         -14.3590   -5.4551   15.8061 H       1  UNL1        0.1512
      7 C         -13.1732   -4.7496   17.4771 C.3     1  UNL1        0.1019
      8 C         -13.2752   -3.2656   17.6704 C.3     1  UNL1        0.0642
      9 C         -12.1708   -2.5216   18.3610 C.3     1  UNL1        0.1352
     10 C         -11.3915   -1.3832   18.9499 C.3     1  UNL1        0.0437
     11 C         -13.1064   -1.3862   18.0683 C.3     1  UNL1        0.0437
     12 O         -10.9645   -3.2615   18.8582 O.3     1  UNL1       -0.4827
     13 C         -10.8625   -4.7455   18.6649 C.ar    1  UNL1        0.1379
     14 C          -9.6562   -5.4855   19.1621 C.ar    1  UNL1        0.0662
     15 C          -9.5543   -6.9695   18.9688 C.ar    1  UNL1        0.1431
     16 F          -8.3479   -7.7095   19.4661 F       1  UNL1       -0.2041
     17 C         -10.6585   -7.7135   18.2783 C.ar    1  UNL1        0.0296
     18 C         -11.8648   -6.9735   17.7810 C.ar    1  UNL1        0.0026
     19 C         -11.9668   -5.4896   17.9743 C.ar    1  UNL1        0.0298
     20 C         -19.5399   -3.4539   19.4067 C.3     1  UNL1        0.0521
     21 C         -19.4805   -4.9525   19.3821 C.ar    1  UNL1        0.0594
     22 C         -18.4410   -5.6485   18.5545 C.ar    1  UNL1        0.0160
     23 C         -18.3816   -7.1471   18.5300 C.ar    1  UNL1        0.0162
     24 C         -17.3420   -7.8430   17.7022 C.ar    1  UNL1        0.0516
     25 C         -17.2827   -9.3417   17.6777 C.ar    1  UNL1        0.0147
     26 C         -18.2628  -10.1443   18.4809 C.ar    1  UNL1        0.0013
     27 C         -19.3023   -9.4484   19.3086 C.ar    1  UNL1        0.0016
     28 C         -19.3617   -7.9497   19.3331 C.ar    1  UNL1        0.0204
     29 C         -20.4012   -7.2538   20.1608 C.ar    1  UNL1        0.0984
     30 N         -20.4606   -5.7552   20.1853 N.ar    1  UNL1       -0.2481
@<TRIPOS>BOND
     1    20    21    1
     2    21    22   ar
     3    22    23   ar
     4    23    24   ar
     5    24     1    1
     6     1     2   am
     7     2     3    2
     8     2     4   am
     9     7     4    1
    10     7     8    1
    11     8     9    1
    12     9    10    1
    13     9    11    1
    14     9    12    1
    15    12    13    1
    16    13    14   ar
    17    14    15   ar
    18    15    16    1
    19    15    17   ar
    20    17    18   ar
    21    18    19   ar
    22    24    25   ar
    23    25    26   ar
    24    26    27   ar
    25    27    28   ar
    26    28    29   ar
    27    29    30   ar
    28    30    21   ar
    29    28    23   ar
    30    19     7    1
    31    19    13   ar
    32     1     5    1
    33     4     6    1
@<TRIPOS>MOLECULE
*****
 30 33 0 0 0
SMALL
GASTEIGER

@<TRIPOS>ATOM
      1 N           1.7215    2.2839   20.3216 N.am    1  UNL1       -0.2683
      2 C           0.2388    2.3154   20.5468 C.2     1  UNL1        0.3047
      3 O          -0.5875    1.0939   20.2727 O.2     1  UNL1       -0.2525
      4 N          -0.4175    3.5684   21.0460 N.am    1  UNL1       -0.2863
      5 H           2.2639    3.0856   20.5015 H       1  UNL1        0.1564
      6 H           0.1248    4.3701   21.2258 H       1  UNL1        0.1512
      7 C          -1.9002    3.5998   21.2711 C.3     1  UNL1        0.1019
      8 C          -2.8359    3.6434   20.0996 C.3     1  UNL1        0.0642
      9 C          -4.3186    3.6748   20.3248 C.3     1  UNL1        0.1352
     10 C          -5.7886    3.7154   20.0292 C.3     1  UNL1        0.0437
     11 C          -4.2823    3.7011   18.8254 C.3     1  UNL1        0.0437
     12 O          -4.8655    3.6627   21.7215 O.3     1  UNL1       -0.4827
     13 C          -3.9298    3.6191   22.8930 C.ar    1  UNL1        0.1379
     14 C          -4.4767    3.6069   24.2896 C.ar    1  UNL1        0.0662
     15 C          -3.5409    3.5633   25.4612 C.ar    1  UNL1        0.1431
     16 F          -4.0879    3.5512   26.8579 F       1  UNL1       -0.2041
     17 C          -2.0583    3.5319   25.2360 C.ar    1  UNL1        0.0296
     18 C          -1.5114    3.5441   23.8394 C.ar    1  UNL1        0.0026
     19 C          -2.4471    3.5877   22.6678 C.ar    1  UNL1        0.0298
     20 C           3.1274   -0.5284   24.7221 C.3     1  UNL1        0.0521
     21 C           3.2682   -0.7651   23.2476 C.ar    1  UNL1        0.0594
     22 C           2.7527    0.2512   22.2722 C.ar    1  UNL1        0.0160
     23 C           2.8935    0.0146   20.7977 C.ar    1  UNL1        0.0162
     24 C           2.3779    1.0310   19.8224 C.ar    1  UNL1        0.0516
     25 C           2.5187    0.7943   18.3479 C.ar    1  UNL1        0.0147
     26 C           3.1751   -0.4588   17.8487 C.ar    1  UNL1        0.0013
     27 C           3.6906   -1.4751   18.8240 C.ar    1  UNL1        0.0016
     28 C           3.5498   -1.2384   20.2985 C.ar    1  UNL1        0.0204
     29 C           4.0654   -2.2547   21.2739 C.ar    1  UNL1        0.0984
     30 N           3.9246   -2.0180   22.7484 N.ar    1  UNL1       -0.2481
@<TRIPOS>BOND
     1    20    21    1
     2    21    22   ar
     3    22    23   ar
     4    23    24   ar
     5    24     1    1
     6     1     2   am
     7     2     3    2
     8     2     4   am
     9     7     4    1
    10     7     8    1
    11     8     9    1
    12     9    10    1
    13     9    11    1
    14     9    12    1
    15    12    13    1
    16    13    14   ar
    17    14    15   ar
    18    15    16    1
    19    15    17   ar
    20    17    18   ar
    21    18    19   ar
    22    24    25   ar
    23    25    26   ar
    24    26    27   ar
    25    27    28   ar
    26    28    29   ar
    27    29    30   ar
    28    30    21   ar
    29    28    23   ar
    30    19     7    1
    31    19    13   ar
    32     1     5    1
    33     4     6    1
@<TRIPOS>MOLECULE
*****
 30 33 0 0 0
SMALL
GASTEIGER

@<TRIPOS>ATOM
      1 N           5.8494   -1.5025   23.0867 N.am    1  UNL1       -0.2683
      2 C           6.0731   -2.7858   23.8305 C.2     1  UNL1        0.3047
      3 O           5.4214   -4.0509   23.3562 O.2     1  UNL1       -0.2525
      4 N           6.9484   -2.8040   25.0484 N.am    1  UNL1       -0.2863
      5 H           6.2771   -0.6722   23.3980 H       1  UNL1        0.1564
      6 H           7.3761   -1.9737   25.3597 H       1  UNL1        0.1512
      7 C           7.1720   -4.0873   25.7921 C.3     1  UNL1        0.1019
      8 C           7.5666   -5.3275   25.0462 C.3     1  UNL1        0.0642
      9 C           7.7903   -6.6108   25.7900 C.3     1  UNL1        0.1352
     10 C           8.1121   -8.0531   26.0474 C.3     1  UNL1        0.0437
     11 C           8.0730   -7.0686   24.3898 C.3     1  UNL1        0.0437
     12 O           7.6193   -6.6539   27.2796 O.3     1  UNL1       -0.4827
     13 C           7.2246   -5.4138   28.0255 C.ar    1  UNL1        0.1379
     14 C           7.0536   -5.4569   29.5150 C.ar    1  UNL1        0.0662
     15 C           6.6590   -4.2168   30.2609 C.ar    1  UNL1        0.1431
     16 F           6.4880   -4.2600   31.7505 F       1  UNL1       -0.2041
     17 C           6.4354   -2.9335   29.5172 C.ar    1  UNL1        0.0296
     18 C           6.6064   -2.8904   28.0276 C.ar    1  UNL1        0.0026
     19 C           7.0010   -4.1305   27.2818 C.ar    1  UNL1        0.0298
     20 C           9.0998   -2.5301   18.8881 C.3     1  UNL1        0.0521
     21 C           7.6307   -2.2596   19.0242 C.ar    1  UNL1        0.0594
     22 C           7.0370   -2.0072   20.3784 C.ar    1  UNL1        0.0160
     23 C           5.5679   -1.7366   20.5145 C.ar    1  UNL1        0.0162
     24 C           4.9741   -1.4843   21.8688 C.ar    1  UNL1        0.0516
     25 C           3.5050   -1.2137   22.0049 C.ar    1  UNL1        0.0147
     26 C           2.6297   -1.1955   20.7869 C.ar    1  UNL1        0.0013
     27 C           3.2234   -1.4478   19.4328 C.ar    1  UNL1        0.0016
     28 C           4.6925   -1.7184   19.2966 C.ar    1  UNL1        0.0204
     29 C           5.2863   -1.9708   17.9425 C.ar    1  UNL1        0.0984
     30 N           6.7554   -2.2413   17.8063 N.ar    1  UNL1       -0.2481
@<TRIPOS>BOND
     1    20    21    1
     2    21    22   ar
     3    22    23   ar
     4    23    24   ar
     5    24     1    1
     6     1     2   am
     7     2     3    2
     8     2     4   am
     9     7     4    1
    10     7     8    1
    11     8     9    1
    12     9    10    1
    13     9    11    1
    14     9    12    1
    15    12    13    1
    16    13    14   ar
    17    14    15   ar
    18    15    16    1
    19    15    17   ar
    20    17    18   ar
    21    18    19   ar
    22    24    25   ar
    23    25    26   ar
    24    26    27   ar
    25    27    28   ar
    26    28    29   ar
    27    29    30   ar
    28    30    21   ar
    29    28    23   ar
    30    19     7    1
    31    19    13   ar
    32     1     5    1
    33     4     6    1
@<TRIPOS>MOLECULE
*****
 30 33 0 0 0
SMALL
GASTEIGER

@<TRIPOS>ATOM
      1 N          -0.5298    3.5768   21.1297 N.am    1  UNL1       -0.2683
      2 C           0.2217    2.2988   20.9015 C.2     1  UNL1        0.3047
      3 O          -0.5268    1.0196   20.6709 O.2     1  UNL1       -0.2525
      4 N           1.7217    2.3001   20.9039 N.am    1  UNL1       -0.2863
      5 H          -0.0385    4.4165   21.2811 H       1  UNL1        0.1564
      6 H           2.2130    3.1398   21.0552 H       1  UNL1        0.1512
      7 C           2.4731    1.0222   20.6757 C.3     1  UNL1        0.1019
      8 C           2.7621    0.5614   19.2778 C.3     1  UNL1        0.0642
      9 C           3.5136   -0.7166   19.0496 C.3     1  UNL1        0.1352
     10 C           4.1854   -1.8471   18.3281 C.3     1  UNL1        0.0437
     11 C           3.2844   -0.2920   17.6293 C.3     1  UNL1        0.0437
     12 O           3.9760   -1.5338   20.2193 O.3     1  UNL1       -0.4827
     13 C           3.6871   -1.0730   21.6172 C.ar    1  UNL1        0.1379
     14 C           4.1495   -1.8902   22.7869 C.ar    1  UNL1        0.0662
     15 C           3.8606   -1.4295   24.1849 C.ar    1  UNL1        0.1431
     16 F           4.3231   -2.2467   25.3546 F       1  UNL1       -0.2041
     17 C           3.1091   -0.1515   24.4131 C.ar    1  UNL1        0.0296
     18 C           2.6467    0.6657   23.2434 C.ar    1  UNL1        0.0026
     19 C           2.9356    0.2049   21.8454 C.ar    1  UNL1        0.0298
     20 C          -2.0380    3.5284   26.3233 C.3     1  UNL1        0.0521
     21 C          -2.7859    3.5395   25.0231 C.ar    1  UNL1        0.0594
     22 C          -2.0339    3.5520   23.7253 C.ar    1  UNL1        0.0160
     23 C          -2.7818    3.5631   22.4251 C.ar    1  UNL1        0.0162
     24 C          -2.0297    3.5755   21.1273 C.ar    1  UNL1        0.0516
     25 C          -2.7777    3.5866   19.8271 C.ar    1  UNL1        0.0147
     26 C          -4.2777    3.5853   19.8248 C.ar    1  UNL1        0.0013
     27 C          -5.0298    3.5729   21.1226 C.ar    1  UNL1        0.0016
     28 C          -4.2818    3.5618   22.4227 C.ar    1  UNL1        0.0204
     29 C          -5.0338    3.5493   23.7205 C.ar    1  UNL1        0.0984
     30 N          -4.2859    3.5382   25.0207 N.ar    1  UNL1       -0.2481
@<TRIPOS>BOND
     1    20    21    1
     2    21    22   ar
     3    22    23   ar
     4    23    24   ar
     5    24     1    1
     6     1     2   am
     7     2     3    2
     8     2     4   am
     9     7     4    1
    10     7     8    1
    11     8     9    1
    12     9    10    1
    13     9    11    1
    14     9    12    1
    15    12    13    1
    16    13    14   ar
    17    14    15   ar
    18    15    16    1
    19    15    17   ar
    20    17    18   ar
    21    18    19   ar
    22    24    25   ar
    23    25    26   ar
    24    26    27   ar
    25    27    28   ar
    26    28    29   ar
    27    29    30   ar
    28    30    21   ar
    29    28    23   ar
    30    19     7    1
    31    19    13   ar
    32     1     5    1
    33     4     6    1
@<TRIPOS>MOLECULE
*****
 30 33 0 0 0
SMALL
GASTEIGER

@<TRIPOS>ATOM
      1 N           8.0006   -3.4304   23.0939 N.am    1  UNL1       -0.2683
      2 C           6.8333   -3.0412   22.2360 C.2     1  UNL1        0.3047
      3 O           5.8064   -4.0667   21.8566 O.2     1  UNL1       -0.2525
      4 N           6.6928   -1.6265   21.7576 N.am    1  UNL1       -0.2863
      5 H           8.6746   -2.7574   23.3429 H       1  UNL1        0.1564
      6 H           7.3667   -0.9534   22.0067 H       1  UNL1        0.1512
      7 C           5.5255   -1.2373   20.8998 C.3     1  UNL1        0.1019
      8 C           5.6089   -1.3823   19.4091 C.3     1  UNL1        0.0642
      9 C           4.4415   -0.9931   18.5513 C.3     1  UNL1        0.1352
     10 C           3.6080   -0.7615   17.3259 C.3     1  UNL1        0.0437
     11 C           5.4027   -1.4469   17.4929 C.3     1  UNL1        0.0437
     12 O           3.1908   -0.4589   19.1841 O.3     1  UNL1       -0.4827
     13 C           3.1075   -0.3140   20.6748 C.ar    1  UNL1        0.1379
     14 C           1.8568    0.2202   21.3076 C.ar    1  UNL1        0.0662
     15 C           1.7735    0.3652   22.7982 C.ar    1  UNL1        0.1431
     16 F           0.5228    0.8994   23.4311 F       1  UNL1       -0.2041
     17 C           2.9408   -0.0240   23.6561 C.ar    1  UNL1        0.0296
     18 C           4.1914   -0.5581   23.0232 C.ar    1  UNL1        0.0026
     19 C           4.2748   -0.7031   21.5326 C.ar    1  UNL1        0.0298
     20 C           6.1287   -3.4909   28.1676 C.3     1  UNL1        0.0521
     21 C           6.7020   -4.5368   27.2580 C.ar    1  UNL1        0.0594
     22 C           7.1349   -4.1680   25.8700 C.ar    1  UNL1        0.0160
     23 C           7.7082   -5.2139   24.9604 C.ar    1  UNL1        0.0162
     24 C           8.1411   -4.8451   23.5723 C.ar    1  UNL1        0.0516
     25 C           8.7144   -5.8910   22.6627 C.ar    1  UNL1        0.0147
     26 C           8.8549   -7.3057   23.1412 C.ar    1  UNL1        0.0013
     27 C           8.4220   -7.6745   24.5292 C.ar    1  UNL1        0.0016
     28 C           7.8487   -6.6286   25.4388 C.ar    1  UNL1        0.0204
     29 C           7.4158   -6.9974   26.8268 C.ar    1  UNL1        0.0984
     30 N           6.8425   -5.9515   27.7364 N.ar    1  UNL1       -0.2481
@<TRIPOS>BOND
     1    20    21    1
     2    21    22   ar
     3    22    23   ar
     4    23    24   ar
     5    24     1    1
     6     1     2   am
     7     2     3    2
     8     2     4   am
     9     7     4    1
    10     7     8    1
    11     8     9    1
    12     9    10    1
    13     9    11    1
    14     9    12    1
    15    12    13    1
    16    13    14   ar
    17    14    15   ar
    18    15    16    1
    19    15    17   ar
    20    17    18   ar
    21    18    19   ar
    22    24    25   ar
    23    25    26   ar
    24    26    27   ar
    25    27    28   ar
    26    28    29   ar
    27    29    30   ar
    28    30    21   ar
    29    28    23   ar
    30    19     7    1
    31    19    13   ar
    32     1     5    1
    33     4     6    1
