@<TRIPOS>MOLECULE
*****
 22 25 0 0 0
SMALL
GASTEIGER

@<TRIPOS>ATOM
      1 N          -4.4215  -19.3234   21.5562 N.am    1  UNL1       -0.2733
      2 C          -4.8892  -20.1319   20.3825 C.3     1  UNL1        0.1000
      3 C          -6.3357  -20.1111   19.9861 C.3     1  UNL1        0.0654
      4 C          -7.3145  -19.2819   20.7635 C.ar    1  UNL1        0.0432
      5 C          -6.8468  -18.4734   21.9372 C.ar    1  UNL1        0.0666
      6 C          -8.0340  -17.7568   22.5091 C.ar    1  UNL1        0.0212
      7 C          -8.1763  -16.8186   23.6708 C.ar    1  UNL1        0.0016
      8 C          -9.5200  -16.2461   24.0122 C.ar    1  UNL1        0.0001
      9 C         -10.7214  -16.6117   23.1920 C.ar    1  UNL1        0.0015
     10 C         -10.5792  -17.5499   22.0303 C.ar    1  UNL1        0.0172
     11 C          -9.2355  -18.1224   21.6889 C.ar    1  UNL1        0.0598
     12 N          -8.7908  -19.0650   20.6100 N.ar    1  UNL1       -0.3284
     13 C          -9.6684  -19.6822   19.5618 C.3     1  UNL1        0.1301
     14 C          -5.4003  -18.4941   22.3335 C.2     1  UNL1        0.2502
     15 O          -4.9325  -17.6856   23.5073 O.2     1  UNL1       -0.2699
     16 C          -2.9749  -19.3441   21.9526 C.3     1  UNL1        0.1237
     17 C          -2.4755  -16.1201   22.0304 C.3     1  UNL1        0.0494
     18 C          -1.7346  -17.1066   21.1773 C.2     1  UNL1        0.0628
     19 N          -0.6342  -16.7846   20.2102 N.2     1  UNL1       -0.2310
     20 C          -0.1836  -18.0675   19.5767 C.2     1  UNL1        0.1939
     21 N          -1.0056  -19.1824   20.1523 N.2     1  UNL1       -0.2446
     22 C          -1.9642  -18.5885   21.1416 C.3     1  UNL1        0.1603
@<TRIPOS>BOND
     1    17    18    1
     2    18    19    2
     3    19    20    1
     4    20    21    2
     5    21    22    1
     6    22    16    1
     7    16     1    1
     8     1     2    1
     9     2     3    1
    10     3     4    1
    11     4     5   ar
    12     5     6   ar
    13     6     7   ar
    14     7     8   ar
    15     8     9   ar
    16     9    10   ar
    17    10    11   ar
    18    11    12   ar
    19    12    13    1
    20     5    14    1
    21    14    15    2
    22    22    18    1
    23    14     1   am
    24    12     4   ar
    25    11     6   ar
@<TRIPOS>MOLECULE
*****
 22 25 0 0 0
SMALL
GASTEIGER

@<TRIPOS>ATOM
      1 N          -4.2237  -18.5139   22.5080 N.am    1  UNL1       -0.2733
      2 C          -3.9792  -17.2552   23.2863 C.3     1  UNL1        0.1000
      3 C          -5.1385  -16.4360   23.7710 C.3     1  UNL1        0.0654
      4 C          -6.5423  -16.8755   23.4773 C.ar    1  UNL1        0.0432
      5 C          -6.7868  -18.1342   22.6990 C.ar    1  UNL1        0.0666
      6 C          -8.2697  -18.3148   22.5633 C.ar    1  UNL1        0.0212
      7 C          -9.0949  -19.3755   21.8971 C.ar    1  UNL1        0.0016
      8 C         -10.5921  -19.2891   21.9255 C.ar    1  UNL1        0.0001
      9 C         -11.2641  -18.1419   22.6200 C.ar    1  UNL1        0.0015
     10 C         -10.4390  -17.0812   23.2862 C.ar    1  UNL1        0.0172
     11 C          -8.9417  -17.1676   23.2578 C.ar    1  UNL1        0.0598
     12 N          -7.8741  -16.2781   23.8227 N.ar    1  UNL1       -0.3284
     13 C          -8.0990  -15.0132   24.5970 C.3     1  UNL1        0.1301
     14 C          -5.6275  -18.9534   22.2143 C.2     1  UNL1        0.2502
     15 O          -5.8720  -20.2122   21.4359 O.2     1  UNL1       -0.2699
     16 C          -3.0644  -19.3332   22.0232 C.3     1  UNL1        0.1237
     17 C          -3.9869  -18.6256   18.9740 C.3     1  UNL1        0.0494
     18 C          -2.6019  -18.4818   19.5319 C.2     1  UNL1        0.0628
     19 N          -1.3979  -17.9876   18.7863 N.2     1  UNL1       -0.2310
     20 C          -0.2297  -18.0075   19.7271 C.2     1  UNL1        0.1939
     21 N          -0.7118  -18.5139   21.0541 N.2     1  UNL1       -0.2446
     22 C          -2.1780  -18.8071   20.9335 C.3     1  UNL1        0.1603
@<TRIPOS>BOND
     1    17    18    1
     2    18    19    2
     3    19    20    1
     4    20    21    2
     5    21    22    1
     6    22    16    1
     7    16     1    1
     8     1     2    1
     9     2     3    1
    10     3     4    1
    11     4     5   ar
    12     5     6   ar
    13     6     7   ar
    14     7     8   ar
    15     8     9   ar
    16     9    10   ar
    17    10    11   ar
    18    11    12   ar
    19    12    13    1
    20     5    14    1
    21    14    15    2
    22    22    18    1
    23    14     1   am
    24    12     4   ar
    25    11     6   ar
@<TRIPOS>MOLECULE
*****
 22 25 0 0 0
SMALL
GASTEIGER

@<TRIPOS>ATOM
      1 N          -5.7593  -18.5650   22.2231 N.am    1  UNL1       -0.2733
      2 C          -5.7736  -19.5895   21.1275 C.3     1  UNL1        0.1000
      3 C          -7.0391  -19.8580   20.3684 C.3     1  UNL1        0.0654
      4 C          -8.2903  -19.1022   20.7048 C.ar    1  UNL1        0.0432
      5 C          -8.2760  -18.0777   21.8004 C.ar    1  UNL1        0.0666
      6 C          -9.6535  -17.4935   21.9069 C.ar    1  UNL1        0.0212
      7 C         -10.2313  -16.4433   22.8085 C.ar    1  UNL1        0.0016
      8 C         -11.6749  -16.0564   22.6803 C.ar    1  UNL1        0.0001
      9 C         -12.5406  -16.7198   21.6505 C.ar    1  UNL1        0.0015
     10 C         -11.9627  -17.7701   20.7489 C.ar    1  UNL1        0.0172
     11 C         -10.5192  -18.1570   20.8771 C.ar    1  UNL1        0.0598
     12 N          -9.6767  -19.1511   20.1342 N.ar    1  UNL1       -0.3284
     13 C         -10.1394  -20.0385   19.0168 C.3     1  UNL1        0.1301
     14 C          -7.0105  -17.8091   22.5595 C.2     1  UNL1        0.2502
     15 O          -6.9961  -16.7846   23.6552 O.2     1  UNL1       -0.2699
     16 C          -4.4937  -18.2964   22.9822 C.3     1  UNL1        0.1237
     17 C          -2.2676  -19.9324   21.2451 C.3     1  UNL1        0.0494
     18 C          -2.2871  -18.4513   21.4815 C.2     1  UNL1        0.0628
     19 N          -1.2868  -17.4621   20.9610 N.2     1  UNL1       -0.2310
     20 C          -1.6919  -16.0987   21.4378 C.2     1  UNL1        0.1939
     21 N          -2.9425  -16.2453   22.2529 N.2     1  UNL1       -0.2446
     22 C          -3.3103  -17.6993   22.2800 C.3     1  UNL1        0.1603
@<TRIPOS>BOND
     1    17    18    1
     2    18    19    2
     3    19    20    1
     4    20    21    2
     5    21    22    1
     6    22    16    1
     7    16     1    1
     8     1     2    1
     9     2     3    1
    10     3     4    1
    11     4     5   ar
    12     5     6   ar
    13     6     7   ar
    14     7     8   ar
    15     8     9   ar
    16     9    10   ar
    17    10    11   ar
    18    11    12   ar
    19    12    13    1
    20     5    14    1
    21    14    15    2
    22    22    18    1
    23    14     1   am
    24    12     4   ar
    25    11     6   ar
@<TRIPOS>MOLECULE
*****
 22 25 0 0 0
SMALL
GASTEIGER

@<TRIPOS>ATOM
      1 N          -8.5646  -16.8291   23.3116 N.am    1  UNL1       -0.2733
      2 C          -7.5989  -15.9585   24.0595 C.3     1  UNL1        0.1000
      3 C          -6.1228  -16.1881   23.9249 C.3     1  UNL1        0.0654
      4 C          -5.6123  -17.2882   23.0422 C.ar    1  UNL1        0.0432
      5 C          -6.5780  -18.1588   22.2942 C.ar    1  UNL1        0.0666
      6 C          -5.7855  -19.1580   21.5044 C.ar    1  UNL1        0.0212
      7 C          -6.2012  -20.2655   20.5823 C.ar    1  UNL1        0.0016
      8 C          -5.1615  -21.1200   19.9199 C.ar    1  UNL1        0.0001
      9 C          -3.7060  -20.8669   20.1798 C.ar    1  UNL1        0.0015
     10 C          -3.2903  -19.7594   21.1020 C.ar    1  UNL1        0.0172
     11 C          -4.3301  -18.9049   21.7643 C.ar    1  UNL1        0.0598
     12 N          -4.2230  -17.7493   22.7147 N.ar    1  UNL1       -0.3284
     13 C          -2.9501  -17.1586   23.2446 C.3     1  UNL1        0.1301
     14 C          -8.0541  -17.9292   22.4289 C.2     1  UNL1        0.2502
     15 O          -9.0199  -18.7999   21.6809 O.2     1  UNL1       -0.2699
     16 C         -10.0409  -16.5995   23.4462 C.3     1  UNL1        0.1237
     17 C         -13.0955  -17.7033   23.1287 C.3     1  UNL1        0.0494
     18 C         -12.3009  -16.9921   22.0738 C.2     1  UNL1        0.0628
     19 N         -12.7708  -16.6632   20.6878 N.2     1  UNL1       -0.2310
     20 C         -11.6572  -15.9527   19.9772 C.2     1  UNL1        0.1939
     21 N         -10.4990  -15.8424   20.9240 N.2     1  UNL1       -0.2446
     22 C         -10.8969  -16.4847   22.2198 C.3     1  UNL1        0.1603
@<TRIPOS>BOND
     1    17    18    1
     2    18    19    2
     3    19    20    1
     4    20    21    2
     5    21    22    1
     6    22    16    1
     7    16     1    1
     8     1     2    1
     9     2     3    1
    10     3     4    1
    11     4     5   ar
    12     5     6   ar
    13     6     7   ar
    14     7     8   ar
    15     8     9   ar
    16     9    10   ar
    17    10    11   ar
    18    11    12   ar
    19    12    13    1
    20     5    14    1
    21    14    15    2
    22    22    18    1
    23    14     1   am
    24    12     4   ar
    25    11     6   ar
@<TRIPOS>MOLECULE
*****
 22 25 0 0 0
SMALL
GASTEIGER

@<TRIPOS>ATOM
      1 N          -5.9396  -18.7035   21.2294 N.am    1  UNL1       -0.2733
      2 C          -5.4268  -18.0584   22.4827 C.3     1  UNL1        0.1000
      3 C          -6.3623  -17.2876   23.3663 C.3     1  UNL1        0.0654
      4 C          -7.8106  -17.1620   22.9965 C.ar    1  UNL1        0.0432
      5 C          -8.3234  -17.8071   21.7432 C.ar    1  UNL1        0.0666
      6 C          -9.7908  -17.5142   21.6379 C.ar    1  UNL1        0.0212
      7 C         -10.8189  -17.8931   20.6136 C.ar    1  UNL1        0.0016
      8 C         -12.2412  -17.4458   20.7776 C.ar    1  UNL1        0.0001
      9 C         -12.6354  -16.6196   21.9659 C.ar    1  UNL1        0.0015
     10 C         -11.6072  -16.2408   22.9902 C.ar    1  UNL1        0.0172
     11 C         -10.1849  -16.6881   22.8262 C.ar    1  UNL1        0.0598
     12 N          -8.9611  -16.4704   23.6659 N.ar    1  UNL1       -0.3284
     13 C          -8.8988  -15.6968   24.9495 C.3     1  UNL1        0.1301
     14 C          -7.3879  -18.5779   20.8596 C.2     1  UNL1        0.2502
     15 O          -7.9006  -19.2231   19.6062 O.2     1  UNL1       -0.2699
     16 C          -5.0041  -19.4744   20.3458 C.3     1  UNL1        0.1237
     17 C          -2.0706  -19.9708   21.6866 C.3     1  UNL1        0.0494
     18 C          -2.3653  -19.0825   20.5144 C.2     1  UNL1        0.0628
     19 N          -1.3634  -18.2665   19.7527 N.2     1  UNL1       -0.2310
     20 C          -2.0926  -17.5340   18.6656 C.2     1  UNL1        0.1939
     21 N          -3.5451  -17.8973   18.7554 N.2     1  UNL1       -0.2446
     22 C          -3.7136  -18.8544   19.8981 C.3     1  UNL1        0.1603
@<TRIPOS>BOND
     1    17    18    1
     2    18    19    2
     3    19    20    1
     4    20    21    2
     5    21    22    1
     6    22    16    1
     7    16     1    1
     8     1     2    1
     9     2     3    1
    10     3     4    1
    11     4     5   ar
    12     5     6   ar
    13     6     7   ar
    14     7     8   ar
    15     8     9   ar
    16     9    10   ar
    17    10    11   ar
    18    11    12   ar
    19    12    13    1
    20     5    14    1
    21    14    15    2
    22    22    18    1
    23    14     1   am
    24    12     4   ar
    25    11     6   ar
@<TRIPOS>MOLECULE
*****
 22 25 0 0 0
SMALL
GASTEIGER

@<TRIPOS>ATOM
      1 N          -8.6387  -18.1966   21.9065 N.am    1  UNL1       -0.2733
      2 C          -8.7441  -19.2714   20.8654 C.3     1  UNL1        0.1000
      3 C          -7.5063  -19.9563   20.3666 C.3     1  UNL1        0.0654
      4 C          -6.1631  -19.5664   20.9088 C.ar    1  UNL1        0.0432
      5 C          -6.0578  -18.4916   21.9499 C.ar    1  UNL1        0.0666
      6 C          -4.6081  -18.3214   22.2954 C.ar    1  UNL1        0.0212
      7 C          -3.9058  -17.4089   23.2566 C.ar    1  UNL1        0.0016
      8 C          -2.4129  -17.4659   23.3903 C.ar    1  UNL1        0.0001
      9 C          -1.6222  -18.4356   22.5628 C.ar    1  UNL1        0.0015
     10 C          -2.3245  -19.3481   21.6016 C.ar    1  UNL1        0.0172
     11 C          -3.8174  -19.2911   21.4679 C.ar    1  UNL1        0.0598
     12 N          -4.7785  -20.0605   20.6110 N.ar    1  UNL1       -0.3284
     13 C          -4.4182  -21.1353   19.6286 C.3     1  UNL1        0.1301
     14 C          -7.2955  -17.8067   22.4487 C.2     1  UNL1        0.2502
     15 O          -7.1902  -16.7319   23.4898 O.2     1  UNL1       -0.2699
     16 C          -9.8765  -17.5117   22.4053 C.3     1  UNL1        0.1237
     17 C         -13.1276  -17.6970   22.6188 C.3     1  UNL1        0.0494
     18 C         -12.3529  -17.0189   21.5280 C.2     1  UNL1        0.0628
     19 N         -12.9365  -16.3069   20.3437 N.2     1  UNL1       -0.2310
     20 C         -11.8028  -15.7816   19.5137 C.2     1  UNL1        0.1939
     21 N         -10.5186  -16.1690   20.1850 N.2     1  UNL1       -0.2446
     22 C         -10.8586  -16.9337   21.4299 C.3     1  UNL1        0.1603
@<TRIPOS>BOND
     1    17    18    1
     2    18    19    2
     3    19    20    1
     4    20    21    2
     5    21    22    1
     6    22    16    1
     7    16     1    1
     8     1     2    1
     9     2     3    1
    10     3     4    1
    11     4     5   ar
    12     5     6   ar
    13     6     7   ar
    14     7     8   ar
    15     8     9   ar
    16     9    10   ar
    17    10    11   ar
    18    11    12   ar
    19    12    13    1
    20     5    14    1
    21    14    15    2
    22    22    18    1
    23    14     1   am
    24    12     4   ar
    25    11     6   ar
@<TRIPOS>MOLECULE
*****
 22 25 0 0 0
SMALL
GASTEIGER

@<TRIPOS>ATOM
      1 N         -16.4710   -6.5896   19.4882 N.am    1  UNL1       -0.2733
      2 C         -16.7704   -5.1424   19.7453 C.3     1  UNL1        0.1000
      3 C         -15.6599   -4.1342   19.7394 C.3     1  UNL1        0.0654
      4 C         -14.2498   -4.5731   19.4764 C.ar    1  UNL1        0.0432
      5 C         -13.9503   -6.0203   19.2193 C.ar    1  UNL1        0.0666
      6 C         -12.4738   -6.1549   18.9922 C.ar    1  UNL1        0.0212
      7 C         -11.6083   -7.3432   18.6942 C.ar    1  UNL1        0.0016
      8 C         -10.1298   -7.1676   18.5130 C.ar    1  UNL1        0.0001
      9 C          -9.5166   -5.8036   18.6297 C.ar    1  UNL1        0.0015
     10 C         -10.3820   -4.6153   18.9277 C.ar    1  UNL1        0.0172
     11 C         -11.8606   -4.7909   19.1089 C.ar    1  UNL1        0.0598
     12 N         -12.9583   -3.8134   19.4082 N.ar    1  UNL1       -0.3284
     13 C         -12.7933   -2.3355   19.6047 C.3     1  UNL1        0.1301
     14 C         -15.0609   -7.0285   19.2252 C.2     1  UNL1        0.2502
     15 O         -14.7615   -8.4757   18.9682 O.2     1  UNL1       -0.2699
     16 C         -17.5816   -7.5979   19.4941 C.3     1  UNL1        0.1237
     17 C         -17.6983  -10.6222   18.2738 C.3     1  UNL1        0.0494
     18 C         -18.2862   -9.3942   17.6443 C.2     1  UNL1        0.0628
     19 N         -19.0309   -9.3406   16.3433 N.2     1  UNL1       -0.2310
     20 C         -19.4375   -7.9174   16.1002 C.2     1  UNL1        0.1939
     21 N         -18.9441   -7.0913   17.2509 N.2     1  UNL1       -0.2446
     22 C         -18.2325   -8.0041   18.2052 C.3     1  UNL1        0.1603
@<TRIPOS>BOND
     1    17    18    1
     2    18    19    2
     3    19    20    1
     4    20    21    2
     5    21    22    1
     6    22    16    1
     7    16     1    1
     8     1     2    1
     9     2     3    1
    10     3     4    1
    11     4     5   ar
    12     5     6   ar
    13     6     7   ar
    14     7     8   ar
    15     8     9   ar
    16     9    10   ar
    17    10    11   ar
    18    11    12   ar
    19    12    13    1
    20     5    14    1
    21    14    15    2
    22    22    18    1
    23    14     1   am
    24    12     4   ar
    25    11     6   ar
@<TRIPOS>MOLECULE
*****
 22 25 0 0 0
SMALL
GASTEIGER

@<TRIPOS>ATOM
      1 N           3.0687    0.1748   26.2617 N.am    1  UNL1       -0.2733
      2 C           4.1445   -0.7186   26.8043 C.3     1  UNL1        0.1000
      3 C           4.8305   -1.7002   25.9011 C.3     1  UNL1        0.0654
      4 C           4.4407   -1.7884   24.4553 C.ar    1  UNL1        0.0432
      5 C           3.3649   -0.8950   23.9127 C.ar    1  UNL1        0.0666
      6 C           3.1951   -1.2063   22.4552 C.ar    1  UNL1        0.0212
      7 C           2.2819   -0.6414   21.4080 C.ar    1  UNL1        0.0016
      8 C           2.3396   -1.1622   20.0025 C.ar    1  UNL1        0.0001
      9 C           3.3105   -2.2481   19.6443 C.ar    1  UNL1        0.0015
     10 C           4.2237   -2.8130   20.6916 C.ar    1  UNL1        0.0172
     11 C           4.1660   -2.2922   22.0970 C.ar    1  UNL1        0.0598
     12 N           4.9358   -2.6519   23.3331 N.ar    1  UNL1       -0.3284
     13 C           6.0119   -3.6925   23.4301 C.3     1  UNL1        0.1301
     14 C           2.6789    0.0866   24.8159 C.2     1  UNL1        0.2502
     15 O           1.6030    0.9801   24.2733 O.2     1  UNL1       -0.2699
     16 C           2.3826    1.1564   27.1649 C.3     1  UNL1        0.1237
     17 C           2.2260   -0.5070   29.9682 C.3     1  UNL1        0.0494
     18 C           1.0565   -0.0031   29.1755 C.2     1  UNL1        0.0628
     19 N          -0.3903   -0.1753   29.5321 N.2     1  UNL1       -0.2310
     20 C          -1.2124    0.4829   28.4640 C.2     1  UNL1        0.1939
     21 N          -0.2738    1.0619   27.4472 N.2     1  UNL1       -0.2446
     22 C           1.1285    0.7615   27.8870 C.3     1  UNL1        0.1603
@<TRIPOS>BOND
     1    17    18    1
     2    18    19    2
     3    19    20    1
     4    20    21    2
     5    21    22    1
     6    22    16    1
     7    16     1    1
     8     1     2    1
     9     2     3    1
    10     3     4    1
    11     4     5   ar
    12     5     6   ar
    13     6     7   ar
    14     7     8   ar
    15     8     9   ar
    16     9    10   ar
    17    10    11   ar
    18    11    12   ar
    19    12    13    1
    20     5    14    1
    21    14    15    2
    22    22    18    1
    23    14     1   am
    24    12     4   ar
    25    11     6   ar
@<TRIPOS>MOLECULE
*****
 22 25 0 0 0
SMALL
GASTEIGER

@<TRIPOS>ATOM
      1 N           1.6387    1.2735   25.1324 N.am    1  UNL1       -0.2733
      2 C           0.7273    2.0604   24.2378 C.3     1  UNL1        0.1000
      3 C           0.6503    1.7377   22.7750 C.3     1  UNL1        0.0654
      4 C           1.4846    0.6282   22.2067 C.ar    1  UNL1        0.0432
      5 C           2.3960   -0.1587   23.1013 C.ar    1  UNL1        0.0666
      6 C           3.0934   -1.1882   22.2625 C.ar    1  UNL1        0.0212
      7 C           4.1038   -2.2434   22.6028 C.ar    1  UNL1        0.0016
      8 C           4.6338   -3.1479   21.5301 C.ar    1  UNL1        0.0001
      9 C           4.1535   -2.9973   20.1171 C.ar    1  UNL1        0.0015
     10 C           3.1432   -1.9422   19.7767 C.ar    1  UNL1        0.0172
     11 C           2.6131   -1.0377   20.8495 C.ar    1  UNL1        0.0598
     12 N           1.6189    0.0849   20.8150 N.ar    1  UNL1       -0.3284
     13 C           0.8872    0.5778   19.6018 C.3     1  UNL1        0.1301
     14 C           2.4730    0.1640   24.5641 C.2     1  UNL1        0.2502
     15 O           3.3843   -0.6229   25.4588 O.2     1  UNL1       -0.2699
     16 C           1.7157    1.5961   26.5953 C.3     1  UNL1        0.1237
     17 C           2.4202   -0.5255   28.9727 C.3     1  UNL1        0.0494
     18 C           1.0580    0.0095   28.6436 C.2     1  UNL1        0.0628
     19 N          -0.2194   -0.3368   29.3493 N.2     1  UNL1       -0.2310
     20 C          -1.3328    0.4245   28.6927 C.2     1  UNL1        0.1939
     21 N          -0.7434    1.2412   27.5812 N.2     1  UNL1       -0.2446
     22 C           0.7343    0.9847   27.5508 C.3     1  UNL1        0.1603
@<TRIPOS>BOND
     1    17    18    1
     2    18    19    2
     3    19    20    1
     4    20    21    2
     5    21    22    1
     6    22    16    1
     7    16     1    1
     8     1     2    1
     9     2     3    1
    10     3     4    1
    11     4     5   ar
    12     5     6   ar
    13     6     7   ar
    14     7     8   ar
    15     8     9   ar
    16     9    10   ar
    17    10    11   ar
    18    11    12   ar
    19    12    13    1
    20     5    14    1
    21    14    15    2
    22    22    18    1
    23    14     1   am
    24    12     4   ar
    25    11     6   ar
