@<TRIPOS>MOLECULE
*****
 18 19 0 0 0
SMALL
GASTEIGER

@<TRIPOS>ATOM
      1 C         -10.2444  -18.6160   23.9159 C.ar    1  UNL1        0.1386
      2 C          -9.4002  -17.3889   23.7384 C.ar    1  UNL1        0.0369
      3 C          -8.1144  -17.4678   22.9700 C.ar    1  UNL1        0.0046
      4 C          -7.6727  -18.7739   22.3791 C.ar    1  UNL1        0.0173
      5 C          -8.5169  -20.0010   22.5566 C.ar    1  UNL1        0.0046
      6 C          -9.8027  -19.9221   23.3250 C.ar    1  UNL1        0.0369
      7 C          -6.3869  -18.8528   21.6107 C.ar    1  UNL1        0.0750
      8 C          -5.0733  -19.3485   22.1386 C.ar    1  UNL1        0.0349
      9 C          -4.0634  -19.2519   21.0336 C.ar    1  UNL1        0.0802
     10 C          -2.6179  -19.6422   21.1237 C.3     1  UNL1        0.0540
     11 N          -4.7530  -18.6966   19.8228 N.ar    1  UNL1       -0.1770
     12 N          -6.1889  -18.4499   20.1794 N.ar    1  UNL1       -0.2761
     13 H          -6.8801  -18.0872   19.5795 H       1  UNL1        0.1889
     14 O         -11.5302  -18.5371   24.6843 O.3     1  UNL1       -0.4755
     15 C         -12.8134  -18.2324   23.9698 C.3     1  UNL1        0.2054
     16 C         -12.8157  -17.2938   22.7998 C.3     1  UNL1        0.0473
     17 C         -11.4696  -17.4722   20.5848 C.3     1  UNL1        0.0001
     18 C         -12.6718  -17.8313   21.4068 C.3     1  UNL1        0.0038
@<TRIPOS>BOND
     1    17    18    1
     2    18    16    1
     3    16    15    1
     4    15    14    1
     5    14     1    1
     6     1     2   ar
     7     2     3   ar
     8     3     4   ar
     9     4     7    1
    10     7     8   ar
    11     8     9   ar
    12     9    10    1
    13     9    11   ar
    14    11    12   ar
    15     4     5   ar
    16     5     6   ar
    17     6     1   ar
    18    12     7   ar
    19    12    13    1
@<TRIPOS>MOLECULE
*****
 18 19 0 0 0
SMALL
GASTEIGER

@<TRIPOS>ATOM
      1 C          -6.5631  -20.1482   20.6104 C.ar    1  UNL1        0.1386
      2 C          -7.5399  -19.8770   19.5048 C.ar    1  UNL1        0.0369
      3 C          -8.9171  -19.3772   19.8267 C.ar    1  UNL1        0.0046
      4 C          -9.3174  -19.1485   21.2540 C.ar    1  UNL1        0.0173
      5 C          -8.3406  -19.4196   22.3595 C.ar    1  UNL1        0.0046
      6 C          -6.9634  -19.9194   22.0377 C.ar    1  UNL1        0.0369
      7 C         -10.6946  -18.6486   21.5758 C.ar    1  UNL1        0.0750
      8 C         -11.3552  -18.6896   22.9219 C.ar    1  UNL1        0.0349
      9 C         -12.7219  -18.0863   22.7861 C.ar    1  UNL1        0.0802
     10 C         -13.7278  -17.9252   23.8870 C.3     1  UNL1        0.0540
     11 N         -12.9058  -17.6725   21.3561 N.ar    1  UNL1       -0.1770
     12 N         -11.6529  -18.0200   20.6081 N.ar    1  UNL1       -0.2761
     13 H         -11.4884  -17.8631   19.6502 H       1  UNL1        0.1889
     14 O          -5.1859  -20.6480   20.2885 O.3     1  UNL1       -0.4755
     15 C          -4.0262  -19.6967   20.2779 C.3     1  UNL1        0.2054
     16 C          -3.0200  -19.7284   21.3899 C.3     1  UNL1        0.0473
     17 C          -3.8765  -18.0441   23.1730 C.3     1  UNL1        0.0001
     18 C          -2.8005  -18.5106   22.2377 C.3     1  UNL1        0.0038
@<TRIPOS>BOND
     1    17    18    1
     2    18    16    1
     3    16    15    1
     4    15    14    1
     5    14     1    1
     6     1     2   ar
     7     2     3   ar
     8     3     4   ar
     9     4     7    1
    10     7     8   ar
    11     8     9   ar
    12     9    10    1
    13     9    11   ar
    14    11    12   ar
    15     4     5   ar
    16     5     6   ar
    17     6     1   ar
    18    12     7   ar
    19    12    13    1
@<TRIPOS>MOLECULE
*****
 18 19 0 0 0
SMALL
GASTEIGER

@<TRIPOS>ATOM
      1 C         -10.2966  -18.4417   20.5936 C.ar    1  UNL1        0.1386
      2 C          -9.7372  -19.2856   19.4869 C.ar    1  UNL1        0.0369
      3 C          -8.2913  -19.6843   19.5053 C.ar    1  UNL1        0.0046
      4 C          -7.4048  -19.2392   20.6304 C.ar    1  UNL1        0.0173
      5 C          -7.9642  -18.3953   21.7371 C.ar    1  UNL1        0.0046
      6 C          -9.4101  -17.9965   21.7187 C.ar    1  UNL1        0.0369
      7 C          -5.9589  -19.6379   20.6488 C.ar    1  UNL1        0.0750
      8 C          -4.8667  -18.9586   21.4206 C.ar    1  UNL1        0.0349
      9 C          -3.5841  -19.6868   21.1474 C.ar    1  UNL1        0.0802
     10 C          -2.2383  -19.3456   21.7152 C.3     1  UNL1        0.0540
     11 N          -3.8835  -20.8162   20.2068 N.ar    1  UNL1       -0.1770
     12 N          -5.3513  -20.7860   19.8986 N.ar    1  UNL1       -0.2761
     13 H          -5.8315  -21.4101   19.3078 H       1  UNL1        0.1889
     14 O         -11.7425  -18.0430   20.5752 O.3     1  UNL1       -0.4755
     15 C         -12.1572  -16.7009   21.1014 C.3     1  UNL1        0.2054
     16 C         -12.6076  -16.5600   22.5252 C.3     1  UNL1        0.0473
     17 C         -12.1329  -18.5040   24.1822 C.3     1  UNL1        0.0001
     18 C         -13.0802  -17.7640   23.2850 C.3     1  UNL1        0.0038
@<TRIPOS>BOND
     1    17    18    1
     2    18    16    1
     3    16    15    1
     4    15    14    1
     5    14     1    1
     6     1     2   ar
     7     2     3   ar
     8     3     4   ar
     9     4     7    1
    10     7     8   ar
    11     8     9   ar
    12     9    10    1
    13     9    11   ar
    14    11    12   ar
    15     4     5   ar
    16     5     6   ar
    17     6     1   ar
    18    12     7   ar
    19    12    13    1
@<TRIPOS>MOLECULE
*****
 18 19 0 0 0
SMALL
GASTEIGER

@<TRIPOS>ATOM
      1 C          -8.5123  -19.1117   21.1757 C.ar    1  UNL1        0.1386
      2 C          -7.8342  -19.6105   19.9342 C.ar    1  UNL1        0.0369
      3 C          -6.3365  -19.6533   19.8632 C.ar    1  UNL1        0.0046
      4 C          -5.5168  -19.1971   21.0337 C.ar    1  UNL1        0.0173
      5 C          -6.1949  -18.6983   22.2752 C.ar    1  UNL1        0.0046
      6 C          -7.6926  -18.6556   22.3462 C.ar    1  UNL1        0.0369
      7 C          -4.0191  -19.2398   20.9627 C.ar    1  UNL1        0.0750
      8 C          -3.1523  -18.3729   20.0983 C.ar    1  UNL1        0.0349
      9 C          -1.7227  -18.7542   20.3450 C.ar    1  UNL1        0.0802
     10 C          -0.5210  -18.1406   19.6899 C.3     1  UNL1        0.0540
     11 N          -1.7060  -19.8569   21.3618 N.ar    1  UNL1       -0.1770
     12 N          -3.1252  -20.1570   21.7435 N.ar    1  UNL1       -0.2761
     13 H          -3.4185  -20.8366   22.3926 H       1  UNL1        0.1889
     14 O         -10.0100  -19.0690   21.2468 O.3     1  UNL1       -0.4755
     15 C         -10.6891  -18.1367   22.2057 C.3     1  UNL1        0.2054
     16 C         -11.4516  -18.6874   23.3742 C.3     1  UNL1        0.0473
     17 C          -9.9577  -20.4841   24.5101 C.3     1  UNL1        0.0001
     18 C         -10.7153  -19.1913   24.5800 C.3     1  UNL1        0.0038
@<TRIPOS>BOND
     1    17    18    1
     2    18    16    1
     3    16    15    1
     4    15    14    1
     5    14     1    1
     6     1     2   ar
     7     2     3   ar
     8     3     4   ar
     9     4     7    1
    10     7     8   ar
    11     8     9   ar
    12     9    10    1
    13     9    11   ar
    14    11    12   ar
    15     4     5   ar
    16     5     6   ar
    17     6     1   ar
    18    12     7   ar
    19    12    13    1
@<TRIPOS>MOLECULE
*****
 18 19 0 0 0
SMALL
GASTEIGER

@<TRIPOS>ATOM
      1 C          -6.6105  -20.3229   20.5604 C.ar    1  UNL1        0.1386
      2 C          -6.8057  -20.1136   22.0328 C.ar    1  UNL1        0.0369
      3 C          -8.0327  -19.4117   22.5344 C.ar    1  UNL1        0.0046
      4 C          -9.0647  -18.9192   21.5637 C.ar    1  UNL1        0.0173
      5 C          -8.8696  -19.1285   20.0913 C.ar    1  UNL1        0.0046
      6 C          -7.6425  -19.8303   19.5896 C.ar    1  UNL1        0.0369
      7 C         -10.2918  -18.2173   22.0653 C.ar    1  UNL1        0.0750
      8 C         -11.4180  -18.8481   22.8295 C.ar    1  UNL1        0.0349
      9 C         -12.4303  -17.7821   23.1273 C.ar    1  UNL1        0.0802
     10 C         -13.7172  -17.9723   23.8741 C.3     1  UNL1        0.0540
     11 N         -11.9299  -16.4925   22.5473 N.ar    1  UNL1       -0.1770
     12 N         -10.6082  -16.7615   21.8910 N.ar    1  UNL1       -0.2761
     13 H         -10.0469  -16.0989   21.4272 H       1  UNL1        0.1889
     14 O          -5.3834  -21.0247   20.0587 O.3     1  UNL1       -0.4755
     15 C          -4.0390  -20.3733   20.1932 C.3     1  UNL1        0.2054
     16 C          -3.9178  -18.8803   20.1140 C.3     1  UNL1        0.0473
     17 C          -1.5122  -18.1412   19.4683 C.3     1  UNL1        0.0001
     18 C          -2.9699  -18.2557   19.1335 C.3     1  UNL1        0.0038
@<TRIPOS>BOND
     1    17    18    1
     2    18    16    1
     3    16    15    1
     4    15    14    1
     5    14     1    1
     6     1     2   ar
     7     2     3   ar
     8     3     4   ar
     9     4     7    1
    10     7     8   ar
    11     8     9   ar
    12     9    10    1
    13     9    11   ar
    14    11    12   ar
    15     4     5   ar
    16     5     6   ar
    17     6     1   ar
    18    12     7   ar
    19    12    13    1
@<TRIPOS>MOLECULE
*****
 18 19 0 0 0
SMALL
GASTEIGER

@<TRIPOS>ATOM
      1 C          -4.5756  -19.8243   21.1315 C.ar    1  UNL1        0.1386
      2 C          -4.8447  -18.8377   22.2288 C.ar    1  UNL1        0.0369
      3 C          -6.2376  -18.3290   22.4551 C.ar    1  UNL1        0.0046
      4 C          -7.3613  -18.8069   21.5841 C.ar    1  UNL1        0.0173
      5 C          -7.0922  -19.7936   20.4868 C.ar    1  UNL1        0.0046
      6 C          -5.6994  -20.3023   20.2605 C.ar    1  UNL1        0.0369
      7 C          -8.7542  -18.2983   21.8104 C.ar    1  UNL1        0.0750
      8 C          -9.7688  -18.8913   22.7425 C.ar    1  UNL1        0.0349
      9 C         -11.0187  -18.0668   22.6525 C.ar    1  UNL1        0.0802
     10 C         -12.2879  -18.3034   23.4161 C.3     1  UNL1        0.0540
     11 N         -10.7765  -16.9642   21.6648 N.ar    1  UNL1       -0.1770
     12 N          -9.3769  -17.1072   21.1444 N.ar    1  UNL1       -0.2761
     13 H          -8.9432  -16.5221   20.4820 H       1  UNL1        0.1889
     14 O          -3.1828  -20.3330   20.9052 O.3     1  UNL1       -0.4755
     15 C          -2.0092  -19.5724   21.4475 C.3     1  UNL1        0.2054
     16 C          -1.4824  -18.3786   20.7076 C.3     1  UNL1        0.0473
     17 C          -2.8779  -17.4292   18.7324 C.3     1  UNL1        0.0001
     18 C          -1.7224  -18.2443   19.2330 C.3     1  UNL1        0.0038
@<TRIPOS>BOND
     1    17    18    1
     2    18    16    1
     3    16    15    1
     4    15    14    1
     5    14     1    1
     6     1     2   ar
     7     2     3   ar
     8     3     4   ar
     9     4     7    1
    10     7     8   ar
    11     8     9   ar
    12     9    10    1
    13     9    11   ar
    14    11    12   ar
    15     4     5   ar
    16     5     6   ar
    17     6     1   ar
    18    12     7   ar
    19    12    13    1
@<TRIPOS>MOLECULE
*****
 18 19 0 0 0
SMALL
GASTEIGER

@<TRIPOS>ATOM
      1 C          -9.4159  -19.2149   20.6636 C.ar    1  UNL1        0.1386
      2 C          -8.5465  -19.6091   19.5065 C.ar    1  UNL1        0.0369
      3 C          -7.0534  -19.5841   19.6476 C.ar    1  UNL1        0.0046
      4 C          -6.4296  -19.1650   20.9457 C.ar    1  UNL1        0.0173
      5 C          -7.2989  -18.7708   22.1027 C.ar    1  UNL1        0.0046
      6 C          -8.7921  -18.7958   21.9617 C.ar    1  UNL1        0.0369
      7 C          -4.9364  -19.1400   21.0867 C.ar    1  UNL1        0.0750
      8 C          -3.9547  -18.7886   20.0084 C.ar    1  UNL1        0.0349
      9 C          -2.5744  -18.8935   20.5861 C.ar    1  UNL1        0.0802
     10 C          -1.2908  -18.6287   19.8565 C.3     1  UNL1        0.0540
     11 N          -2.7030  -19.3096   22.0214 N.ar    1  UNL1       -0.1770
     12 N          -4.1628  -19.4620   22.3308 N.ar    1  UNL1       -0.2761
     13 H          -4.5459  -19.7268   23.1982 H       1  UNL1        0.1889
     14 O         -10.9090  -19.2399   20.5225 O.3     1  UNL1       -0.4755
     15 C         -11.7768  -18.7597   21.6478 C.3     1  UNL1        0.2054
     16 C         -12.5986  -17.5157   21.4829 C.3     1  UNL1        0.0473
     17 C         -11.6775  -15.9204   19.6508 C.3     1  UNL1        0.0001
     18 C         -11.9376  -16.2259   21.0961 C.3     1  UNL1        0.0038
@<TRIPOS>BOND
     1    17    18    1
     2    18    16    1
     3    16    15    1
     4    15    14    1
     5    14     1    1
     6     1     2   ar
     7     2     3   ar
     8     3     4   ar
     9     4     7    1
    10     7     8   ar
    11     8     9   ar
    12     9    10    1
    13     9    11   ar
    14    11    12   ar
    15     4     5   ar
    16     5     6   ar
    17     6     1   ar
    18    12     7   ar
    19    12    13    1
@<TRIPOS>MOLECULE
*****
 18 19 0 0 0
SMALL
GASTEIGER

@<TRIPOS>ATOM
      1 C          -8.3700  -19.3530   21.1809 C.ar    1  UNL1        0.1386
      2 C          -7.5820  -18.6277   22.2310 C.ar    1  UNL1        0.0369
      3 C          -6.0843  -18.5931   22.1547 C.ar    1  UNL1        0.0046
      4 C          -5.3746  -19.2839   21.0282 C.ar    1  UNL1        0.0173
      5 C          -6.1626  -20.0092   19.9780 C.ar    1  UNL1        0.0046
      6 C          -7.6602  -20.0438   20.0543 C.ar    1  UNL1        0.0369
      7 C          -3.8770  -19.2493   20.9519 C.ar    1  UNL1        0.0750
      8 C          -3.0590  -18.3357   20.0880 C.ar    1  UNL1        0.0349
      9 C          -1.6108  -18.6439   20.3282 C.ar    1  UNL1        0.0802
     10 C          -0.4446  -17.9669   19.6714 C.3     1  UNL1        0.0540
     11 N          -1.5337  -19.7481   21.3406 N.ar    1  UNL1       -0.1770
     12 N          -2.9343  -20.1222   21.7260 N.ar    1  UNL1       -0.2761
     13 H          -3.1899  -20.8185   22.3734 H       1  UNL1        0.1889
     14 O          -9.8676  -19.3876   21.2572 O.3     1  UNL1       -0.4755
     15 C         -10.6207  -18.1926   21.7620 C.3     1  UNL1        0.2054
     16 C         -11.9596  -17.8490   21.1797 C.3     1  UNL1        0.0473
     17 C         -13.0828  -17.9874   23.5184 C.3     1  UNL1        0.0001
     18 C         -13.1156  -17.5442   22.0857 C.3     1  UNL1        0.0038
@<TRIPOS>BOND
     1    17    18    1
     2    18    16    1
     3    16    15    1
     4    15    14    1
     5    14     1    1
     6     1     2   ar
     7     2     3   ar
     8     3     4   ar
     9     4     7    1
    10     7     8   ar
    11     8     9   ar
    12     9    10    1
    13     9    11   ar
    14    11    12   ar
    15     4     5   ar
    16     5     6   ar
    17     6     1   ar
    18    12     7   ar
    19    12    13    1
@<TRIPOS>MOLECULE
*****
 18 19 0 0 0
SMALL
GASTEIGER

@<TRIPOS>ATOM
      1 C          -8.3115  -18.7914   22.7567 C.ar    1  UNL1        0.1386
      2 C          -7.7561  -20.1178   22.3299 C.ar    1  UNL1        0.0369
      3 C          -6.3139  -20.2348   21.9344 C.ar    1  UNL1        0.0046
      4 C          -5.4271  -19.0255   21.9657 C.ar    1  UNL1        0.0173
      5 C          -5.9825  -17.6991   22.3925 C.ar    1  UNL1        0.0046
      6 C          -7.4247  -17.5821   22.7880 C.ar    1  UNL1        0.0369
      7 C          -3.9849  -19.1425   21.5702 C.ar    1  UNL1        0.0750
      8 C          -3.2298  -18.1851   20.6966 C.ar    1  UNL1        0.0349
      9 C          -1.8228  -18.6884   20.5654 C.ar    1  UNL1        0.0802
     10 C          -0.7233  -18.0374   19.7796 C.3     1  UNL1        0.0540
     11 N          -1.7084  -19.9568   21.3578 N.ar    1  UNL1       -0.1770
     12 N          -3.0447  -20.2375   21.9788 N.ar    1  UNL1       -0.2761
     13 H          -3.2658  -21.0055   22.5536 H       1  UNL1        0.1889
     14 O          -9.7537  -18.6744   23.1522 O.3     1  UNL1       -0.4755
     15 C         -10.7387  -19.7170   22.7132 C.3     1  UNL1        0.2054
     16 C         -11.3668  -19.6303   21.3538 C.3     1  UNL1        0.0473
     17 C          -9.7824  -19.6519   19.2948 C.3     1  UNL1        0.0001
     18 C         -10.6637  -18.9003   20.2480 C.3     1  UNL1        0.0038
@<TRIPOS>BOND
     1    17    18    1
     2    18    16    1
     3    16    15    1
     4    15    14    1
     5    14     1    1
     6     1     2   ar
     7     2     3   ar
     8     3     4   ar
     9     4     7    1
    10     7     8   ar
    11     8     9   ar
    12     9    10    1
    13     9    11   ar
    14    11    12   ar
    15     4     5   ar
    16     5     6   ar
    17     6     1   ar
    18    12     7   ar
    19    12    13    1
