@<TRIPOS>MOLECULE
*****
 31 35 0 0 0
SMALL
GASTEIGER

@<TRIPOS>ATOM
      1 N         -13.6614   -3.5175   18.8113 N.pl3   1  UNL1       -0.1665
      2 C         -12.2428   -4.0038   18.7817 C.ar    1  UNL1        0.0732
      3 C         -12.1731   -5.4978   18.8950 C.ar    1  UNL1        0.0163
      4 C         -10.8421   -6.1894   18.8855 C.ar    1  UNL1        0.0013
      5 C          -9.5808   -5.3869   18.7629 C.ar    1  UNL1       -0.0001
      6 C          -9.6504   -3.8928   18.6496 C.ar    1  UNL1        0.0006
      7 C         -10.9814   -3.2013   18.6591 C.ar    1  UNL1        0.0364
      8 C         -10.8273   -1.7143   18.5357 C.3     1  UNL1        0.2333
      9 O         -11.8964   -0.6625   18.5046 O.3     1  UNL1       -0.4692
     10 C         -13.3837   -0.8381   18.5891 C.ar    1  UNL1        0.1564
     11 C         -14.0959    0.4803   18.5201 C.ar    1  UNL1        0.0679
     12 C         -15.5936    0.5280   18.5877 C.ar    1  UNL1        0.1433
     13 F         -16.3058    1.8464   18.5188 F       1  UNL1       -0.2041
     14 C         -16.3791   -0.7425   18.7242 C.ar    1  UNL1        0.0312
     15 C         -15.6670   -2.0608   18.7932 C.ar    1  UNL1        0.0219
     16 C         -14.1693   -2.1086   18.7256 C.ar    1  UNL1        0.1076
     17 S         -14.7112   -4.5807   18.9443 S.O2    1  UNL1        0.0802
     18 O         -14.6300   -4.4740   20.4383 O.2     1  UNL1       -0.1494
     19 O         -14.7924   -4.6873   17.4502 O.2     1  UNL1       -0.1494
     20 O         -16.7173  -12.1117   19.0358 O.2     1  UNL1       -0.2707
     21 C         -17.0984  -10.6646   19.1382 C.2     1  UNL1        0.2707
     22 C         -18.5291  -10.2806   19.3735 C.3     1  UNL1        0.2897
     23 O         -18.9102   -8.8334   19.4760 O.3     1  UNL1       -0.4643
     24 C         -17.8605   -7.7702   19.3431 C.ar    1  UNL1        0.1527
     25 C         -18.2415   -6.3231   19.4455 C.ar    1  UNL1        0.0396
     26 C         -17.1918   -5.2599   19.3126 C.ar    1  UNL1        0.0234
     27 C         -15.7609   -5.6439   19.0772 C.ar    1  UNL1        0.1272
     28 C         -15.3800   -7.0910   18.9748 C.ar    1  UNL1        0.0379
     29 C         -16.4296   -8.1542   19.1077 C.ar    1  UNL1        0.0862
     30 N         -16.0486   -9.6014   19.0053 N.am    1  UNL1       -0.2785
     31 H         -15.1096   -9.8535   18.8508 H       1  UNL1        0.1551
@<TRIPOS>BOND
     1    20    21    2
     2    21    22    1
     3    22    23    1
     4    23    24    1
     5    24    25   ar
     6    25    26   ar
     7    26    27   ar
     8    27    17    1
     9    17    18    2
    10    17    19    2
    11    17     1    1
    12     1     2    1
    13     2     3   ar
    14     3     4   ar
    15     4     5   ar
    16     5     6   ar
    17     6     7   ar
    18     7     8    1
    19     8     9    1
    20     9    10    1
    21    10    11   ar
    22    11    12   ar
    23    12    13    1
    24    12    14   ar
    25    14    15   ar
    26    15    16   ar
    27    27    28   ar
    28    28    29   ar
    29    29    30    1
    30    30    21   am
    31    29    24   ar
    32    16     1    1
    33     7     2   ar
    34    16    10   ar
    35    30    31    1
@<TRIPOS>MOLECULE
*****
 31 35 0 0 0
SMALL
GASTEIGER

@<TRIPOS>ATOM
      1 N         -13.4038   -4.6148   18.4150 N.pl3   1  UNL1       -0.1665
      2 C         -11.9945   -4.7101   17.9103 C.ar    1  UNL1        0.0732
      3 C         -11.3784   -3.3524   17.7455 C.ar    1  UNL1        0.0163
      4 C          -9.9687   -3.2238   17.2496 C.ar    1  UNL1        0.0013
      5 C          -9.1750   -4.4528   16.9184 C.ar    1  UNL1       -0.0001
      6 C          -9.7911   -5.8104   17.0832 C.ar    1  UNL1        0.0006
      7 C         -11.2008   -5.9391   17.5792 C.ar    1  UNL1        0.0364
      8 C         -11.6205   -7.3763   17.6710 C.3     1  UNL1        0.2333
      9 O         -12.9374   -7.9395   18.1166 O.3     1  UNL1       -0.4692
     10 C         -14.1600   -7.2045   18.5804 C.ar    1  UNL1        0.1564
     11 C         -15.2671   -8.1520   18.9361 C.ar    1  UNL1        0.0679
     12 C         -16.5817   -7.6200   19.4246 C.ar    1  UNL1        0.1433
     13 F         -17.6888   -8.5675   19.7803 F       1  UNL1       -0.2041
     14 C         -16.7893   -6.1404   19.5575 C.ar    1  UNL1        0.0312
     15 C         -15.6822   -5.1928   19.2018 C.ar    1  UNL1        0.0219
     16 C         -14.3676   -5.7248   18.7133 C.ar    1  UNL1        0.1076
     17 S         -13.9173   -3.2256   18.6530 S.O2    1  UNL1        0.0802
     18 O         -13.3713   -3.2630   20.0496 O.2     1  UNL1       -0.1494
     19 O         -14.4633   -3.1882   17.2564 O.2     1  UNL1       -0.1494
     20 O         -18.9204    1.6128   22.1614 O.2     1  UNL1       -0.2707
     21 C         -17.7662    1.3892   21.2299 C.2     1  UNL1        0.2707
     22 C         -17.1254    2.5546   20.5363 C.3     1  UNL1        0.2897
     23 O         -15.9712    2.3310   19.6047 O.3     1  UNL1       -0.4643
     24 C         -15.4577    0.9419   19.3668 C.ar    1  UNL1        0.1527
     25 C         -14.3035    0.7182   18.4353 C.ar    1  UNL1        0.0396
     26 C         -13.7900   -0.6709   18.1974 C.ar    1  UNL1        0.0234
     27 C         -14.4308   -1.8365   18.8909 C.ar    1  UNL1        0.1272
     28 C         -15.5850   -1.6127   19.8224 C.ar    1  UNL1        0.0379
     29 C         -16.0985   -0.2237   20.0604 C.ar    1  UNL1        0.0862
     30 N         -17.2527    0.0000   20.9919 N.am    1  UNL1       -0.2785
     31 H         -17.6733   -0.7649   21.4472 H       1  UNL1        0.1551
@<TRIPOS>BOND
     1    20    21    2
     2    21    22    1
     3    22    23    1
     4    23    24    1
     5    24    25   ar
     6    25    26   ar
     7    26    27   ar
     8    27    17    1
     9    17    18    2
    10    17    19    2
    11    17     1    1
    12     1     2    1
    13     2     3   ar
    14     3     4   ar
    15     4     5   ar
    16     5     6   ar
    17     6     7   ar
    18     7     8    1
    19     8     9    1
    20     9    10    1
    21    10    11   ar
    22    11    12   ar
    23    12    13    1
    24    12    14   ar
    25    14    15   ar
    26    15    16   ar
    27    27    28   ar
    28    28    29   ar
    29    29    30    1
    30    30    21   am
    31    29    24   ar
    32    16     1    1
    33     7     2   ar
    34    16    10   ar
    35    30    31    1
@<TRIPOS>MOLECULE
*****
 31 35 0 0 0
SMALL
GASTEIGER

@<TRIPOS>ATOM
      1 N         -13.6922   -4.4759   18.4617 N.pl3   1  UNL1       -0.1665
      2 C         -14.6562   -5.5836   18.7684 C.ar    1  UNL1        0.0732
      3 C         -15.9618   -5.0486   19.2774 C.ar    1  UNL1        0.0163
      4 C         -17.0676   -5.9934   19.6441 C.ar    1  UNL1        0.0013
      5 C         -16.8677   -7.4732   19.5018 C.ar    1  UNL1       -0.0001
      6 C         -15.5621   -8.0082   18.9928 C.ar    1  UNL1        0.0006
      7 C         -14.4563   -7.0634   18.6261 C.ar    1  UNL1        0.0364
      8 C         -13.2432   -7.8010   18.1421 C.3     1  UNL1        0.2333
      9 O         -11.9303   -7.2411   17.6808 O.3     1  UNL1       -0.4692
     10 C         -11.5063   -5.8051   17.5896 C.ar    1  UNL1        0.1564
     11 C         -10.1030   -5.6797   17.0748 C.ar    1  UNL1        0.0679
     12 C          -9.4839   -4.3237   16.9075 C.ar    1  UNL1        0.1433
     13 F          -8.0806   -4.1983   16.3927 F       1  UNL1       -0.2041
     14 C         -10.2680   -3.0931   17.2550 C.ar    1  UNL1        0.0312
     15 C         -11.6712   -3.2185   17.7699 C.ar    1  UNL1        0.0219
     16 C         -12.2904   -4.5744   17.9371 C.ar    1  UNL1        0.1076
     17 S         -14.1969   -3.0859   18.7130 S.O2    1  UNL1        0.0802
     18 O         -14.7229   -3.0233   17.3096 O.2     1  UNL1       -0.1494
     19 O         -13.6709   -3.1485   20.1163 O.2     1  UNL1       -0.1494
     20 O         -19.0907    1.7625   22.3590 O.2     1  UNL1       -0.2707
     21 C         -17.9641    1.5364   21.3949 C.2     1  UNL1        0.2707
     22 C         -17.3421    2.7004   20.6819 C.3     1  UNL1        0.2897
     23 O         -16.2155    2.4743   19.7178 O.3     1  UNL1       -0.4643
     24 C         -15.7108    1.0843   19.4665 C.ar    1  UNL1        0.1527
     25 C         -14.5842    0.8582   18.5024 C.ar    1  UNL1        0.0396
     26 C         -14.0796   -0.5318   18.2512 C.ar    1  UNL1        0.0234
     27 C         -14.7016   -1.6958   18.9642 C.ar    1  UNL1        0.1272
     28 C         -15.8282   -1.4697   19.9283 C.ar    1  UNL1        0.0379
     29 C         -16.3328   -0.0798   20.1795 C.ar    1  UNL1        0.0862
     30 N         -17.4595    0.1464   21.1437 N.am    1  UNL1       -0.2785
     31 H         -17.8677   -0.6176   21.6116 H       1  UNL1        0.1551
@<TRIPOS>BOND
     1    20    21    2
     2    21    22    1
     3    22    23    1
     4    23    24    1
     5    24    25   ar
     6    25    26   ar
     7    26    27   ar
     8    27    17    1
     9    17    18    2
    10    17    19    2
    11    17     1    1
    12     1     2    1
    13     2     3   ar
    14     3     4   ar
    15     4     5   ar
    16     5     6   ar
    17     6     7   ar
    18     7     8    1
    19     8     9    1
    20     9    10    1
    21    10    11   ar
    22    11    12   ar
    23    12    13    1
    24    12    14   ar
    25    14    15   ar
    26    15    16   ar
    27    27    28   ar
    28    28    29   ar
    29    29    30    1
    30    30    21   am
    31    29    24   ar
    32    16     1    1
    33     7     2   ar
    34    16    10   ar
    35    30    31    1
@<TRIPOS>MOLECULE
*****
 31 35 0 0 0
SMALL
GASTEIGER

@<TRIPOS>ATOM
      1 N           3.9425    0.0824   32.7076 N.pl3   1  UNL1       -0.1665
      2 C           4.3478    0.3498   34.1269 C.ar    1  UNL1        0.0732
      3 C           5.5241   -0.4899   34.5284 C.ar    1  UNL1        0.0163
      4 C           6.0894   -0.3755   35.9130 C.ar    1  UNL1        0.0013
      5 C           5.4785    0.5785   36.8961 C.ar    1  UNL1       -0.0001
      6 C           4.3023    1.4183   36.4946 C.ar    1  UNL1        0.0006
      7 C           3.7369    1.3039   35.1100 C.ar    1  UNL1        0.0364
      8 C           2.5699    2.2262   34.9166 C.3     1  UNL1        0.2333
      9 O           1.7255    2.4222   33.6925 O.3     1  UNL1       -0.4692
     10 C           1.8396    1.7443   32.3592 C.ar    1  UNL1        0.1564
     11 C           0.7912    2.2333   31.4043 C.ar    1  UNL1        0.0679
     12 C           0.7296    1.6808   30.0111 C.ar    1  UNL1        0.1433
     13 F          -0.3188    2.1698   29.0562 F       1  UNL1       -0.2041
     14 C           1.7162    0.6396   29.5728 C.ar    1  UNL1        0.0312
     15 C           2.7646    0.1506   30.5277 C.ar    1  UNL1        0.0219
     16 C           2.8263    0.7030   31.9209 C.ar    1  UNL1        0.1076
     17 S           4.7619   -0.9409   31.9786 S.O2    1  UNL1        0.0802
     18 O           5.6935    0.1378   31.5113 O.2     1  UNL1       -0.1494
     19 O           3.8303   -2.0197   32.4459 O.2     1  UNL1       -0.1494
     20 O           9.0549   -7.4460   32.0463 O.2     1  UNL1       -0.2707
     21 C           8.4432   -6.3011   31.2948 C.2     1  UNL1        0.2707
     22 C           8.6509   -6.1794   29.8143 C.3     1  UNL1        0.2897
     23 O           8.0393   -5.0344   29.0626 O.3     1  UNL1       -0.4643
     24 C           7.2199   -4.0110   29.7916 C.ar    1  UNL1        0.1527
     25 C           6.6083   -2.8660   29.0401 C.ar    1  UNL1        0.0396
     26 C           5.7890   -1.8427   29.7690 C.ar    1  UNL1        0.0234
     27 C           5.5812   -1.9643   31.2496 C.ar    1  UNL1        0.1272
     28 C           6.1929   -3.1093   32.0011 C.ar    1  UNL1        0.0379
     29 C           7.0122   -4.1326   31.2722 C.ar    1  UNL1        0.0862
     30 N           7.6239   -5.2777   32.0238 N.am    1  UNL1       -0.2785
     31 H           7.4876   -5.3575   32.9955 H       1  UNL1        0.1551
@<TRIPOS>BOND
     1    20    21    2
     2    21    22    1
     3    22    23    1
     4    23    24    1
     5    24    25   ar
     6    25    26   ar
     7    26    27   ar
     8    27    17    1
     9    17    18    2
    10    17    19    2
    11    17     1    1
    12     1     2    1
    13     2     3   ar
    14     3     4   ar
    15     4     5   ar
    16     5     6   ar
    17     6     7   ar
    18     7     8    1
    19     8     9    1
    20     9    10    1
    21    10    11   ar
    22    11    12   ar
    23    12    13    1
    24    12    14   ar
    25    14    15   ar
    26    15    16   ar
    27    27    28   ar
    28    28    29   ar
    29    29    30    1
    30    30    21   am
    31    29    24   ar
    32    16     1    1
    33     7     2   ar
    34    16    10   ar
    35    30    31    1
@<TRIPOS>MOLECULE
*****
 31 35 0 0 0
SMALL
GASTEIGER

@<TRIPOS>ATOM
      1 N          -6.7338  -18.1463   22.4404 N.pl3   1  UNL1       -0.1665
      2 C          -6.1131  -19.1219   21.4849 C.ar    1  UNL1        0.0732
      3 C          -7.1571  -19.9114   20.7525 C.ar    1  UNL1        0.0163
      4 C          -6.7467  -20.9454   19.7463 C.ar    1  UNL1        0.0013
      5 C          -5.2923  -21.1899   19.4726 C.ar    1  UNL1       -0.0001
      6 C          -4.2483  -20.4003   20.2050 C.ar    1  UNL1        0.0006
      7 C          -4.6586  -19.3663   21.2112 C.ar    1  UNL1        0.0364
      8 C          -3.4658  -18.6955   21.8253 C.3     1  UNL1        0.2333
      9 O          -3.4327  -17.6146   22.8649 O.3     1  UNL1       -0.4692
     10 C          -4.5844  -16.9376   23.5470 C.ar    1  UNL1        0.1564
     11 C          -4.1108  -15.9059   24.5276 C.ar    1  UNL1        0.0679
     12 C          -5.1064  -15.1109   25.3192 C.ar    1  UNL1        0.1433
     13 F          -4.6329  -14.0792   26.2997 F       1  UNL1       -0.2041
     14 C          -6.5755  -15.3475   25.1303 C.ar    1  UNL1        0.0312
     15 C          -7.0491  -16.3791   24.1498 C.ar    1  UNL1        0.0219
     16 C          -6.0535  -17.1742   23.3582 C.ar    1  UNL1        0.1076
     17 S          -8.2331  -18.1423   22.4839 S.O2    1  UNL1        0.0802
     18 O          -8.2568  -16.9612   21.5595 O.2     1  UNL1       -0.1494
     19 O          -8.2095  -19.3233   23.4084 O.2     1  UNL1       -0.1494
     20 O         -14.8713  -18.8566   26.5057 O.2     1  UNL1       -0.2707
     21 C         -14.1580  -18.6145   25.2087 C.2     1  UNL1        0.2707
     22 C         -14.9439  -18.3684   23.9550 C.3     1  UNL1        0.2897
     23 O         -14.2306  -18.1263   22.6578 O.3     1  UNL1       -0.4643
     24 C         -12.7313  -18.1303   22.6143 C.ar    1  UNL1        0.1527
     25 C         -12.0180  -17.8882   21.3173 C.ar    1  UNL1        0.0396
     26 C         -10.5186  -17.8922   21.2738 C.ar    1  UNL1        0.0234
     27 C          -9.7325  -18.1383   22.5274 C.ar    1  UNL1        0.1272
     28 C         -10.4459  -18.3804   23.8245 C.ar    1  UNL1        0.0379
     29 C         -11.9452  -18.3764   23.8680 C.ar    1  UNL1        0.0862
     30 N         -12.6586  -18.6185   25.1652 N.am    1  UNL1       -0.2785
     31 H         -12.1427  -18.7800   25.9880 H       1  UNL1        0.1551
@<TRIPOS>BOND
     1    20    21    2
     2    21    22    1
     3    22    23    1
     4    23    24    1
     5    24    25   ar
     6    25    26   ar
     7    26    27   ar
     8    27    17    1
     9    17    18    2
    10    17    19    2
    11    17     1    1
    12     1     2    1
    13     2     3   ar
    14     3     4   ar
    15     4     5   ar
    16     5     6   ar
    17     6     7   ar
    18     7     8    1
    19     8     9    1
    20     9    10    1
    21    10    11   ar
    22    11    12   ar
    23    12    13    1
    24    12    14   ar
    25    14    15   ar
    26    15    16   ar
    27    27    28   ar
    28    28    29   ar
    29    29    30    1
    30    30    21   am
    31    29    24   ar
    32    16     1    1
    33     7     2   ar
    34    16    10   ar
    35    30    31    1
@<TRIPOS>MOLECULE
*****
 31 35 0 0 0
SMALL
GASTEIGER

@<TRIPOS>ATOM
      1 N           3.9297    0.0216   32.9286 N.pl3   1  UNL1       -0.1665
      2 C           4.3100    0.3759   34.3357 C.ar    1  UNL1        0.0732
      3 C           5.4546   -0.4627   34.8218 C.ar    1  UNL1        0.0163
      4 C           5.9916   -0.2673   36.2086 C.ar    1  UNL1        0.0013
      5 C           5.3839    0.7668   37.1094 C.ar    1  UNL1       -0.0001
      6 C           4.2393    1.6054   36.6233 C.ar    1  UNL1        0.0006
      7 C           3.7023    1.4100   35.2365 C.ar    1  UNL1        0.0364
      8 C           2.5642    2.3451   34.9526 C.3     1  UNL1        0.2333
      9 O           1.7528    2.4771   33.6979 O.3     1  UNL1       -0.4692
     10 C           1.8791    1.7065   32.4172 C.ar    1  UNL1        0.1564
     11 C           0.8654    2.1541   31.4062 C.ar    1  UNL1        0.0679
     12 C           0.8206    1.5089   30.0527 C.ar    1  UNL1        0.1433
     13 F          -0.1931    1.9565   29.0417 F       1  UNL1       -0.2041
     14 C           1.7893    0.4161   29.7103 C.ar    1  UNL1        0.0312
     15 C           2.8030   -0.0315   30.7214 C.ar    1  UNL1        0.0219
     16 C           2.8479    0.6137   32.0747 C.ar    1  UNL1        0.1076
     17 S           4.7382   -1.0692   32.2910 S.O2    1  UNL1        0.0802
     18 O           5.7127   -0.0491   31.7814 O.2     1  UNL1       -0.1494
     19 O           3.7638   -2.0894   32.8007 O.2     1  UNL1       -0.1494
     20 O           8.1896   -4.1179   26.0026 O.2     1  UNL1       -0.2707
     21 C           7.8477   -4.1925   27.4612 C.2     1  UNL1        0.2707
     22 C           8.3142   -5.3578   28.2823 C.3     1  UNL1        0.2897
     23 O           7.9723   -5.4324   29.7409 O.3     1  UNL1       -0.4643
     24 C           7.1638   -4.3417   30.3785 C.ar    1  UNL1        0.1527
     25 C           6.8219   -4.4163   31.8370 C.ar    1  UNL1        0.0396
     26 C           6.0134   -3.3255   32.4746 C.ar    1  UNL1        0.0234
     27 C           5.5467   -2.1600   31.6535 C.ar    1  UNL1        0.1272
     28 C           5.8887   -2.0855   30.1949 C.ar    1  UNL1        0.0379
     29 C           6.6972   -3.1762   29.5574 C.ar    1  UNL1        0.0862
     30 N           7.0391   -3.1017   28.0987 N.am    1  UNL1       -0.2785
     31 H           6.7329   -2.3368   27.5598 H       1  UNL1        0.1551
@<TRIPOS>BOND
     1    20    21    2
     2    21    22    1
     3    22    23    1
     4    23    24    1
     5    24    25   ar
     6    25    26   ar
     7    26    27   ar
     8    27    17    1
     9    17    18    2
    10    17    19    2
    11    17     1    1
    12     1     2    1
    13     2     3   ar
    14     3     4   ar
    15     4     5   ar
    16     5     6   ar
    17     6     7   ar
    18     7     8    1
    19     8     9    1
    20     9    10    1
    21    10    11   ar
    22    11    12   ar
    23    12    13    1
    24    12    14   ar
    25    14    15   ar
    26    15    16   ar
    27    27    28   ar
    28    28    29   ar
    29    29    30    1
    30    30    21   am
    31    29    24   ar
    32    16     1    1
    33     7     2   ar
    34    16    10   ar
    35    30    31    1
@<TRIPOS>MOLECULE
*****
 31 35 0 0 0
SMALL
GASTEIGER

@<TRIPOS>ATOM
      1 N         -13.7375   -4.4646   18.4717 N.pl3   1  UNL1       -0.1665
      2 C         -14.6934   -5.5751   18.7927 C.ar    1  UNL1        0.0732
      3 C         -16.0034   -5.0431   19.2936 C.ar    1  UNL1        0.0163
      4 C         -17.1023   -5.9911   19.6724 C.ar    1  UNL1        0.0013
      5 C         -16.8914   -7.4711   19.5503 C.ar    1  UNL1       -0.0001
      6 C         -15.5814   -8.0032   19.0494 C.ar    1  UNL1        0.0006
      7 C         -14.4825   -7.0552   18.6706 C.ar    1  UNL1        0.0364
      8 C         -13.2635   -7.7902   18.1974 C.3     1  UNL1        0.2333
      9 O         -11.9545   -7.2268   17.7294 O.3     1  UNL1       -0.4692
     10 C         -11.5411   -5.7891   17.6190 C.ar    1  UNL1        0.1564
     11 C         -10.1385   -5.6603   17.1034 C.ar    1  UNL1        0.0679
     12 C          -9.5293   -4.3020   16.9182 C.ar    1  UNL1        0.1433
     13 F          -8.1266   -4.1732   16.4026 F       1  UNL1       -0.2041
     14 C         -10.3228   -3.0728   17.2485 C.ar    1  UNL1        0.0312
     15 C         -11.7255   -3.2017   17.7641 C.ar    1  UNL1        0.0219
     16 C         -12.3347   -4.5598   17.9494 C.ar    1  UNL1        0.1076
     17 S         -14.2527   -3.0751   18.7037 S.O2    1  UNL1        0.0802
     18 O         -13.6657   -3.0880   20.0841 O.2     1  UNL1       -0.1494
     19 O         -14.8398   -3.0622   17.3234 O.2     1  UNL1       -0.1494
     20 O         -14.0750    4.5476   17.0871 O.2     1  UNL1       -0.2707
     21 C         -14.6494    3.3962   17.8580 C.2     1  UNL1        0.2707
     22 C         -15.7390    3.6343   18.8610 C.3     1  UNL1        0.2897
     23 O         -16.3135    2.4829   19.6320 O.3     1  UNL1       -0.4643
     24 C         -15.7983    1.0934   19.3999 C.ar    1  UNL1        0.1527
     25 C         -16.3728   -0.0579   20.1709 C.ar    1  UNL1        0.0396
     26 C         -15.8576   -1.4474   19.9388 C.ar    1  UNL1        0.0234
     27 C         -14.7679   -1.6856   18.9358 C.ar    1  UNL1        0.1272
     28 C         -14.1935   -0.5342   18.1649 C.ar    1  UNL1        0.0379
     29 C         -14.7087    0.8553   18.3969 C.ar    1  UNL1        0.0862
     30 N         -14.1342    2.0067   17.6260 N.am    1  UNL1       -0.2785
     31 H         -13.4191    1.8504   16.9677 H       1  UNL1        0.1551
@<TRIPOS>BOND
     1    20    21    2
     2    21    22    1
     3    22    23    1
     4    23    24    1
     5    24    25   ar
     6    25    26   ar
     7    26    27   ar
     8    27    17    1
     9    17    18    2
    10    17    19    2
    11    17     1    1
    12     1     2    1
    13     2     3   ar
    14     3     4   ar
    15     4     5   ar
    16     5     6   ar
    17     6     7   ar
    18     7     8    1
    19     8     9    1
    20     9    10    1
    21    10    11   ar
    22    11    12   ar
    23    12    13    1
    24    12    14   ar
    25    14    15   ar
    26    15    16   ar
    27    27    28   ar
    28    28    29   ar
    29    29    30    1
    30    30    21   am
    31    29    24   ar
    32    16     1    1
    33     7     2   ar
    34    16    10   ar
    35    30    31    1
@<TRIPOS>MOLECULE
*****
 31 35 0 0 0
SMALL
GASTEIGER

@<TRIPOS>ATOM
      1 N         -15.1651   -5.4689   19.0586 N.pl3   1  UNL1       -0.1665
      2 C         -16.1702   -6.5800   18.9863 C.ar    1  UNL1        0.0732
      3 C         -17.5689   -6.0656   19.1565 C.ar    1  UNL1        0.0163
      4 C         -18.7279   -7.0170   19.1164 C.ar    1  UNL1        0.0013
      5 C         -18.4882   -8.4827   18.9063 C.ar    1  UNL1       -0.0001
      6 C         -17.0895   -8.9971   18.7361 C.ar    1  UNL1        0.0006
      7 C         -15.9305   -8.0457   18.7762 C.ar    1  UNL1        0.0364
      8 C         -14.6264   -8.7623   18.5864 C.3     1  UNL1        0.2333
      9 O         -13.2401   -8.1903   18.5599 O.3     1  UNL1       -0.4692
     10 C         -12.8153   -6.7602   18.7167 C.ar    1  UNL1        0.1564
     11 C         -11.3248   -6.6182   18.6261 C.ar    1  UNL1        0.0679
     12 C         -10.6910   -5.2650   18.7574 C.ar    1  UNL1        0.1433
     13 F          -9.2005   -5.1229   18.6668 F       1  UNL1       -0.2041
     14 C         -11.5477   -4.0539   18.9793 C.ar    1  UNL1        0.0312
     15 C         -13.0382   -4.1959   19.0699 C.ar    1  UNL1        0.0219
     16 C         -13.6720   -5.5490   18.9386 C.ar    1  UNL1        0.1076
     17 S         -15.7274   -4.0961   19.2802 S.O2    1  UNL1        0.0802
     18 O         -15.5530   -4.2636   20.7606 O.2     1  UNL1       -0.1494
     19 O         -15.9018   -3.9285   17.7998 O.2     1  UNL1       -0.1494
     20 O         -14.8362    3.6470   19.2632 O.2     1  UNL1       -0.2707
     21 C         -15.6956    2.4389   19.4904 C.2     1  UNL1        0.2707
     22 C         -17.1173    2.6035   19.9393 C.3     1  UNL1        0.2897
     23 O         -17.9768    1.3953   20.1666 O.3     1  UNL1       -0.4643
     24 C         -17.4144    0.0224   19.9450 C.ar    1  UNL1        0.1527
     25 C         -18.2738   -1.1857   20.1723 C.ar    1  UNL1        0.0396
     26 C         -17.7115   -2.5586   19.9507 C.ar    1  UNL1        0.0234
     27 C         -16.2897   -2.7232   19.5018 C.ar    1  UNL1        0.1272
     28 C         -15.4304   -1.5150   19.2745 C.ar    1  UNL1        0.0379
     29 C         -15.9926   -0.1422   19.4961 C.ar    1  UNL1        0.0862
     30 N         -15.1332    1.0660   19.2688 N.am    1  UNL1       -0.2785
     31 H         -14.2001    0.9580   18.9742 H       1  UNL1        0.1551
@<TRIPOS>BOND
     1    20    21    2
     2    21    22    1
     3    22    23    1
     4    23    24    1
     5    24    25   ar
     6    25    26   ar
     7    26    27   ar
     8    27    17    1
     9    17    18    2
    10    17    19    2
    11    17     1    1
    12     1     2    1
    13     2     3   ar
    14     3     4   ar
    15     4     5   ar
    16     5     6   ar
    17     6     7   ar
    18     7     8    1
    19     8     9    1
    20     9    10    1
    21    10    11   ar
    22    11    12   ar
    23    12    13    1
    24    12    14   ar
    25    14    15   ar
    26    15    16   ar
    27    27    28   ar
    28    28    29   ar
    29    29    30    1
    30    30    21   am
    31    29    24   ar
    32    16     1    1
    33     7     2   ar
    34    16    10   ar
    35    30    31    1
@<TRIPOS>MOLECULE
*****
 31 35 0 0 0
SMALL
GASTEIGER

@<TRIPOS>ATOM
      1 N          -0.1304    2.4980   21.0901 N.pl3   1  UNL1       -0.1665
      2 C          -0.2075    2.3497   22.5808 C.ar    1  UNL1        0.0732
      3 C           0.7716    1.3296   23.0815 C.ar    1  UNL1        0.0163
      4 C           0.8565    1.0284   24.5484 C.ar    1  UNL1        0.0013
      5 C          -0.0377    1.7472   25.5147 C.ar    1  UNL1       -0.0001
      6 C          -1.0168    2.7673   25.0140 C.ar    1  UNL1        0.0006
      7 C          -1.1018    3.0685   23.5471 C.ar    1  UNL1        0.0364
      8 C          -2.1396    4.1131   23.2613 C.3     1  UNL1        0.2333
      9 O          -2.5396    4.6970   21.9387 O.3     1  UNL1       -0.4692
     10 C          -2.0005    4.3803   20.5752 C.ar    1  UNL1        0.1564
     11 C          -2.6799    5.1948   19.5146 C.ar    1  UNL1        0.0679
     12 C          -2.2872    5.0306   18.0762 C.ar    1  UNL1        0.1433
     13 F          -2.9666    5.8450   17.0156 F       1  UNL1       -0.2041
     14 C          -1.2150    4.0520   17.6986 C.ar    1  UNL1        0.0312
     15 C          -0.5355    3.2375   18.7592 C.ar    1  UNL1        0.0219
     16 C          -0.9282    3.4017   20.1975 C.ar    1  UNL1        0.1076
     17 S           0.8782    1.6275   20.4009 S.O2    1  UNL1        0.0802
     18 O           1.8795    2.7429   20.4573 O.2     1  UNL1       -0.1494
     19 O          -0.1232    0.5121   20.3445 O.2     1  UNL1       -0.1494
     20 O           4.8744   -5.0520   19.9946 O.2     1  UNL1       -0.2707
     21 C           4.5509   -3.6961   19.4408 C.2     1  UNL1        0.2707
     22 C           5.2358   -3.2107   18.1977 C.3     1  UNL1        0.2897
     23 O           4.9123   -1.8547   17.6439 O.3     1  UNL1       -0.4643
     24 C           3.9037   -0.9841   18.3331 C.ar    1  UNL1        0.1527
     25 C           3.5802    0.3718   17.7793 C.ar    1  UNL1        0.0396
     26 C           2.5717    1.2423   18.4686 C.ar    1  UNL1        0.0234
     27 C           1.8867    0.7569   19.7117 C.ar    1  UNL1        0.1272
     28 C           2.2103   -0.5990   20.2654 C.ar    1  UNL1        0.0379
     29 C           3.2188   -1.4695   19.5762 C.ar    1  UNL1        0.0862
     30 N           3.5424   -2.8255   20.1300 N.am    1  UNL1       -0.2785
     31 H           3.0928   -3.1441   20.9459 H       1  UNL1        0.1551
@<TRIPOS>BOND
     1    20    21    2
     2    21    22    1
     3    22    23    1
     4    23    24    1
     5    24    25   ar
     6    25    26   ar
     7    26    27   ar
     8    27    17    1
     9    17    18    2
    10    17    19    2
    11    17     1    1
    12     1     2    1
    13     2     3   ar
    14     3     4   ar
    15     4     5   ar
    16     5     6   ar
    17     6     7   ar
    18     7     8    1
    19     8     9    1
    20     9    10    1
    21    10    11   ar
    22    11    12   ar
    23    12    13    1
    24    12    14   ar
    25    14    15   ar
    26    15    16   ar
    27    27    28   ar
    28    28    29   ar
    29    29    30    1
    30    30    21   am
    31    29    24   ar
    32    16     1    1
    33     7     2   ar
    34    16    10   ar
    35    30    31    1
