@<TRIPOS>MOLECULE
*****
 24 25 0 0 0
SMALL
GASTEIGER

@<TRIPOS>ATOM
      1 C          -4.7003  -16.7876   24.1203 C.3     1  UNL1        0.0435
      2 C          -4.2658  -19.5704   21.3244 C.ar    1  UNL1        0.1382
      3 C          -2.7758  -19.5687   21.1518 C.ar    1  UNL1        0.0369
      4 C          -1.9273  -18.6399   21.9688 C.ar    1  UNL1        0.0028
      5 C          -2.5687  -17.7129   22.9583 C.ar    1  UNL1       -0.0040
      6 C          -4.0588  -17.7147   23.1308 C.ar    1  UNL1       -0.0178
      7 C          -4.9073  -18.6434   22.3139 C.ar    1  UNL1        0.0327
      8 O          -5.1144  -20.4991   20.5074 O.3     1  UNL1       -0.4755
      9 C          -6.6009  -20.5271   20.7061 C.3     1  UNL1        0.2054
     10 C          -7.4828  -19.6222   19.8978 C.3     1  UNL1        0.0473
     11 C         -10.0574  -19.5102   19.5677 C.3     1  UNL1        0.0001
     12 C          -8.8429  -19.2486   20.4083 C.3     1  UNL1        0.0038
     13 C          -4.9991  -15.3692   23.7347 C.3     1  UNL1        0.0737
     14 N          -6.4216  -14.9076   23.6172 N.3     1  UNL1       -0.2895
     15 H          -6.4444  -14.2106   22.8729 H       1  UNL1        0.1237
     16 C          -7.5087  -15.8968   23.3178 C.3     1  UNL1        0.1552
     17 C          -8.4561  -15.6488   22.1816 C.2     1  UNL1        0.2418
     18 O          -8.0529  -14.7483   21.0517 O.2     1  UNL1       -0.2734
     19 N          -9.8068  -16.3013   22.1753 N.am    1  UNL1       -0.2784
     20 C         -10.2100  -17.2017   23.3051 C.3     1  UNL1        0.0934
     21 C         -11.5606  -17.8542   23.2988 C.3     1  UNL1        0.0216
     22 C         -12.5080  -17.6062   22.1627 C.3     1  UNL1        0.0035
     23 C         -12.1048  -16.7058   21.0328 C.3     1  UNL1        0.0216
     24 C         -10.7542  -16.0533   21.0391 C.3     1  UNL1        0.0934
@<TRIPOS>BOND
     1    11    12    1
     2    12    10    1
     3    10     9    1
     4     9     8    1
     5     8     2    1
     6     2     3   ar
     7     3     4   ar
     8     4     5   ar
     9     5     6   ar
    10     6     1    1
    11     1    13    1
    12    13    14    1
    13    14    16    1
    14    16    17    1
    15    17    18    2
    16    17    19   am
    17    19    20    1
    18    20    21    1
    19    21    22    1
    20    22    23    1
    21    23    24    1
    22     6     7   ar
    23     7     2   ar
    24    24    19    1
    25    14    15    1
@<TRIPOS>MOLECULE
*****
 24 25 0 0 0
SMALL
GASTEIGER

@<TRIPOS>ATOM
      1 C         -11.2183  -19.2209   21.9998 C.3     1  UNL1        0.0435
      2 C          -7.3226  -19.7900   21.5000 C.ar    1  UNL1        0.1382
      3 C          -7.2264  -19.7931   20.0031 C.ar    1  UNL1        0.0369
      4 C          -8.4608  -19.6055   19.1718 C.ar    1  UNL1        0.0028
      5 C          -9.7914  -19.4148   19.8373 C.ar    1  UNL1       -0.0040
      6 C          -9.8876  -19.4117   21.3342 C.ar    1  UNL1       -0.0178
      7 C          -8.6533  -19.5993   22.1655 C.ar    1  UNL1        0.0327
      8 O          -6.0883  -19.9777   22.3313 O.3     1  UNL1       -0.4755
      9 C          -4.9720  -18.9789   22.2525 C.3     1  UNL1        0.2054
     10 C          -3.5596  -19.4461   22.0605 C.3     1  UNL1        0.0473
     11 C          -3.5620  -19.1593   19.4782 C.3     1  UNL1        0.0001
     12 C          -3.0927  -19.8852   20.7042 C.3     1  UNL1        0.0038
     13 C         -11.8523  -17.8619   22.0332 C.3     1  UNL1        0.0737
     14 N         -10.9920  -16.6332   22.0512 N.3     1  UNL1       -0.2895
     15 H         -11.6121  -15.8374   21.9015 H       1  UNL1        0.1237
     16 C         -10.1636  -16.3153   23.2606 C.3     1  UNL1        0.1552
     17 C          -8.6867  -16.0938   23.1209 C.2     1  UNL1        0.2418
     18 O          -8.0496  -16.1193   21.7632 O.2     1  UNL1       -0.2734
     19 N          -7.8468  -15.8468   24.3390 N.am    1  UNL1       -0.2784
     20 C          -8.4839  -15.8214   25.6967 C.3     1  UNL1        0.0934
     21 C          -7.6441  -15.5744   26.9147 C.3     1  UNL1        0.0216
     22 C          -6.1671  -15.3529   26.7750 C.3     1  UNL1        0.0035
     23 C          -5.5300  -15.3784   25.4173 C.3     1  UNL1        0.0216
     24 C          -6.3698  -15.6254   24.1993 C.3     1  UNL1        0.0934
@<TRIPOS>BOND
     1    11    12    1
     2    12    10    1
     3    10     9    1
     4     9     8    1
     5     8     2    1
     6     2     3   ar
     7     3     4   ar
     8     4     5   ar
     9     5     6   ar
    10     6     1    1
    11     1    13    1
    12    13    14    1
    13    14    16    1
    14    16    17    1
    15    17    18    2
    16    17    19   am
    17    19    20    1
    18    20    21    1
    19    21    22    1
    20    22    23    1
    21    23    24    1
    22     6     7   ar
    23     7     2   ar
    24    24    19    1
    25    14    15    1
@<TRIPOS>MOLECULE
*****
 24 25 0 0 0
SMALL
GASTEIGER

@<TRIPOS>ATOM
      1 C          -7.8470  -19.5391   22.3955 C.3     1  UNL1        0.0435
      2 C          -3.9639  -19.0045   21.7745 C.ar    1  UNL1        0.1382
      3 C          -3.7192  -19.9753   20.6576 C.ar    1  UNL1        0.0369
      4 C          -4.8504  -20.8007   20.1199 C.ar    1  UNL1        0.0028
      5 C          -6.2263  -20.6553   20.6992 C.ar    1  UNL1       -0.0040
      6 C          -6.4710  -19.6845   21.8162 C.ar    1  UNL1       -0.0178
      7 C          -5.3398  -18.8591   22.3538 C.ar    1  UNL1        0.0327
      8 O          -2.8327  -18.1791   22.3122 O.3     1  UNL1       -0.4755
      9 C          -2.2191  -17.1047   21.4643 C.3     1  UNL1        0.2054
     10 C          -1.0618  -17.4273   20.5661 C.3     1  UNL1        0.0473
     11 C          -2.5781  -17.3189   18.4591 C.3     1  UNL1        0.0001
     12 C          -1.3009  -17.7458   19.1199 C.3     1  UNL1        0.0038
     13 C          -8.8988  -18.7748   21.6475 C.3     1  UNL1        0.0737
     14 N          -9.9935  -18.0752   22.3975 N.3     1  UNL1       -0.2895
     15 H         -10.1487  -18.6058   23.2547 H       1  UNL1        0.1237
     16 C          -9.8279  -16.6400   22.8006 C.3     1  UNL1        0.1552
     17 C          -8.4541  -16.0614   22.9667 C.2     1  UNL1        0.2418
     18 O          -7.6614  -15.6528   21.7605 O.2     1  UNL1       -0.2734
     19 N          -7.8727  -15.8913   24.3390 N.am    1  UNL1       -0.2784
     20 C          -8.6653  -16.2998   25.5452 C.3     1  UNL1        0.0934
     21 C          -8.0841  -16.1298   26.9174 C.3     1  UNL1        0.0216
     22 C          -6.7102  -15.5512   27.0835 C.3     1  UNL1        0.0035
     23 C          -5.9176  -15.1426   25.8774 C.3     1  UNL1        0.0216
     24 C          -6.4989  -15.3127   24.5051 C.3     1  UNL1        0.0934
@<TRIPOS>BOND
     1    11    12    1
     2    12    10    1
     3    10     9    1
     4     9     8    1
     5     8     2    1
     6     2     3   ar
     7     3     4   ar
     8     4     5   ar
     9     5     6   ar
    10     6     1    1
    11     1    13    1
    12    13    14    1
    13    14    16    1
    14    16    17    1
    15    17    18    2
    16    17    19   am
    17    19    20    1
    18    20    21    1
    19    21    22    1
    20    22    23    1
    21    23    24    1
    22     6     7   ar
    23     7     2   ar
    24    24    19    1
    25    14    15    1
@<TRIPOS>MOLECULE
*****
 24 25 0 0 0
SMALL
GASTEIGER

@<TRIPOS>ATOM
      1 C         -11.0371  -19.1815   20.4710 C.3     1  UNL1        0.0435
      2 C         -10.0158  -17.4049   23.8696 C.ar    1  UNL1        0.1382
      3 C         -10.0237  -18.5713   24.8127 C.ar    1  UNL1        0.0369
      4 C         -10.3694  -19.9411   24.3086 C.ar    1  UNL1        0.0028
      5 C         -10.7072  -20.1445   22.8614 C.ar    1  UNL1       -0.0040
      6 C         -10.6993  -18.9782   21.9183 C.ar    1  UNL1       -0.0178
      7 C         -10.3536  -17.6084   22.4224 C.ar    1  UNL1        0.0327
      8 O          -9.6701  -16.0351   24.3737 O.3     1  UNL1       -0.4755
      9 C          -8.3224  -15.7769   24.9794 C.3     1  UNL1        0.2054
     10 C          -8.1932  -15.5645   26.4587 C.3     1  UNL1        0.0473
     11 C          -5.6285  -15.2009   26.2573 C.3     1  UNL1        0.0001
     12 C          -6.8348  -15.5115   27.0929 C.3     1  UNL1        0.0038
     13 C          -9.9447  -19.2185   19.4438 C.3     1  UNL1        0.0737
     14 N          -8.6849  -19.9860   19.7161 N.3     1  UNL1       -0.2895
     15 H          -8.5983  -20.6820   18.9755 H       1  UNL1        0.1237
     16 C          -7.3703  -19.2675   19.7908 C.3     1  UNL1        0.1552
     17 C          -6.5296  -19.3689   21.0289 C.2     1  UNL1        0.2418
     18 O          -7.1810  -19.5893   22.3619 O.2     1  UNL1       -0.2734
     19 N          -5.0373  -19.2500   20.9339 N.am    1  UNL1       -0.2784
     20 C          -4.3858  -19.0296   19.6009 C.3     1  UNL1        0.0934
     21 C          -2.8935  -18.9106   19.5059 C.3     1  UNL1        0.0216
     22 C          -2.0528  -19.0120   20.7440 C.3     1  UNL1        0.0035
     23 C          -2.7043  -19.2324   22.0770 C.3     1  UNL1        0.0216
     24 C          -4.1965  -19.3514   22.1720 C.3     1  UNL1        0.0934
@<TRIPOS>BOND
     1    11    12    1
     2    12    10    1
     3    10     9    1
     4     9     8    1
     5     8     2    1
     6     2     3   ar
     7     3     4   ar
     8     4     5   ar
     9     5     6   ar
    10     6     1    1
    11     1    13    1
    12    13    14    1
    13    14    16    1
    14    16    17    1
    15    17    18    2
    16    17    19   am
    17    19    20    1
    18    20    21    1
    19    21    22    1
    20    22    23    1
    21    23    24    1
    22     6     7   ar
    23     7     2   ar
    24    24    19    1
    25    14    15    1
@<TRIPOS>MOLECULE
*****
 24 25 0 0 0
SMALL
GASTEIGER

@<TRIPOS>ATOM
      1 C          -7.8609  -16.2880   24.7242 C.3     1  UNL1        0.0435
      2 C         -11.4121  -16.8820   23.0548 C.ar    1  UNL1        0.1382
      3 C         -11.8139  -18.1769   23.6964 C.ar    1  UNL1        0.0369
      4 C         -10.8980  -18.8422   24.6806 C.ar    1  UNL1        0.0028
      5 C          -9.5804  -18.2126   25.0232 C.ar    1  UNL1       -0.0040
      6 C          -9.1786  -16.9177   24.3816 C.ar    1  UNL1       -0.0178
      7 C         -10.0944  -16.2524   23.3974 C.ar    1  UNL1        0.0327
      8 O         -12.3279  -16.2167   22.0706 O.3     1  UNL1       -0.4755
      9 C         -12.3973  -16.7128   20.6567 C.3     1  UNL1        0.2054
     10 C         -11.1468  -17.1506   19.9533 C.3     1  UNL1        0.0473
     11 C         -10.4737  -19.5628   20.6448 C.3     1  UNL1        0.0001
     12 C         -10.9506  -18.5957   19.6021 C.3     1  UNL1        0.0038
     13 C          -7.2036  -15.3500   23.7557 C.3     1  UNL1        0.0737
     14 N          -5.7540  -15.5226   23.4107 N.3     1  UNL1       -0.2895
     15 H          -5.2626  -14.7134   23.7905 H       1  UNL1        0.1237
     16 C          -5.0115  -16.7390   23.8785 C.3     1  UNL1        0.1552
     17 C          -4.1508  -17.5071   22.9197 C.2     1  UNL1        0.2418
     18 O          -2.6916  -17.1823   22.7960 O.2     1  UNL1       -0.2734
     19 N          -4.7494  -18.5999   22.0845 N.am    1  UNL1       -0.2784
     20 C          -6.2086  -18.9247   22.2082 C.3     1  UNL1        0.0934
     21 C          -6.8072  -20.0175   21.3731 C.3     1  UNL1        0.0216
     22 C          -5.9465  -20.7856   20.4143 C.3     1  UNL1        0.0035
     23 C          -4.4873  -20.4608   20.2906 C.3     1  UNL1        0.0216
     24 C          -3.8888  -19.3680   21.1257 C.3     1  UNL1        0.0934
@<TRIPOS>BOND
     1    11    12    1
     2    12    10    1
     3    10     9    1
     4     9     8    1
     5     8     2    1
     6     2     3   ar
     7     3     4   ar
     8     4     5   ar
     9     5     6   ar
    10     6     1    1
    11     1    13    1
    12    13    14    1
    13    14    16    1
    14    16    17    1
    15    17    18    2
    16    17    19   am
    17    19    20    1
    18    20    21    1
    19    21    22    1
    20    22    23    1
    21    23    24    1
    22     6     7   ar
    23     7     2   ar
    24    24    19    1
    25    14    15    1
@<TRIPOS>MOLECULE
*****
 24 25 0 0 0
SMALL
GASTEIGER

@<TRIPOS>ATOM
      1 C          -7.4801  -15.2781   23.7269 C.3     1  UNL1        0.0435
      2 C          -8.7838  -18.7662   22.3544 C.ar    1  UNL1        0.1382
      3 C          -9.7530  -19.1507   23.4327 C.ar    1  UNL1        0.0369
      4 C          -9.9647  -18.2444   24.6090 C.ar    1  UNL1        0.0028
      5 C          -9.2070  -16.9535   24.7071 C.ar    1  UNL1       -0.0040
      6 C          -8.2378  -16.5690   23.6289 C.ar    1  UNL1       -0.0178
      7 C          -8.0262  -17.4754   22.4525 C.ar    1  UNL1        0.0327
      8 O          -8.5722  -19.6726   21.1781 O.3     1  UNL1       -0.4755
      9 C          -9.1281  -19.3010   19.8354 C.3     1  UNL1        0.2054
     10 C         -10.6017  -19.0746   19.6703 C.3     1  UNL1        0.0473
     11 C         -12.2811  -17.7133   21.1113 C.3     1  UNL1        0.0001
     12 C         -11.2074  -17.7602   20.0649 C.3     1  UNL1        0.0038
     13 C          -6.0862  -15.2668   24.2808 C.3     1  UNL1        0.0737
     14 N          -4.9444  -15.7712   23.4488 N.3     1  UNL1       -0.2895
     15 H          -4.1917  -15.0885   23.5370 H       1  UNL1        0.1237
     16 C          -4.3449  -17.1161   23.7345 C.3     1  UNL1        0.1552
     17 C          -4.1858  -18.1166   22.6284 C.2     1  UNL1        0.2418
     18 O          -5.1184  -19.2878   22.5366 O.2     1  UNL1       -0.2734
     19 N          -3.0941  -17.9459   21.6139 N.am    1  UNL1       -0.2784
     20 C          -2.1614  -16.7747   21.7057 C.3     1  UNL1        0.0934
     21 C          -1.0697  -16.6040   20.6913 C.3     1  UNL1        0.0216
     22 C          -0.9107  -17.6045   19.5852 C.3     1  UNL1        0.0035
     23 C          -1.8433  -18.7757   19.4934 C.3     1  UNL1        0.0216
     24 C          -2.9350  -18.9464   20.5078 C.3     1  UNL1        0.0934
@<TRIPOS>BOND
     1    11    12    1
     2    12    10    1
     3    10     9    1
     4     9     8    1
     5     8     2    1
     6     2     3   ar
     7     3     4   ar
     8     4     5   ar
     9     5     6   ar
    10     6     1    1
    11     1    13    1
    12    13    14    1
    13    14    16    1
    14    16    17    1
    15    17    18    2
    16    17    19   am
    17    19    20    1
    18    20    21    1
    19    21    22    1
    20    22    23    1
    21    23    24    1
    22     6     7   ar
    23     7     2   ar
    24    24    19    1
    25    14    15    1
@<TRIPOS>MOLECULE
*****
 24 25 0 0 0
SMALL
GASTEIGER

@<TRIPOS>ATOM
      1 C          -4.6501  -20.4224   20.3443 C.3     1  UNL1        0.0435
      2 C          -3.8040  -17.5645   22.9646 C.ar    1  UNL1        0.1382
      3 C          -2.6570  -16.8824   22.2797 C.ar    1  UNL1        0.0369
      4 C          -2.1743  -17.3804   20.9496 C.ar    1  UNL1        0.0028
      5 C          -2.8386  -18.5604   20.3045 C.ar    1  UNL1       -0.0040
      6 C          -3.9857  -19.2424   20.9894 C.ar    1  UNL1       -0.0178
      7 C          -4.4683  -18.7444   22.3195 C.ar    1  UNL1        0.0327
      8 O          -4.2866  -17.0665   24.2947 O.3     1  UNL1       -0.4755
      9 C          -5.0141  -15.7580   24.3866 C.3     1  UNL1        0.2054
     10 C          -6.3606  -15.6931   25.0444 C.3     1  UNL1        0.0473
     11 C          -7.7373  -15.6576   27.2476 C.3     1  UNL1        0.0001
     12 C          -6.4670  -15.3668   26.5047 C.3     1  UNL1        0.0038
     13 C          -6.1469  -20.5063   20.2954 C.3     1  UNL1        0.0737
     14 N          -6.9634  -19.2577   20.1393 N.3     1  UNL1       -0.2895
     15 H          -6.8449  -18.9470   19.1751 H       1  UNL1        0.1237
     16 C          -8.4391  -19.2883   20.4062 C.3     1  UNL1        0.1552
     17 C          -8.9452  -19.3364   21.8174 C.2     1  UNL1        0.2418
     18 O          -8.0818  -19.9038   22.9049 O.2     1  UNL1       -0.2734
     19 N         -10.3147  -18.8170   22.1412 N.am    1  UNL1       -0.2784
     20 C         -11.1780  -18.2495   21.0537 C.3     1  UNL1        0.0934
     21 C         -12.5475  -17.7302   21.3774 C.3     1  UNL1        0.0216
     22 C         -13.0536  -17.7782   22.7886 C.3     1  UNL1        0.0035
     23 C         -12.1902  -18.3457   23.8761 C.3     1  UNL1        0.0216
     24 C         -10.8208  -18.8650   23.5524 C.3     1  UNL1        0.0934
@<TRIPOS>BOND
     1    11    12    1
     2    12    10    1
     3    10     9    1
     4     9     8    1
     5     8     2    1
     6     2     3   ar
     7     3     4   ar
     8     4     5   ar
     9     5     6   ar
    10     6     1    1
    11     1    13    1
    12    13    14    1
    13    14    16    1
    14    16    17    1
    15    17    18    2
    16    17    19   am
    17    19    20    1
    18    20    21    1
    19    21    22    1
    20    22    23    1
    21    23    24    1
    22     6     7   ar
    23     7     2   ar
    24    24    19    1
    25    14    15    1
@<TRIPOS>MOLECULE
*****
 24 25 0 0 0
SMALL
GASTEIGER

@<TRIPOS>ATOM
      1 C          -5.9615  -19.8451   22.2308 C.3     1  UNL1        0.0435
      2 C          -9.8764  -19.4304   21.7292 C.ar    1  UNL1        0.1382
      3 C          -9.9723  -19.4334   20.2323 C.ar    1  UNL1        0.0369
      4 C          -8.7313  -19.5737   19.4016 C.ar    1  UNL1        0.0028
      5 C          -7.3944  -19.7109   20.0677 C.ar    1  UNL1       -0.0040
      6 C          -7.2985  -19.7078   21.5646 C.ar    1  UNL1       -0.0178
      7 C          -8.5395  -19.5676   22.3954 C.ar    1  UNL1        0.0327
      8 O         -11.1175  -19.2901   22.5600 O.3     1  UNL1       -0.4755
      9 C         -11.3020  -18.0861   23.4353 C.3     1  UNL1        0.2054
     10 C         -11.2688  -16.7112   22.8364 C.3     1  UNL1        0.0473
     11 C         -11.8203  -16.1857   20.3525 C.3     1  UNL1        0.0001
     12 C         -12.2618  -16.3298   21.7787 C.3     1  UNL1        0.0038
     13 C          -4.9016  -18.8078   22.0060 C.3     1  UNL1        0.0737
     14 N          -4.3602  -18.0252   23.1656 N.3     1  UNL1       -0.2895
     15 H          -3.3468  -17.9958   23.0534 H       1  UNL1        0.1237
     16 C          -4.8117  -16.6131   23.3936 C.3     1  UNL1        0.1552
     17 C          -6.2745  -16.3037   23.5137 C.2     1  UNL1        0.2418
     18 O          -7.1567  -16.3678   22.3022 O.2     1  UNL1       -0.2734
     19 N          -6.8553  -15.9301   24.8454 N.am    1  UNL1       -0.2784
     20 C          -5.9731  -15.8660   26.0569 C.3     1  UNL1        0.0934
     21 C          -6.5538  -15.4924   27.3885 C.3     1  UNL1        0.0216
     22 C          -8.0166  -15.1830   27.5086 C.3     1  UNL1        0.0035
     23 C          -8.8987  -15.2471   26.2971 C.3     1  UNL1        0.0216
     24 C          -8.3180  -15.6207   24.9655 C.3     1  UNL1        0.0934
@<TRIPOS>BOND
     1    11    12    1
     2    12    10    1
     3    10     9    1
     4     9     8    1
     5     8     2    1
     6     2     3   ar
     7     3     4   ar
     8     4     5   ar
     9     5     6   ar
    10     6     1    1
    11     1    13    1
    12    13    14    1
    13    14    16    1
    14    16    17    1
    15    17    18    2
    16    17    19   am
    17    19    20    1
    18    20    21    1
    19    21    22    1
    20    22    23    1
    21    23    24    1
    22     6     7   ar
    23     7     2   ar
    24    24    19    1
    25    14    15    1
@<TRIPOS>MOLECULE
*****
 24 25 0 0 0
SMALL
GASTEIGER

@<TRIPOS>ATOM
      1 C          -9.3845  -16.8687   24.5192 C.3     1  UNL1        0.0435
      2 C          -5.6112  -15.6750   24.2241 C.ar    1  UNL1        0.1382
      3 C          -5.3313  -15.2672   25.6402 C.ar    1  UNL1        0.0369
      4 C          -6.4025  -15.3932   26.6826 C.ar    1  UNL1        0.0028
      5 C          -7.7535  -15.9271   26.3090 C.ar    1  UNL1       -0.0040
      6 C          -8.0334  -16.3349   24.8929 C.ar    1  UNL1       -0.0178
      7 C          -6.9622  -16.2088   23.8505 C.ar    1  UNL1        0.0327
      8 O          -4.5400  -15.5490   23.1817 O.3     1  UNL1       -0.4755
      9 C          -3.4903  -16.6126   23.0525 C.3     1  UNL1        0.2054
     10 C          -3.8454  -18.0500   23.2929 C.3     1  UNL1        0.0473
     11 C          -5.7803  -19.3348   22.1287 C.3     1  UNL1        0.0001
     12 C          -4.3456  -18.8983   22.1614 C.3     1  UNL1        0.0038
     13 C          -9.7343  -18.2972   24.8142 C.3     1  UNL1        0.0737
     14 N         -11.1002  -18.6441   25.3284 N.3     1  UNL1       -0.2895
     15 H         -11.3564  -17.9176   25.9970 H       1  UNL1        0.1237
     16 C         -12.2492  -18.7785   24.3736 C.3     1  UNL1        0.1552
     17 C         -12.3248  -17.8969   23.1623 C.2     1  UNL1        0.2418
     18 O         -13.0553  -16.5886   23.2313 O.2     1  UNL1       -0.2734
     19 N         -11.6699  -18.3236   21.8820 N.am    1  UNL1       -0.2784
     20 C         -10.9394  -19.6319   21.8130 C.3     1  UNL1        0.0934
     21 C         -10.2845  -20.0586   20.5328 C.3     1  UNL1        0.0216
     22 C         -10.3601  -19.1771   19.3216 C.3     1  UNL1        0.0035
     23 C         -11.0907  -17.8688   19.3906 C.3     1  UNL1        0.0216
     24 C         -11.7455  -17.4421   20.6708 C.3     1  UNL1        0.0934
@<TRIPOS>BOND
     1    11    12    1
     2    12    10    1
     3    10     9    1
     4     9     8    1
     5     8     2    1
     6     2     3   ar
     7     3     4   ar
     8     4     5   ar
     9     5     6   ar
    10     6     1    1
    11     1    13    1
    12    13    14    1
    13    14    16    1
    14    16    17    1
    15    17    18    2
    16    17    19   am
    17    19    20    1
    18    20    21    1
    19    21    22    1
    20    22    23    1
    21    23    24    1
    22     6     7   ar
    23     7     2   ar
    24    24    19    1
    25    14    15    1
