@<TRIPOS>MOLECULE
*****
 38 41 0 0 0
SMALL
GASTEIGER

@<TRIPOS>ATOM
      1 C          -6.2180  -19.1679   21.6938 C.ar    1  UNL1        0.0561
      2 C          -7.4184  -18.5600   22.3565 C.ar    1  UNL1        0.0196
      3 C          -7.2666  -17.3286   23.1995 C.ar    1  UNL1        0.0768
      4 N          -5.9143  -16.7052   23.3798 N.ar    1  UNL1       -0.2480
      5 C          -4.7137  -17.3131   22.7171 C.ar    1  UNL1        0.0812
      6 C          -3.3614  -16.6896   22.8974 C.ar    1  UNL1        0.0214
      7 C          -2.1610  -17.2975   22.2346 C.ar    1  UNL1        0.0312
      8 C          -2.3128  -18.5289   21.3916 C.ar    1  UNL1        0.1402
      9 F          -1.1122  -19.1368   20.7289 F       1  UNL1       -0.2042
     10 C          -3.6651  -19.1524   21.2113 C.ar    1  UNL1        0.0313
     11 C          -4.8656  -18.5444   21.8740 C.ar    1  UNL1        0.0243
     12 C          -8.7708  -19.1834   22.1762 C.ar    1  UNL1        0.0013
     13 C          -9.4924  -19.0444   20.8686 C.ar    1  UNL1        0.0000
     14 C         -10.8448  -19.6678   20.6882 C.ar    1  UNL1        0.0000
     15 C         -11.4755  -20.4302   21.8156 C.ar    1  UNL1        0.0000
     16 C         -10.7538  -20.5692   23.1232 C.ar    1  UNL1        0.0000
     17 C          -9.4015  -19.9458   23.3035 C.ar    1  UNL1        0.0000
     18 N          -7.0845  -20.3233   19.5341 N.am    1  UNL1       -0.3009
     19 C          -6.3698  -20.3993   20.8507 C.2     1  UNL1        0.2459
     20 O          -5.8070  -21.7065   21.3243 O.2     1  UNL1       -0.2701
     21 H          -7.4539  -19.4653   19.2232 H       1  UNL1        0.1497
     22 C          -8.5152  -21.8012   17.9470 C.3     1  UNL1        0.0230
     23 C          -7.2363  -21.5547   18.6910 C.3     1  UNL1        0.0898
     24 C          -8.4672  -16.7207   23.8623 C.3     1  UNL1        0.1109
     25 C          -8.8298  -17.1140   25.2636 C.3     1  UNL1        0.0278
     26 N          -9.3050  -15.7195   23.1237 N.pl3   1  UNL1       -0.3142
     27 H          -9.0188  -14.7788   23.0743 H       1  UNL1        0.1485
     28 C         -10.5790  -16.1515   22.4602 C.ar    1  UNL1        0.1429
     29 N         -11.5265  -17.0656   23.1792 N.ar    1  UNL1       -0.2084
     30 C         -12.8005  -17.4976   22.5158 C.ar    1  UNL1        0.2012
     31 N         -13.1272  -17.0157   21.1334 N.ar    1  UNL1       -0.2087
     32 C         -12.1798  -16.1017   20.4144 C.ar    1  UNL1        0.1396
     33 N         -12.5064  -15.6197   19.0320 N.pl3   1  UNL1       -0.3420
     34 C         -10.9057  -15.6696   21.0778 C.ar    1  UNL1        0.1308
     35 H         -13.3426  -15.9033   18.5966 H       1  UNL1        0.1437
     36 H         -11.8845  -15.0198   18.5601 H       1  UNL1        0.1437
     37 C          -9.9582  -14.7556   20.3589 C.1     1  UNL1        0.1061
     38 N          -9.0108  -13.8416   19.6399 N.1     1  UNL1       -0.1906
@<TRIPOS>BOND
     1    22    23    1
     2    23    18    1
     3    18    19   am
     4    19    20    2
     5    19     1    1
     6     1     2   ar
     7     2    12    1
     8    12    13   ar
     9    13    14   ar
    10    14    15   ar
    11    15    16   ar
    12    16    17   ar
    13     2     3   ar
    14     3    24    1
    15    24    25    1
    16    24    26    1
    17    26    28    1
    18    28    29   ar
    19    29    30   ar
    20    30    31   ar
    21    31    32   ar
    22    32    33    1
    23    32    34   ar
    24    34    37    1
    25    37    38    3
    26     3     4   ar
    27     4     5   ar
    28     5     6   ar
    29     6     7   ar
    30     7     8   ar
    31     8     9    1
    32     8    10   ar
    33    10    11   ar
    34    11     1   ar
    35    17    12   ar
    36    34    28   ar
    37    11     5   ar
    38    18    21    1
    39    26    27    1
    40    33    35    1
    41    33    36    1
@<TRIPOS>MOLECULE
*****
 38 41 0 0 0
SMALL
GASTEIGER

@<TRIPOS>ATOM
      1 C           4.4258   -1.5006   23.0708 C.ar    1  UNL1        0.0561
      2 C           4.2327   -1.8446   21.6236 C.ar    1  UNL1        0.0196
      3 C           4.8589   -3.0845   21.0574 C.ar    1  UNL1        0.0768
      4 N           5.6782   -3.9803   21.9384 N.ar    1  UNL1       -0.2480
      5 C           5.8713   -3.6363   23.3857 C.ar    1  UNL1        0.0812
      6 C           6.6907   -4.5322   24.2666 C.ar    1  UNL1        0.0214
      7 C           6.8838   -4.1881   25.7138 C.ar    1  UNL1        0.0312
      8 C           6.2575   -2.9483   26.2800 C.ar    1  UNL1        0.1402
      9 F           6.4507   -2.6043   27.7272 F       1  UNL1       -0.2042
     10 C           5.4382   -2.0524   25.3990 C.ar    1  UNL1        0.0313
     11 C           5.2451   -2.3965   23.9519 C.ar    1  UNL1        0.0243
     12 C           3.4133   -0.9488   20.7426 C.ar    1  UNL1        0.0013
     13 C           4.0767    0.1494   19.9655 C.ar    1  UNL1        0.0000
     14 C           3.2574    1.0453   19.0845 C.ar    1  UNL1        0.0000
     15 C           1.7748    0.8429   18.9806 C.ar    1  UNL1        0.0000
     16 C           1.1114   -0.2553   19.7577 C.ar    1  UNL1        0.0000
     17 C           1.9307   -1.1511   20.6387 C.ar    1  UNL1        0.0000
     18 N           2.4863   -0.3455   24.3570 N.am    1  UNL1       -0.3009
     19 C           3.7995   -0.2607   23.6370 C.2     1  UNL1        0.2459
     20 O           4.4865    1.0638   23.4833 O.2     1  UNL1       -0.2701
     21 H           2.0354   -1.2148   24.4579 H       1  UNL1        0.1497
     22 C           0.5358    1.3701   24.4037 C.3     1  UNL1        0.0230
     23 C           1.8601    0.8944   24.9232 C.3     1  UNL1        0.0898
     24 C           4.6658   -3.4285   19.6102 C.3     1  UNL1        0.1109
     25 C           3.3286   -3.9038   19.1243 C.3     1  UNL1        0.0278
     26 N           5.8098   -3.2972   18.6490 N.pl3   1  UNL1       -0.3142
     27 H           6.2201   -4.1027   18.2592 H       1  UNL1        0.1485
     28 C           6.3285   -1.9386   18.2816 C.ar    1  UNL1        0.1429
     29 N           5.6351   -1.1316   17.2242 N.ar    1  UNL1       -0.2084
     30 C           6.1538    0.2270   16.8569 C.ar    1  UNL1        0.2012
     31 N           7.3660    0.7788   17.5469 N.ar    1  UNL1       -0.2087
     32 C           8.0594   -0.0281   18.6043 C.ar    1  UNL1        0.1396
     33 N           9.2716    0.5237   19.2943 N.pl3   1  UNL1       -0.3420
     34 C           7.5407   -1.3868   18.9717 C.ar    1  UNL1        0.1308
     35 H           9.6121    1.4154   19.0532 H       1  UNL1        0.1437
     36 H           9.7268   -0.0059   19.9883 H       1  UNL1        0.1437
     37 C           8.2341   -2.1937   20.0291 C.1     1  UNL1        0.1061
     38 N           8.9276   -3.0005   21.0864 N.1     1  UNL1       -0.1906
@<TRIPOS>BOND
     1    22    23    1
     2    23    18    1
     3    18    19   am
     4    19    20    2
     5    19     1    1
     6     1     2   ar
     7     2    12    1
     8    12    13   ar
     9    13    14   ar
    10    14    15   ar
    11    15    16   ar
    12    16    17   ar
    13     2     3   ar
    14     3    24    1
    15    24    25    1
    16    24    26    1
    17    26    28    1
    18    28    29   ar
    19    29    30   ar
    20    30    31   ar
    21    31    32   ar
    22    32    33    1
    23    32    34   ar
    24    34    37    1
    25    37    38    3
    26     3     4   ar
    27     4     5   ar
    28     5     6   ar
    29     6     7   ar
    30     7     8   ar
    31     8     9    1
    32     8    10   ar
    33    10    11   ar
    34    11     1   ar
    35    17    12   ar
    36    34    28   ar
    37    11     5   ar
    38    18    21    1
    39    26    27    1
    40    33    35    1
    41    33    36    1
@<TRIPOS>MOLECULE
*****
 38 41 0 0 0
SMALL
GASTEIGER

@<TRIPOS>ATOM
      1 C           2.3876   -0.1672   22.3889 C.ar    1  UNL1        0.0561
      2 C           2.4678    0.2362   23.8314 C.ar    1  UNL1        0.0196
      3 C           3.3449   -0.5300   24.7768 C.ar    1  UNL1        0.0768
      4 N           4.1418   -1.6995   24.2797 N.ar    1  UNL1       -0.2480
      5 C           4.0616   -2.1030   22.8372 C.ar    1  UNL1        0.0812
      6 C           4.8585   -3.2725   22.3401 C.ar    1  UNL1        0.0214
      7 C           4.7783   -3.6759   20.8976 C.ar    1  UNL1        0.0312
      8 C           3.9013   -2.9097   19.9522 C.ar    1  UNL1        0.1402
      9 F           3.8211   -3.3132   18.5097 F       1  UNL1       -0.2042
     10 C           3.1044   -1.7402   20.4493 C.ar    1  UNL1        0.0313
     11 C           3.1846   -1.3368   21.8918 C.ar    1  UNL1        0.0243
     12 C           1.6709    1.4057   24.3285 C.ar    1  UNL1        0.0013
     13 C           0.3051    1.1899   24.9100 C.ar    1  UNL1        0.0000
     14 C          -0.4918    2.3594   25.4071 C.ar    1  UNL1        0.0000
     15 C           0.0771    3.7447   25.3228 C.ar    1  UNL1        0.0000
     16 C           1.4428    3.9606   24.7413 C.ar    1  UNL1        0.0000
     17 C           2.2397    2.7911   24.2442 C.ar    1  UNL1        0.0000
     18 N           2.0642    1.7726   20.6911 N.am    1  UNL1       -0.3009
     19 C           1.5106    0.5989   21.4435 C.2     1  UNL1        0.2459
     20 O           0.0800    0.1914   21.2504 O.2     1  UNL1       -0.2701
     21 H           3.0031    2.0401   20.8178 H       1  UNL1        0.1497
     22 C           0.8719    1.9755   18.3917 C.3     1  UNL1        0.0230
     23 C           1.1871    2.5387   19.7457 C.3     1  UNL1        0.0898
     24 C           3.4250   -0.1265   26.2193 C.3     1  UNL1        0.1109
     25 C           4.2460    1.0629   26.6209 C.3     1  UNL1        0.0278
     26 N           2.6843   -0.9125   27.2602 N.pl3   1  UNL1       -0.3142
     27 H           2.5792   -1.8862   27.1596 H       1  UNL1        0.1485
     28 C           2.1035   -0.2150   28.4544 C.ar    1  UNL1        0.1429
     29 N           0.7656    0.4559   28.3540 N.ar    1  UNL1       -0.2084
     30 C           0.1849    1.1535   29.5482 C.ar    1  UNL1        0.2012
     31 N           0.9420    1.1802   30.8428 N.ar    1  UNL1       -0.2087
     32 C           2.2799    0.5094   30.9433 C.ar    1  UNL1        0.1396
     33 N           3.0370    0.5361   32.2379 N.pl3   1  UNL1       -0.3420
     34 C           2.8606   -0.1882   29.7490 C.ar    1  UNL1        0.1308
     35 H           2.6558    0.9940   33.0217 H       1  UNL1        0.1437
     36 H           3.9151    0.0958   32.3038 H       1  UNL1        0.1437
     37 C           4.1985   -0.8590   29.8495 C.1     1  UNL1        0.1061
     38 N           5.5363   -1.5298   29.9499 N.1     1  UNL1       -0.1906
@<TRIPOS>BOND
     1    22    23    1
     2    23    18    1
     3    18    19   am
     4    19    20    2
     5    19     1    1
     6     1     2   ar
     7     2    12    1
     8    12    13   ar
     9    13    14   ar
    10    14    15   ar
    11    15    16   ar
    12    16    17   ar
    13     2     3   ar
    14     3    24    1
    15    24    25    1
    16    24    26    1
    17    26    28    1
    18    28    29   ar
    19    29    30   ar
    20    30    31   ar
    21    31    32   ar
    22    32    33    1
    23    32    34   ar
    24    34    37    1
    25    37    38    3
    26     3     4   ar
    27     4     5   ar
    28     5     6   ar
    29     6     7   ar
    30     7     8   ar
    31     8     9    1
    32     8    10   ar
    33    10    11   ar
    34    11     1   ar
    35    17    12   ar
    36    34    28   ar
    37    11     5   ar
    38    18    21    1
    39    26    27    1
    40    33    35    1
    41    33    36    1
@<TRIPOS>MOLECULE
*****
 38 41 0 0 0
SMALL
GASTEIGER

@<TRIPOS>ATOM
      1 C          -5.7956  -17.6255   22.5257 C.ar    1  UNL1        0.0561
      2 C          -7.1771  -17.9468   22.0379 C.ar    1  UNL1        0.0196
      3 C          -7.3859  -19.0638   21.0587 C.ar    1  UNL1        0.0768
      4 N          -6.2131  -19.8595   20.5674 N.ar    1  UNL1       -0.2480
      5 C          -4.8314  -19.5382   21.0553 C.ar    1  UNL1        0.0812
      6 C          -3.6586  -20.3339   20.5640 C.ar    1  UNL1        0.0214
      7 C          -2.2771  -20.0125   21.0519 C.ar    1  UNL1        0.0312
      8 C          -2.0684  -18.8955   22.0311 C.ar    1  UNL1        0.1402
      9 F          -0.6867  -18.5742   22.5189 F       1  UNL1       -0.2042
     10 C          -3.2412  -18.0999   22.5223 C.ar    1  UNL1        0.0313
     11 C          -4.6227  -18.4212   22.0345 C.ar    1  UNL1        0.0243
     12 C          -8.3500  -17.1511   22.5291 C.ar    1  UNL1        0.0013
     13 C          -9.1577  -16.3329   21.5657 C.ar    1  UNL1        0.0000
     14 C         -10.3305  -15.5373   22.0569 C.ar    1  UNL1        0.0000
     15 C         -10.6957  -15.5598   23.5115 C.ar    1  UNL1        0.0000
     16 C          -9.8880  -16.3779   24.4750 C.ar    1  UNL1        0.0000
     17 C          -8.7152  -17.1736   23.9838 C.ar    1  UNL1        0.0000
     18 N          -5.3811  -16.8144   24.9589 N.am    1  UNL1       -0.3009
     19 C          -5.5868  -16.5085   23.5049 C.2     1  UNL1        0.2459
     20 O          -5.5839  -15.0857   23.0301 O.2     1  UNL1       -0.2701
     21 H          -5.3830  -17.7483   25.2706 H       1  UNL1        0.1497
     22 C          -6.3168  -15.2121   26.7774 C.3     1  UNL1        0.0230
     23 C          -5.1723  -15.6974   25.9381 C.3     1  UNL1        0.0898
     24 C          -8.7675  -19.3851   20.5708 C.3     1  UNL1        0.1109
     25 C          -9.1658  -19.0409   19.1662 C.3     1  UNL1        0.0278
     26 N          -9.7507  -20.0505   21.4875 N.pl3   1  UNL1       -0.3142
     27 H          -9.5982  -20.9768   21.7842 H       1  UNL1        0.1485
     28 C         -10.9663  -19.3047   21.9522 C.ar    1  UNL1        0.1429
     29 N         -11.7638  -18.4891   20.9780 N.ar    1  UNL1       -0.2084
     30 C         -12.9794  -17.7432   21.4426 C.ar    1  UNL1        0.2012
     31 N         -13.3977  -17.8130   22.8815 N.ar    1  UNL1       -0.2087
     32 C         -12.6003  -18.6285   23.8556 C.ar    1  UNL1        0.1396
     33 N         -13.0186  -18.6982   25.2944 N.pl3   1  UNL1       -0.3420
     34 C         -11.3846  -19.3744   23.3910 C.ar    1  UNL1        0.1308
     35 H         -13.8165  -18.2087   25.5994 H       1  UNL1        0.1437
     36 H         -12.4952  -19.2335   25.9338 H       1  UNL1        0.1437
     37 C         -10.5873  -20.1900   24.3652 C.1     1  UNL1        0.1061
     38 N          -9.7899  -21.0055   25.3393 N.1     1  UNL1       -0.1906
@<TRIPOS>BOND
     1    22    23    1
     2    23    18    1
     3    18    19   am
     4    19    20    2
     5    19     1    1
     6     1     2   ar
     7     2    12    1
     8    12    13   ar
     9    13    14   ar
    10    14    15   ar
    11    15    16   ar
    12    16    17   ar
    13     2     3   ar
    14     3    24    1
    15    24    25    1
    16    24    26    1
    17    26    28    1
    18    28    29   ar
    19    29    30   ar
    20    30    31   ar
    21    31    32   ar
    22    32    33    1
    23    32    34   ar
    24    34    37    1
    25    37    38    3
    26     3     4   ar
    27     4     5   ar
    28     5     6   ar
    29     6     7   ar
    30     7     8   ar
    31     8     9    1
    32     8    10   ar
    33    10    11   ar
    34    11     1   ar
    35    17    12   ar
    36    34    28   ar
    37    11     5   ar
    38    18    21    1
    39    26    27    1
    40    33    35    1
    41    33    36    1
@<TRIPOS>MOLECULE
*****
 38 41 0 0 0
SMALL
GASTEIGER

@<TRIPOS>ATOM
      1 C           4.4582   -1.4517   23.2509 C.ar    1  UNL1        0.0561
      2 C           4.2789   -1.7857   21.7996 C.ar    1  UNL1        0.0196
      3 C           4.9024   -3.0268   21.2329 C.ar    1  UNL1        0.0768
      4 N           5.7052   -3.9338   22.1176 N.ar    1  UNL1       -0.2480
      5 C           5.8846   -3.5999   23.5690 C.ar    1  UNL1        0.0812
      6 C           6.6874   -4.5070   24.4536 C.ar    1  UNL1        0.0214
      7 C           6.8667   -4.1730   25.9049 C.ar    1  UNL1        0.0312
      8 C           6.2432   -2.9320   26.4715 C.ar    1  UNL1        0.1402
      9 F           6.4226   -2.5980   27.9229 F       1  UNL1       -0.2042
     10 C           5.4404   -2.0249   25.5869 C.ar    1  UNL1        0.0313
     11 C           5.2611   -2.3588   24.1356 C.ar    1  UNL1        0.0243
     12 C           3.4761   -0.8786   20.9148 C.ar    1  UNL1        0.0013
     13 C           2.0220   -1.1587   20.6756 C.ar    1  UNL1        0.0000
     14 C           1.2192   -0.2517   19.7909 C.ar    1  UNL1        0.0000
     15 C           1.8704    0.9354   19.1455 C.ar    1  UNL1        0.0000
     16 C           3.3245    1.2155   19.3847 C.ar    1  UNL1        0.0000
     17 C           4.1273    0.3085   20.2694 C.ar    1  UNL1        0.0000
     18 N           2.4480   -0.2610   24.3871 N.am    1  UNL1       -0.3009
     19 C           3.8347   -0.2107   23.8175 C.2     1  UNL1        0.2459
     20 O           4.5979    1.0806   23.8145 O.2     1  UNL1       -0.2701
     21 H           1.9471   -1.1085   24.3891 H       1  UNL1        0.1497
     22 C           0.3369    1.1643   24.8988 C.3     1  UNL1        0.0230
     23 C           1.8245    0.9800   24.9538 C.3     1  UNL1        0.0898
     24 C           4.7231   -3.3607   19.7816 C.3     1  UNL1        0.1109
     25 C           3.3762   -3.7761   19.2685 C.3     1  UNL1        0.0278
     26 N           5.8906   -3.2793   18.8434 N.pl3   1  UNL1       -0.3142
     27 H           6.1097   -4.0434   18.2627 H       1  UNL1        0.1485
     28 C           6.7243   -2.0335   18.7901 C.ar    1  UNL1        0.1429
     29 N           7.9905   -1.9436   19.5894 N.ar    1  UNL1       -0.2084
     30 C           8.8242   -0.6978   19.5361 C.ar    1  UNL1        0.2012
     31 N           8.3919    0.4581   18.6835 N.ar    1  UNL1       -0.2087
     32 C           7.1258    0.3682   17.8842 C.ar    1  UNL1        0.1396
     33 N           6.6935    1.5241   17.0315 N.pl3   1  UNL1       -0.3420
     34 C           6.2920   -0.8776   17.9374 C.ar    1  UNL1        0.1308
     35 H           7.2407    2.3418   16.9965 H       1  UNL1        0.1437
     36 H           5.8625    1.4651   16.5069 H       1  UNL1        0.1437
     37 C           5.0259   -0.9675   17.1381 C.1     1  UNL1        0.1061
     38 N           3.7599   -1.0573   16.3388 N.1     1  UNL1       -0.1906
@<TRIPOS>BOND
     1    22    23    1
     2    23    18    1
     3    18    19   am
     4    19    20    2
     5    19     1    1
     6     1     2   ar
     7     2    12    1
     8    12    13   ar
     9    13    14   ar
    10    14    15   ar
    11    15    16   ar
    12    16    17   ar
    13     2     3   ar
    14     3    24    1
    15    24    25    1
    16    24    26    1
    17    26    28    1
    18    28    29   ar
    19    29    30   ar
    20    30    31   ar
    21    31    32   ar
    22    32    33    1
    23    32    34   ar
    24    34    37    1
    25    37    38    3
    26     3     4   ar
    27     4     5   ar
    28     5     6   ar
    29     6     7   ar
    30     7     8   ar
    31     8     9    1
    32     8    10   ar
    33    10    11   ar
    34    11     1   ar
    35    17    12   ar
    36    34    28   ar
    37    11     5   ar
    38    18    21    1
    39    26    27    1
    40    33    35    1
    41    33    36    1
@<TRIPOS>MOLECULE
*****
 38 41 0 0 0
SMALL
GASTEIGER

@<TRIPOS>ATOM
      1 C           4.1924   -1.1966   23.9447 C.ar    1  UNL1        0.0561
      2 C           5.1014   -1.8851   24.9192 C.ar    1  UNL1        0.0196
      3 C           5.8011   -3.1522   24.5258 C.ar    1  UNL1        0.0768
      4 N           5.5918   -3.7309   23.1578 N.ar    1  UNL1       -0.2480
      5 C           4.6827   -3.0425   22.1833 C.ar    1  UNL1        0.0812
      6 C           4.4734   -3.6212   20.8153 C.ar    1  UNL1        0.0214
      7 C           3.5644   -2.9327   19.8408 C.ar    1  UNL1        0.0312
      8 C           2.8648   -1.6655   20.2342 C.ar    1  UNL1        0.1402
      9 F           1.9557   -0.9771   19.2596 F       1  UNL1       -0.2042
     10 C           3.0741   -1.0868   21.6022 C.ar    1  UNL1        0.0313
     11 C           3.9831   -1.7753   22.5767 C.ar    1  UNL1        0.0243
     12 C           5.3108   -1.3064   26.2872 C.ar    1  UNL1        0.0013
     13 C           6.4489   -0.3614   26.5356 C.ar    1  UNL1        0.0000
     14 C           6.6583    0.2173   27.9035 C.ar    1  UNL1        0.0000
     15 C           5.7296   -0.1490   29.0230 C.ar    1  UNL1        0.0000
     16 C           4.5915   -1.0940   28.7746 C.ar    1  UNL1        0.0000
     17 C           4.3821   -1.6727   27.4067 C.ar    1  UNL1        0.0000
     18 N           2.0912    0.0193   24.8702 N.am    1  UNL1       -0.3009
     19 C           3.4928    0.0705   24.3381 C.2     1  UNL1        0.2459
     20 O           4.1946    1.3889   24.1995 O.2     1  UNL1       -0.2701
     21 H           1.6305   -0.8460   24.9611 H       1  UNL1        0.1497
     22 C          -0.0759    1.2676   25.5740 C.3     1  UNL1        0.0230
     23 C           1.3915    1.2864   25.2636 C.3     1  UNL1        0.0898
     24 C           6.7101   -3.8407   25.5004 C.3     1  UNL1        0.1109
     25 C           8.1827   -3.5560   25.4823 C.3     1  UNL1        0.0278
     26 N           6.1465   -4.8138   26.4930 N.pl3   1  UNL1       -0.3142
     27 H           5.2160   -4.7199   26.8006 H       1  UNL1        0.1485
     28 C           7.0006   -5.9301   27.0169 C.ar    1  UNL1        0.1429
     29 N           7.2456   -7.1463   26.1737 N.ar    1  UNL1       -0.2084
     30 C           8.0997   -8.2625   26.6976 C.ar    1  UNL1        0.2012
     31 N           8.7088   -8.1626   28.0647 N.ar    1  UNL1       -0.2087
     32 C           8.4639   -6.9465   28.9079 C.ar    1  UNL1        0.1396
     33 N           9.0730   -6.8466   30.2750 N.pl3   1  UNL1       -0.3420
     34 C           7.6097   -5.8302   28.3840 C.ar    1  UNL1        0.1308
     35 H           9.6336   -7.5793   30.6188 H       1  UNL1        0.1437
     36 H           8.9122   -6.0484   30.8284 H       1  UNL1        0.1437
     37 C           7.3648   -4.6141   29.2272 C.1     1  UNL1        0.1061
     38 N           7.1198   -3.3980   30.0704 N.1     1  UNL1       -0.1906
@<TRIPOS>BOND
     1    22    23    1
     2    23    18    1
     3    18    19   am
     4    19    20    2
     5    19     1    1
     6     1     2   ar
     7     2    12    1
     8    12    13   ar
     9    13    14   ar
    10    14    15   ar
    11    15    16   ar
    12    16    17   ar
    13     2     3   ar
    14     3    24    1
    15    24    25    1
    16    24    26    1
    17    26    28    1
    18    28    29   ar
    19    29    30   ar
    20    30    31   ar
    21    31    32   ar
    22    32    33    1
    23    32    34   ar
    24    34    37    1
    25    37    38    3
    26     3     4   ar
    27     4     5   ar
    28     5     6   ar
    29     6     7   ar
    30     7     8   ar
    31     8     9    1
    32     8    10   ar
    33    10    11   ar
    34    11     1   ar
    35    17    12   ar
    36    34    28   ar
    37    11     5   ar
    38    18    21    1
    39    26    27    1
    40    33    35    1
    41    33    36    1
@<TRIPOS>MOLECULE
*****
 38 41 0 0 0
SMALL
GASTEIGER

@<TRIPOS>ATOM
      1 C           2.3916   -0.0767   21.8340 C.ar    1  UNL1        0.0561
      2 C           2.3138    0.5515   23.1939 C.ar    1  UNL1        0.0196
      3 C           2.9897   -0.1031   24.3621 C.ar    1  UNL1        0.0768
      4 N           3.7432   -1.3858   24.1705 N.ar    1  UNL1       -0.2480
      5 C           3.8210   -2.0140   22.8106 C.ar    1  UNL1        0.0812
      6 C           4.5745   -3.2967   22.6190 C.ar    1  UNL1        0.0214
      7 C           4.6523   -3.9249   21.2591 C.ar    1  UNL1        0.0312
      8 C           3.9765   -3.2704   20.0909 C.ar    1  UNL1        0.1402
      9 F           4.0542   -3.8986   18.7309 F       1  UNL1       -0.2042
     10 C           3.2229   -1.9877   20.2825 C.ar    1  UNL1        0.0313
     11 C           3.1452   -1.3595   21.6423 C.ar    1  UNL1        0.0243
     12 C           1.5602    1.8343   23.3855 C.ar    1  UNL1        0.0013
     13 C           2.2660    3.1489   23.2316 C.ar    1  UNL1        0.0000
     14 C           1.5125    4.4316   23.4232 C.ar    1  UNL1        0.0000
     15 C           0.0532    4.3997   23.7688 C.ar    1  UNL1        0.0000
     16 C          -0.6525    3.0851   23.9228 C.ar    1  UNL1        0.0000
     17 C           0.1010    1.8024   23.7311 C.ar    1  UNL1        0.0000
     18 N           2.4824    1.5231   19.7889 N.am    1  UNL1       -0.3009
     19 C           1.7157    0.5778   20.6657 C.2     1  UNL1        0.2459
     20 O           0.2734    0.2871   20.3743 O.2     1  UNL1       -0.2701
     21 H           3.4291    1.7140   19.9802 H       1  UNL1        0.1497
     22 C           0.9829    3.4142   18.8269 C.3     1  UNL1        0.0230
     23 C           1.8066    2.1777   18.6206 C.3     1  UNL1        0.0898
     24 C           2.9119    0.5252   25.7221 C.3     1  UNL1        0.1109
     25 C           4.0569    1.3472   26.2350 C.3     1  UNL1        0.0278
     26 N           1.6891    0.3314   26.5690 N.pl3   1  UNL1       -0.3142
     27 H           0.8109    0.2022   26.1432 H       1  UNL1        0.1485
     28 C           1.8045    0.3344   28.0645 C.ar    1  UNL1        0.1429
     29 N           2.5372   -0.7730   28.7624 N.ar    1  UNL1       -0.2084
     30 C           2.6525   -0.7700   30.2580 C.ar    1  UNL1        0.2012
     31 N           2.0352    0.3403   31.0556 N.ar    1  UNL1       -0.2087
     32 C           1.3026    1.4476   30.3577 C.ar    1  UNL1        0.1396
     33 N           0.6853    2.5579   31.1554 N.pl3   1  UNL1       -0.3420
     34 C           1.1872    1.4446   28.8621 C.ar    1  UNL1        0.1308
     35 H           0.7610    2.5598   32.1369 H       1  UNL1        0.1437
     36 H           0.2045    3.2846   30.6973 H       1  UNL1        0.1437
     37 C           0.4546    2.5519   28.1642 C.1     1  UNL1        0.1061
     38 N          -0.2781    3.6592   27.4663 N.1     1  UNL1       -0.1906
@<TRIPOS>BOND
     1    22    23    1
     2    23    18    1
     3    18    19   am
     4    19    20    2
     5    19     1    1
     6     1     2   ar
     7     2    12    1
     8    12    13   ar
     9    13    14   ar
    10    14    15   ar
    11    15    16   ar
    12    16    17   ar
    13     2     3   ar
    14     3    24    1
    15    24    25    1
    16    24    26    1
    17    26    28    1
    18    28    29   ar
    19    29    30   ar
    20    30    31   ar
    21    31    32   ar
    22    32    33    1
    23    32    34   ar
    24    34    37    1
    25    37    38    3
    26     3     4   ar
    27     4     5   ar
    28     5     6   ar
    29     6     7   ar
    30     7     8   ar
    31     8     9    1
    32     8    10   ar
    33    10    11   ar
    34    11     1   ar
    35    17    12   ar
    36    34    28   ar
    37    11     5   ar
    38    18    21    1
    39    26    27    1
    40    33    35    1
    41    33    36    1
@<TRIPOS>MOLECULE
*****
 38 41 0 0 0
SMALL
GASTEIGER

@<TRIPOS>ATOM
      1 C           1.1199    1.6539   23.5764 C.ar    1  UNL1        0.0561
      2 C           0.4035    2.2123   22.3828 C.ar    1  UNL1        0.0196
      3 C          -0.8820    2.9639   22.5635 C.ar    1  UNL1        0.0768
      4 N          -1.4510    3.1572   23.9378 N.ar    1  UNL1       -0.2480
      5 C          -0.7345    2.5987   25.1315 C.ar    1  UNL1        0.0812
      6 C          -1.3035    2.7920   26.5059 C.ar    1  UNL1        0.0214
      7 C          -0.5870    2.2335   27.6995 C.ar    1  UNL1        0.0312
      8 C           0.6984    1.4819   27.5188 C.ar    1  UNL1        0.1402
      9 F           1.4149    0.9235   28.7125 F       1  UNL1       -0.2042
     10 C           1.2674    1.2887   26.1445 C.ar    1  UNL1        0.0313
     11 C           0.5510    1.8471   24.9508 C.ar    1  UNL1        0.0243
     12 C           0.9725    2.0191   21.0083 C.ar    1  UNL1        0.0013
     13 C           0.5043    0.8765   20.1566 C.ar    1  UNL1        0.0000
     14 C           1.0732    0.6833   18.7822 C.ar    1  UNL1        0.0000
     15 C           2.1103    1.6326   18.2596 C.ar    1  UNL1        0.0000
     16 C           2.5785    2.7751   19.1113 C.ar    1  UNL1        0.0000
     17 C           2.0096    2.9684   20.4857 C.ar    1  UNL1        0.0000
     18 N           2.3794   -0.5699   23.1089 N.am    1  UNL1       -0.3009
     19 C           2.4054    0.9022   23.3957 C.2     1  UNL1        0.2459
     20 O           3.7167    1.6227   23.5017 O.2     1  UNL1       -0.2701
     21 H           1.5187   -1.0428   23.0393 H       1  UNL1        0.1497
     22 C           4.3559   -1.9222   24.1163 C.3     1  UNL1        0.0230
     23 C           3.6649   -1.3216   22.9282 C.3     1  UNL1        0.0898
     24 C          -1.5984    3.5224   21.3697 C.3     1  UNL1        0.1109
     25 C          -1.0924    4.7692   20.7069 C.3     1  UNL1        0.0278
     26 N          -2.8208    2.8340   20.8389 N.pl3   1  UNL1       -0.3142
     27 H          -2.7279    2.0528   20.2469 H       1  UNL1        0.1485
     28 C          -4.1848    3.3357   21.2101 C.ar    1  UNL1        0.1429
     29 N          -4.5758    3.4469   22.6540 N.ar    1  UNL1       -0.2084
     30 C          -5.9397    3.9486   23.0252 C.ar    1  UNL1        0.2012
     31 N          -6.9128    4.3391   21.9526 N.ar    1  UNL1       -0.2087
     32 C          -6.5219    4.2280   20.5087 C.ar    1  UNL1        0.1396
     33 N          -7.4949    4.6185   19.4360 N.pl3   1  UNL1       -0.3420
     34 C          -5.1578    3.7262   20.1374 C.ar    1  UNL1        0.1308
     35 H          -8.3902    4.9478   19.6797 H       1  UNL1        0.1437
     36 H          -7.2383    4.5456   18.4883 H       1  UNL1        0.1437
     37 C          -4.7669    3.6151   18.6936 C.1     1  UNL1        0.1061
     38 N          -4.3760    3.5039   17.2497 N.1     1  UNL1       -0.1906
@<TRIPOS>BOND
     1    22    23    1
     2    23    18    1
     3    18    19   am
     4    19    20    2
     5    19     1    1
     6     1     2   ar
     7     2    12    1
     8    12    13   ar
     9    13    14   ar
    10    14    15   ar
    11    15    16   ar
    12    16    17   ar
    13     2     3   ar
    14     3    24    1
    15    24    25    1
    16    24    26    1
    17    26    28    1
    18    28    29   ar
    19    29    30   ar
    20    30    31   ar
    21    31    32   ar
    22    32    33    1
    23    32    34   ar
    24    34    37    1
    25    37    38    3
    26     3     4   ar
    27     4     5   ar
    28     5     6   ar
    29     6     7   ar
    30     7     8   ar
    31     8     9    1
    32     8    10   ar
    33    10    11   ar
    34    11     1   ar
    35    17    12   ar
    36    34    28   ar
    37    11     5   ar
    38    18    21    1
    39    26    27    1
    40    33    35    1
    41    33    36    1
@<TRIPOS>MOLECULE
*****
 38 41 0 0 0
SMALL
GASTEIGER

@<TRIPOS>ATOM
      1 C           4.2910   -1.6204   21.7796 C.ar    1  UNL1        0.0561
      2 C           3.4219   -0.5350   22.3420 C.ar    1  UNL1        0.0196
      3 C           3.4465   -0.2408   23.8126 C.ar    1  UNL1        0.0768
      4 N           4.3403   -1.0321   24.7209 N.ar    1  UNL1       -0.2480
      5 C           5.2096   -2.1175   24.1585 C.ar    1  UNL1        0.0812
      6 C           6.1034   -2.9088   25.0668 C.ar    1  UNL1        0.0214
      7 C           6.9726   -3.9942   24.5044 C.ar    1  UNL1        0.0312
      8 C           6.9480   -4.2884   23.0337 C.ar    1  UNL1        0.1402
      9 F           7.8172   -5.3738   22.4713 F       1  UNL1       -0.2042
     10 C           6.0541   -3.4971   22.1254 C.ar    1  UNL1        0.0313
     11 C           5.1849   -2.4117   22.6878 C.ar    1  UNL1        0.0243
     12 C           2.5280    0.2563   21.4337 C.ar    1  UNL1        0.0013
     13 C           2.9622    1.6057   20.9434 C.ar    1  UNL1        0.0000
     14 C           2.0684    2.3970   20.0351 C.ar    1  UNL1        0.0000
     15 C           0.7403    1.8388   19.6173 C.ar    1  UNL1        0.0000
     16 C           0.3061    0.4894   20.1076 C.ar    1  UNL1        0.0000
     17 C           1.1999   -0.3019   21.0158 C.ar    1  UNL1        0.0000
     18 N           5.0849   -1.0852   19.3643 N.am    1  UNL1       -0.3009
     19 C           4.2664   -1.9146   20.3089 C.2     1  UNL1        0.2459
     20 O           3.4233   -3.0381   19.7828 O.2     1  UNL1       -0.2701
     21 H           5.6383   -0.3478   19.7096 H       1  UNL1        0.1497
     22 C           3.9563   -0.8329   17.0379 C.3     1  UNL1        0.0230
     23 C           5.0603   -1.3794   17.8937 C.3     1  UNL1        0.0898
     24 C           2.5772    0.8447   24.3750 C.3     1  UNL1        0.1109
     25 C           3.1540    2.2026   24.6458 C.3     1  UNL1        0.0278
     26 N           1.1313    0.5722   24.6665 N.pl3   1  UNL1       -0.3142
     27 H           0.8505   -0.3207   24.9719 H       1  UNL1        0.1485
     28 C           0.1133    1.6600   24.4928 C.ar    1  UNL1        0.1429
     29 N          -0.0406    2.3378   23.1635 N.ar    1  UNL1       -0.2084
     30 C          -1.0586    3.4256   22.9898 C.ar    1  UNL1        0.2012
     31 N          -1.9228    3.8357   24.1453 N.ar    1  UNL1       -0.2087
     32 C          -1.7689    3.1579   25.4745 C.ar    1  UNL1        0.1396
     33 N          -2.6330    3.5679   26.6300 N.pl3   1  UNL1       -0.3420
     34 C          -0.7508    2.0700   25.6483 C.ar    1  UNL1        0.1308
     35 H          -3.3012    4.2819   26.5159 H       1  UNL1        0.1437
     36 H          -2.5320    3.1231   27.5024 H       1  UNL1        0.1437
     37 C          -0.5969    1.3922   26.9775 C.1     1  UNL1        0.1061
     38 N          -0.4430    0.7145   28.3067 N.1     1  UNL1       -0.1906
@<TRIPOS>BOND
     1    22    23    1
     2    23    18    1
     3    18    19   am
     4    19    20    2
     5    19     1    1
     6     1     2   ar
     7     2    12    1
     8    12    13   ar
     9    13    14   ar
    10    14    15   ar
    11    15    16   ar
    12    16    17   ar
    13     2     3   ar
    14     3    24    1
    15    24    25    1
    16    24    26    1
    17    26    28    1
    18    28    29   ar
    19    29    30   ar
    20    30    31   ar
    21    31    32   ar
    22    32    33    1
    23    32    34   ar
    24    34    37    1
    25    37    38    3
    26     3     4   ar
    27     4     5   ar
    28     5     6   ar
    29     6     7   ar
    30     7     8   ar
    31     8     9    1
    32     8    10   ar
    33    10    11   ar
    34    11     1   ar
    35    17    12   ar
    36    34    28   ar
    37    11     5   ar
    38    18    21    1
    39    26    27    1
    40    33    35    1
    41    33    36    1
