@<TRIPOS>MOLECULE
*****
 23 25 0 0 0
SMALL
GASTEIGER

@<TRIPOS>ATOM
      1 C          -8.4750  -17.4034   22.5972 C.2     1  UNL1        0.2495
      2 O          -7.4371  -16.3244   22.5049 O.2     1  UNL1       -0.2699
      3 N          -9.1718  -17.6644   23.8996 N.am    1  UNL1       -0.2763
      4 C          -7.8205  -19.1995   20.8377 C.ar    1  UNL1        0.0296
      5 C          -8.1618  -20.0174   19.6275 C.ar    1  UNL1        0.0063
      6 C          -9.4987  -19.8571   18.9666 C.ar    1  UNL1        0.0005
      7 C         -10.4945  -18.8790   19.5159 C.ar    1  UNL1        0.0002
      8 C         -10.1532  -18.0611   20.7260 C.ar    1  UNL1        0.0050
      9 C          -8.8163  -18.2213   21.3869 C.ar    1  UNL1        0.0592
     10 S          -6.4835  -19.3597   21.4986 S.3     1  UNL1       -0.1135
     11 C          -4.3419  -19.4175   20.0290 C.3     1  UNL1        0.0129
     12 C          -5.3975  -20.1366   20.8155 C.3     1  UNL1        0.0622
     13 C          -8.8306  -16.8465   25.1098 C.3     1  UNL1        0.0927
     14 C          -8.7579  -17.3486   26.5214 C.3     1  UNL1        0.0383
     15 C          -8.3846  -16.1953   27.4049 C.3     1  UNL1        0.0704
     16 N          -8.2266  -14.9804   26.5394 N.3     1  UNL1       -0.2960
     17 C          -8.5023  -15.3829   25.1209 C.3     1  UNL1        0.0887
     18 H          -7.2755  -14.6204   26.6184 H       1  UNL1        0.1233
     19 C         -10.2098  -18.7434   23.9919 C.3     1  UNL1        0.0936
     20 C         -11.6665  -18.3870   23.9653 C.3     1  UNL1        0.0199
     21 C         -12.8584  -18.7316   24.8084 C.3     1  UNL1        0.0017
     22 C         -13.7267  -17.8828   23.9277 C.3     1  UNL1        0.0001
     23 C         -12.5350  -17.5382   23.0847 C.3     1  UNL1        0.0017
@<TRIPOS>BOND
     1    11    12    1
     2    12    10    1
     3    10     4    1
     4     4     5   ar
     5     5     6   ar
     6     6     7   ar
     7     7     8   ar
     8     8     9   ar
     9     9     1    1
    10     1     2    2
    11     1     3   am
    12     3    19    1
    13    19    20    1
    14    20    21    1
    15    21    22    1
    16    22    23    1
    17    13     3    1
    18    13    14    1
    19    14    15    1
    20    15    16    1
    21    16    17    1
    22     9     4   ar
    23    23    20    1
    24    17    13    1
    25    16    18    1
@<TRIPOS>MOLECULE
*****
 23 25 0 0 0
SMALL
GASTEIGER

@<TRIPOS>ATOM
      1 C          -8.2391  -19.0987   22.6523 C.2     1  UNL1        0.2495
      2 O          -7.7918  -20.5084   22.4018 O.2     1  UNL1       -0.2699
      3 N          -7.2407  -17.9795   22.6274 N.am    1  UNL1       -0.2763
      4 C         -10.5966  -18.4095   21.8054 C.ar    1  UNL1        0.0296
      5 C         -12.0422  -18.1191   22.0809 C.ar    1  UNL1        0.0063
      6 C         -12.5759  -18.2273   23.4785 C.ar    1  UNL1        0.0005
      7 C         -11.6640  -18.6260   24.6008 C.ar    1  UNL1        0.0002
      8 C         -10.2184  -18.9165   24.3253 C.ar    1  UNL1        0.0050
      9 C          -9.6847  -18.8082   22.9277 C.ar    1  UNL1        0.0592
     10 S         -10.0629  -18.3013   20.4078 S.3     1  UNL1       -0.1135
     11 C          -8.8272  -20.0376   18.9218 C.3     1  UNL1        0.0129
     12 C         -10.1009  -19.4919   19.4962 C.3     1  UNL1        0.0622
     13 C          -5.7951  -18.2699   22.3520 C.3     1  UNL1        0.0927
     14 C          -4.6294  -17.7930   23.1665 C.3     1  UNL1        0.0383
     15 C          -3.3752  -18.3165   22.5317 C.3     1  UNL1        0.0704
     16 N          -3.7659  -19.1171   21.3248 N.3     1  UNL1       -0.2960
     17 C          -5.2615  -19.0883   21.2138 C.3     1  UNL1        0.0887
     18 H          -3.4450  -20.0797   21.4292 H       1  UNL1        0.1233
     19 C          -7.6881  -16.5698   22.8779 C.3     1  UNL1        0.0936
     20 C          -7.7626  -16.0447   24.2810 C.3     1  UNL1        0.0199
     21 C          -6.7561  -15.6349   25.3150 C.3     1  UNL1        0.0017
     22 C          -7.8679  -15.3021   26.2653 C.3     1  UNL1        0.0001
     23 C          -8.8743  -15.7119   25.2314 C.3     1  UNL1        0.0017
@<TRIPOS>BOND
     1    11    12    1
     2    12    10    1
     3    10     4    1
     4     4     5   ar
     5     5     6   ar
     6     6     7   ar
     7     7     8   ar
     8     8     9   ar
     9     9     1    1
    10     1     2    2
    11     1     3   am
    12     3    19    1
    13    19    20    1
    14    20    21    1
    15    21    22    1
    16    22    23    1
    17    13     3    1
    18    13    14    1
    19    14    15    1
    20    15    16    1
    21    16    17    1
    22     9     4   ar
    23    23    20    1
    24    17    13    1
    25    16    18    1
@<TRIPOS>MOLECULE
*****
 23 25 0 0 0
SMALL
GASTEIGER

@<TRIPOS>ATOM
      1 C          -8.3399  -15.7945   23.2326 C.2     1  UNL1        0.2495
      2 O          -7.7952  -15.0056   22.0790 O.2     1  UNL1       -0.2699
      3 N          -9.5024  -16.7196   23.0262 N.am    1  UNL1       -0.2763
      4 C          -6.2381  -15.7997   24.7599 C.ar    1  UNL1        0.0296
      5 C          -5.6203  -15.6635   26.1200 C.ar    1  UNL1        0.0063
      6 C          -6.4864  -15.3858   27.3128 C.ar    1  UNL1        0.0005
      7 C          -7.9703  -15.2444   27.1455 C.ar    1  UNL1        0.0002
      8 C          -8.5881  -15.3806   25.7855 C.ar    1  UNL1        0.0050
      9 C          -7.7220  -15.6583   24.5927 C.ar    1  UNL1        0.0592
     10 S          -5.3720  -16.0774   23.5671 S.3     1  UNL1       -0.1135
     11 C          -4.3229  -18.3338   22.8201 C.3     1  UNL1        0.0129
     12 C          -4.2709  -17.0918   23.6596 C.3     1  UNL1        0.0622
     13 C         -10.1203  -16.8559   21.6662 C.3     1  UNL1        0.0927
     14 C         -10.2071  -18.1176   20.8597 C.3     1  UNL1        0.0383
     15 C         -10.9003  -17.7958   19.5690 C.3     1  UNL1        0.0704
     16 N         -11.2419  -16.3352   19.5778 N.3     1  UNL1       -0.2960
     17 C         -10.7599  -15.7543   20.8740 C.3     1  UNL1        0.0887
     18 H         -12.2518  -16.2155   19.4992 H       1  UNL1        0.1233
     19 C         -10.0471  -17.5086   24.1800 C.3     1  UNL1        0.0936
     20 C          -9.8212  -18.9899   24.2488 C.3     1  UNL1        0.0199
     21 C         -10.4025  -20.1152   25.0524 C.3     1  UNL1        0.0017
     22 C          -9.5018  -21.0847   24.3461 C.3     1  UNL1        0.0001
     23 C          -8.9206  -19.9594   23.5426 C.3     1  UNL1        0.0017
@<TRIPOS>BOND
     1    11    12    1
     2    12    10    1
     3    10     4    1
     4     4     5   ar
     5     5     6   ar
     6     6     7   ar
     7     7     8   ar
     8     8     9   ar
     9     9     1    1
    10     1     2    2
    11     1     3   am
    12     3    19    1
    13    19    20    1
    14    20    21    1
    15    21    22    1
    16    22    23    1
    17    13     3    1
    18    13    14    1
    19    14    15    1
    20    15    16    1
    21    16    17    1
    22     9     4   ar
    23    23    20    1
    24    17    13    1
    25    16    18    1
@<TRIPOS>MOLECULE
*****
 23 25 0 0 0
SMALL
GASTEIGER

@<TRIPOS>ATOM
      1 C          -8.3969  -16.3799   22.7295 C.2     1  UNL1        0.2495
      2 O          -7.1151  -15.7397   22.2857 O.2     1  UNL1       -0.2699
      3 N          -8.7383  -16.4419   24.1888 N.am    1  UNL1       -0.2763
      4 C          -9.0342  -18.2834   21.0800 C.ar    1  UNL1        0.0296
      5 C          -9.9747  -18.8616   20.0646 C.ar    1  UNL1        0.0063
      6 C         -11.2182  -18.1146   19.6830 C.ar    1  UNL1        0.0005
      7 C         -11.5213  -16.7894   20.3170 C.ar    1  UNL1        0.0002
      8 C         -10.5809  -16.2112   21.3324 C.ar    1  UNL1        0.0050
      9 C          -9.3374  -16.9582   21.7140 C.ar    1  UNL1        0.0592
     10 S          -7.7907  -19.0304   21.4616 S.3     1  UNL1       -0.1135
     11 C          -6.0229  -20.6069   20.3942 C.3     1  UNL1        0.0129
     12 C          -6.7226  -19.2809   20.4386 C.3     1  UNL1        0.0622
     13 C          -7.7979  -15.8637   25.2043 C.3     1  UNL1        0.0927
     14 C          -7.9410  -15.9607   26.6943 C.3     1  UNL1        0.0383
     15 C          -6.7809  -15.2439   27.3190 C.3     1  UNL1        0.0704
     16 N          -5.9208  -14.7038   26.2150 N.3     1  UNL1       -0.2960
     17 C          -6.5493  -15.0869   24.9081 C.3     1  UNL1        0.0887
     18 H          -4.9843  -15.1031   26.2790 H       1  UNL1        0.1233
     19 C         -10.0202  -17.0822   24.6326 C.3     1  UNL1        0.0936
     20 C         -10.3079  -18.5105   24.2759 C.3     1  UNL1        0.0199
     21 C          -9.6141  -19.8209   24.5030 C.3     1  UNL1        0.0017
     22 C         -10.7148  -20.5304   23.7714 C.3     1  UNL1        0.0001
     23 C         -11.4084  -19.2200   23.5442 C.3     1  UNL1        0.0017
@<TRIPOS>BOND
     1    11    12    1
     2    12    10    1
     3    10     4    1
     4     4     5   ar
     5     5     6   ar
     6     6     7   ar
     7     7     8   ar
     8     8     9   ar
     9     9     1    1
    10     1     2    2
    11     1     3   am
    12     3    19    1
    13    19    20    1
    14    20    21    1
    15    21    22    1
    16    22    23    1
    17    13     3    1
    18    13    14    1
    19    14    15    1
    20    15    16    1
    21    16    17    1
    22     9     4   ar
    23    23    20    1
    24    17    13    1
    25    16    18    1
@<TRIPOS>MOLECULE
*****
 23 25 0 0 0
SMALL
GASTEIGER

@<TRIPOS>ATOM
      1 C          -7.9343  -16.8915   22.4411 C.2     1  UNL1        0.2495
      2 O          -7.1331  -15.6565   22.7286 O.2     1  UNL1       -0.2699
      3 N          -7.2404  -18.2064   22.2424 N.am    1  UNL1       -0.2763
      4 C         -10.2753  -17.2829   23.4979 C.ar    1  UNL1        0.0296
      5 C         -11.7705  -17.2030   23.4089 C.ar    1  UNL1        0.0063
      6 C         -12.4200  -16.6519   22.1742 C.ar    1  UNL1        0.0005
      7 C         -11.5743  -16.1807   21.0285 C.ar    1  UNL1        0.0002
      8 C         -10.0791  -16.2606   21.1175 C.ar    1  UNL1        0.0050
      9 C          -9.4296  -16.8117   22.3521 C.ar    1  UNL1        0.0592
     10 S          -9.6258  -17.8340   24.7325 S.3     1  UNL1       -0.1135
     11 C         -10.0627  -20.3846   24.5015 C.3     1  UNL1        0.0129
     12 C         -10.1069  -19.1279   25.3192 C.3     1  UNL1        0.0622
     13 C          -5.7452  -18.2864   22.3313 C.3     1  UNL1        0.0927
     14 C          -4.8532  -19.1174   21.4574 C.3     1  UNL1        0.0383
     15 C          -3.4361  -18.8939   21.8957 C.3     1  UNL1        0.0704
     16 N          -3.4524  -17.9247   23.0406 N.3     1  UNL1       -0.2960
     17 C          -4.8794  -17.5493   23.3097 C.3     1  UNL1        0.0887
     18 H          -2.9155  -17.0924   22.7971 H       1  UNL1        0.1233
     19 C          -8.0417  -19.4415   21.9549 C.3     1  UNL1        0.0936
     20 C          -8.7980  -19.5614   20.6651 C.3     1  UNL1        0.0199
     21 C          -8.4242  -19.5605   19.2123 C.3     1  UNL1        0.0017
     22 C          -9.8675  -19.7310   18.8410 C.3     1  UNL1        0.0001
     23 C         -10.2412  -19.7320   20.2936 C.3     1  UNL1        0.0017
@<TRIPOS>BOND
     1    11    12    1
     2    12    10    1
     3    10     4    1
     4     4     5   ar
     5     5     6   ar
     6     6     7   ar
     7     7     8   ar
     8     8     9   ar
     9     9     1    1
    10     1     2    2
    11     1     3   am
    12     3    19    1
    13    19    20    1
    14    20    21    1
    15    21    22    1
    16    22    23    1
    17    13     3    1
    18    13    14    1
    19    14    15    1
    20    15    16    1
    21    16    17    1
    22     9     4   ar
    23    23    20    1
    24    17    13    1
    25    16    18    1
@<TRIPOS>MOLECULE
*****
 23 25 0 0 0
SMALL
GASTEIGER

@<TRIPOS>ATOM
      1 C          -5.5611  -18.1342   22.5857 C.2     1  UNL1        0.2495
      2 O          -4.5656  -17.6572   23.6013 O.2     1  UNL1       -0.2699
      3 N          -6.9404  -17.5456   22.5535 N.am    1  UNL1       -0.2763
      4 C          -3.8818  -19.0978   20.8532 C.ar    1  UNL1        0.0296
      5 C          -3.4981  -20.1636   19.8699 C.ar    1  UNL1        0.0063
      6 C          -4.4098  -21.3315   19.6358 C.ar    1  UNL1        0.0005
      7 C          -5.7052  -21.4337   20.3850 C.ar    1  UNL1        0.0002
      8 C          -6.0890  -20.3679   21.3683 C.ar    1  UNL1        0.0050
      9 C          -5.1773  -19.2000   21.6024 C.ar    1  UNL1        0.0592
     10 S          -2.9702  -17.9299   21.0872 S.3     1  UNL1       -0.1135
     11 C          -0.6131  -17.8120   20.0008 C.3     1  UNL1        0.0129
     12 C          -2.0688  -17.4501   19.9885 C.3     1  UNL1        0.0622
     13 C          -7.3242  -16.4799   23.5367 C.3     1  UNL1        0.0927
     14 C          -8.4100  -16.5804   24.5667 C.3     1  UNL1        0.0383
     15 C          -8.4465  -15.2892   25.3292 C.3     1  UNL1        0.0704
     16 N          -7.3832  -14.3906   24.7705 N.3     1  UNL1       -0.2960
     17 C          -6.6896  -15.1266   23.6627 C.3     1  UNL1        0.0887
     18 H          -6.7124  -14.1524   25.5010 H       1  UNL1        0.1233
     19 C          -7.9359  -18.0228   21.5378 C.3     1  UNL1        0.0936
     20 C          -9.1005  -18.8649   21.9673 C.3     1  UNL1        0.0199
     21 C         -10.4986  -19.0761   21.4664 C.3     1  UNL1        0.0017
     22 C         -10.7475  -20.0558   22.5747 C.3     1  UNL1        0.0001
     23 C          -9.3496  -19.8446   23.0755 C.3     1  UNL1        0.0017
@<TRIPOS>BOND
     1    11    12    1
     2    12    10    1
     3    10     4    1
     4     4     5   ar
     5     5     6   ar
     6     6     7   ar
     7     7     8   ar
     8     8     9   ar
     9     9     1    1
    10     1     2    2
    11     1     3   am
    12     3    19    1
    13    19    20    1
    14    20    21    1
    15    21    22    1
    16    22    23    1
    17    13     3    1
    18    13    14    1
    19    14    15    1
    20    15    16    1
    21    16    17    1
    22     9     4   ar
    23    23    20    1
    24    17    13    1
    25    16    18    1
@<TRIPOS>MOLECULE
*****
 23 25 0 0 0
SMALL
GASTEIGER

@<TRIPOS>ATOM
      1 C          -8.1165  -16.7720   22.0392 C.2     1  UNL1        0.2495
      2 O          -7.7372  -15.3878   21.6033 O.2     1  UNL1       -0.2699
      3 N          -7.8122  -17.2286   23.4352 N.am    1  UNL1       -0.2763
      4 C         -10.2506  -17.5036   20.7505 C.ar    1  UNL1        0.0296
      5 C         -10.9342  -18.4313   19.7903 C.ar    1  UNL1        0.0063
      6 C         -10.1674  -19.5552   19.1586 C.ar    1  UNL1        0.0005
      7 C          -8.7171  -19.7514   19.4871 C.ar    1  UNL1        0.0002
      8 C          -8.0334  -18.8236   20.4473 C.ar    1  UNL1        0.0050
      9 C          -8.8002  -17.6998   21.0790 C.ar    1  UNL1        0.0592
     10 S         -11.0173  -16.3798   21.3822 S.3     1  UNL1       -0.1135
     11 C         -13.1641  -16.5813   22.8316 C.3     1  UNL1        0.0129
     12 C         -12.5116  -16.4570   21.4866 C.3     1  UNL1        0.0622
     13 C          -7.1285  -16.3009   24.3954 C.3     1  UNL1        0.0927
     14 C          -5.6833  -15.9012   24.3575 C.3     1  UNL1        0.0383
     15 C          -5.4316  -14.9633   25.5008 C.3     1  UNL1        0.0704
     16 N          -6.7214  -14.7834   26.2453 N.3     1  UNL1       -0.2960
     17 C          -7.7701  -15.6101   25.5621 C.3     1  UNL1        0.0887
     18 H          -6.9935  -13.8005   26.2337 H       1  UNL1        0.1233
     19 C          -8.1915  -18.6129   23.8710 C.3     1  UNL1        0.0936
     20 C          -9.6380  -18.9958   23.9770 C.3     1  UNL1        0.0199
     21 C         -10.8250  -18.4610   24.7220 C.3     1  UNL1        0.0017
     22 C         -11.6835  -19.5374   24.1268 C.3     1  UNL1        0.0001
     23 C         -10.4966  -20.0722   23.3819 C.3     1  UNL1        0.0017
@<TRIPOS>BOND
     1    11    12    1
     2    12    10    1
     3    10     4    1
     4     4     5   ar
     5     5     6   ar
     6     6     7   ar
     7     7     8   ar
     8     8     9   ar
     9     9     1    1
    10     1     2    2
    11     1     3   am
    12     3    19    1
    13    19    20    1
    14    20    21    1
    15    21    22    1
    16    22    23    1
    17    13     3    1
    18    13    14    1
    19    14    15    1
    20    15    16    1
    21    16    17    1
    22     9     4   ar
    23    23    20    1
    24    17    13    1
    25    16    18    1
@<TRIPOS>MOLECULE
*****
 23 25 0 0 0
SMALL
GASTEIGER

@<TRIPOS>ATOM
      1 C          -7.7492  -18.2792   22.3757 C.2     1  UNL1        0.2495
      2 O          -6.8616  -19.0953   23.2680 O.2     1  UNL1       -0.2699
      3 N          -7.9472  -16.8176   22.6486 N.am    1  UNL1       -0.2763
      4 C          -7.6504  -19.3203   19.9974 C.ar    1  UNL1        0.0296
      5 C          -8.3401  -19.9658   18.8323 C.ar    1  UNL1        0.0063
      6 C          -9.8183  -20.2158   18.8802 C.ar    1  UNL1        0.0005
      7 C         -10.6069  -19.8202   20.0933 C.ar    1  UNL1        0.0002
      8 C          -9.9172  -19.1747   21.2585 C.ar    1  UNL1        0.0050
      9 C          -8.4389  -18.9248   21.2105 C.ar    1  UNL1        0.0592
     10 S          -6.1721  -19.0704   19.9494 S.3     1  UNL1       -0.1135
     11 C          -3.7707  -20.0610   19.9057 C.3     1  UNL1        0.0129
     12 C          -5.2138  -20.1697   20.3002 C.3     1  UNL1        0.0622
     13 C          -7.2575  -16.1721   23.8138 C.3     1  UNL1        0.0927
     14 C          -5.7800  -15.9543   23.9536 C.3     1  UNL1        0.0383
     15 C          -5.5336  -15.2786   25.2699 C.3     1  UNL1        0.0704
     16 N          -6.8589  -15.0787   25.9437 N.3     1  UNL1       -0.2960
     17 C          -7.9243  -15.6309   25.0437 C.3     1  UNL1        0.0887
     18 H          -7.0204  -14.0840   26.1015 H       1  UNL1        0.1233
     19 C          -8.8349  -16.0015   21.7563 C.3     1  UNL1        0.0936
     20 C         -10.3258  -16.1051   21.8840 C.3     1  UNL1        0.0199
     21 C         -11.4802  -16.0256   20.9295 C.3     1  UNL1        0.0017
     22 C         -12.4343  -16.2516   22.0647 C.3     1  UNL1        0.0001
     23 C         -11.2800  -16.3311   23.0191 C.3     1  UNL1        0.0017
@<TRIPOS>BOND
     1    11    12    1
     2    12    10    1
     3    10     4    1
     4     4     5   ar
     5     5     6   ar
     6     6     7   ar
     7     7     8   ar
     8     8     9   ar
     9     9     1    1
    10     1     2    2
    11     1     3   am
    12     3    19    1
    13    19    20    1
    14    20    21    1
    15    21    22    1
    16    22    23    1
    17    13     3    1
    18    13    14    1
    19    14    15    1
    20    15    16    1
    21    16    17    1
    22     9     4   ar
    23    23    20    1
    24    17    13    1
    25    16    18    1
@<TRIPOS>MOLECULE
*****
 23 25 0 0 0
SMALL
GASTEIGER

@<TRIPOS>ATOM
      1 C         -13.5451   -6.3964   17.1029 C.2     1  UNL1        0.2495
      2 O         -14.2279   -7.1515   16.0013 O.2     1  UNL1       -0.2699
      3 N         -13.9035   -6.6696   18.5336 N.am    1  UNL1       -0.2763
      4 C         -11.0508   -5.7394   16.7919 C.ar    1  UNL1        0.0296
      5 C         -10.0096   -4.7110   16.4628 C.ar    1  UNL1        0.0063
      6 C         -10.4216   -3.3111   16.1156 C.ar    1  UNL1        0.0005
      7 C         -11.8747   -2.9396   16.0975 C.ar    1  UNL1        0.0002
      8 C         -12.9159   -3.9680   16.4266 C.ar    1  UNL1        0.0050
      9 C         -12.5039   -5.3679   16.7738 C.ar    1  UNL1        0.0592
     10 S         -10.6388   -7.1393   17.1391 S.3     1  UNL1       -0.1135
     11 C          -9.5881   -6.2862   19.3568 C.3     1  UNL1        0.0129
     12 C          -9.8518   -7.4013   18.3889 C.3     1  UNL1        0.0622
     13 C         -14.9447   -7.6980   18.8627 C.3     1  UNL1        0.0927
     14 C         -16.2738   -7.4326   19.5052 C.3     1  UNL1        0.0383
     15 C         -16.9901   -8.7429   19.6467 C.3     1  UNL1        0.0704
     16 N         -16.1036   -9.8181   19.0917 N.3     1  UNL1       -0.2960
     17 C         -14.8395   -9.1723   18.6072 C.3     1  UNL1        0.0887
     18 H         -16.5720  -10.2870   18.3163 H       1  UNL1        0.1233
     19 C         -13.2206   -5.9144   19.6352 C.3     1  UNL1        0.0936
     20 C         -13.6722   -4.5276   19.9857 C.3     1  UNL1        0.0199
     21 C         -13.0259   -3.1740   20.0023 C.3     1  UNL1        0.0017
     22 C         -14.3109   -2.5664   20.4813 C.3     1  UNL1        0.0001
     23 C         -14.9572   -3.9198   20.4647 C.3     1  UNL1        0.0017
@<TRIPOS>BOND
     1    11    12    1
     2    12    10    1
     3    10     4    1
     4     4     5   ar
     5     5     6   ar
     6     6     7   ar
     7     7     8   ar
     8     8     9   ar
     9     9     1    1
    10     1     2    2
    11     1     3   am
    12     3    19    1
    13    19    20    1
    14    20    21    1
    15    21    22    1
    16    22    23    1
    17    13     3    1
    18    13    14    1
    19    14    15    1
    20    15    16    1
    21    16    17    1
    22     9     4   ar
    23    23    20    1
    24    17    13    1
    25    16    18    1
