@<TRIPOS>MOLECULE
*****
 42 46 0 0 0
SMALL
GASTEIGER

@<TRIPOS>ATOM
      1 C           7.2675   -2.9334   24.8512 C.3     1  UNL1        0.1035
      2 C           8.1572   -3.1308   26.0426 C.3     1  UNL1        0.0933
      3 N           6.9616   -3.0669   26.9461 N.3     1  UNL1       -0.2711
      4 C           6.0718   -2.8695   25.7548 C.3     1  UNL1        0.0933
      5 C           6.7453   -3.1613   28.4274 C.3     1  UNL1        0.0578
      6 C           7.0100   -4.4526   29.1432 C.3     1  UNL1        0.0187
      7 C           6.7937   -4.5470   30.6246 C.3     1  UNL1        0.0326
      8 C           6.3126   -3.3501   31.3901 C.3     1  UNL1        0.1085
      9 O           6.4237   -4.3458   32.5063 O.3     1  UNL1       -0.3826
     10 C           6.0479   -2.0588   30.6742 C.3     1  UNL1        0.0326
     11 C           6.2642   -1.9644   29.1930 C.3     1  UNL1        0.0187
     12 H           6.7336   -5.1944   32.1530 H       1  UNL1        0.2107
     13 C           5.8701   -2.4990   32.5432 C.ar    1  UNL1        0.0211
     14 C           6.7820   -1.4390   33.0863 C.ar    1  UNL1        0.0043
     15 C           6.3395   -0.5879   34.2395 C.ar    1  UNL1        0.0575
     16 C           4.9851   -0.7968   34.8495 C.ar    1  UNL1        0.2247
     17 N           4.0733   -1.8567   34.3065 N.ar    1  UNL1       -0.2104
     18 C           4.5158   -2.7080   33.1533 C.ar    1  UNL1        0.1000
     19 O           4.5427    0.0544   36.0027 O.3     1  UNL1       -0.4640
     20 C           3.7081    1.2761   35.7564 C.3     1  UNL1        0.1676
     21 C           3.3010    2.0552   34.5409 C.3     1  UNL1        0.0437
     22 C           2.5278    3.0041   35.4080 C.3     1  UNL1        0.0074
     23 C           2.9349    2.2250   36.6234 C.3     1  UNL1        0.0437
     24 O           7.3649   -5.4279   23.1875 O.2     1  UNL1       -0.2733
     25 C           7.5326   -4.0862   22.5380 C.2     1  UNL1        0.2426
     26 N           7.4838   -2.8389   23.3699 N.am    1  UNL1       -0.3018
     27 H           7.5939   -1.9584   22.9436 H       1  UNL1        0.1495
     28 C           7.7489   -3.9917   21.0568 C.3     1  UNL1        0.1759
     29 N           6.9548   -3.0127   20.2437 N.am    1  UNL1       -0.2931
     30 C           5.4696   -3.1771   20.1126 C.2     1  UNL1        0.2462
     31 O           4.7785   -4.3205   20.7945 O.2     1  UNL1       -0.2701
     32 H           7.4084   -2.2622   19.7961 H       1  UNL1        0.1502
     33 C           4.6755   -2.1981   19.2995 C.ar    1  UNL1        0.0533
     34 C           5.1879   -1.7407   17.9661 C.ar    1  UNL1        0.0045
     35 C           4.3938   -0.7618   17.1531 C.ar    1  UNL1        0.0001
     36 C           3.0872   -0.2402   17.6736 C.ar    1  UNL1        0.0039
     37 C           2.5748   -0.6976   19.0070 C.ar    1  UNL1        0.0716
     38 C           3.3689   -1.6766   19.8200 C.ar    1  UNL1        0.0084
     39 C           1.2683   -0.1761   19.5275 C.3     1  UNL1        0.4186
     40 F          -0.0383    0.3455   20.0480 F       1  UNL1       -0.1659
     41 F           1.0385    0.5423   18.2309 F       1  UNL1       -0.1659
     42 F           1.4980   -0.8944   20.8241 F       1  UNL1       -0.1659
@<TRIPOS>BOND
     1    24    25    2
     2    25    28    1
     3    28    29    1
     4    29    30   am
     5    30    31    2
     6    30    33    1
     7    33    34   ar
     8    34    35   ar
     9    35    36   ar
    10    36    37   ar
    11    37    39    1
    12    39    40    1
    13    39    41    1
    14    39    42    1
    15    37    38   ar
    16    25    26   am
    17    26     1    1
    18     1     2    1
    19     2     3    1
    20     5     3    1
    21     5     6    1
    22     6     7    1
    23     7     8    1
    24     8     9    1
    25     8    13    1
    26    13    14   ar
    27    14    15   ar
    28    15    16   ar
    29    16    19    1
    30    19    20    1
    31    20    21    1
    32    21    22    1
    33    22    23    1
    34    16    17   ar
    35    17    18   ar
    36     8    10    1
    37    10    11    1
    38     3     4    1
    39    38    33   ar
    40     4     1    1
    41    11     5    1
    42    18    13   ar
    43    23    20    1
    44    29    32    1
    45    26    27    1
    46     9    12    1
@<TRIPOS>MOLECULE
*****
 42 46 0 0 0
SMALL
GASTEIGER

@<TRIPOS>ATOM
      1 C           3.2951   -0.1985   26.6607 C.3     1  UNL1        0.1035
      2 C           4.4395    0.4234   27.4048 C.3     1  UNL1        0.0933
      3 N           4.0077   -0.2805   28.6571 N.3     1  UNL1       -0.2711
      4 C           2.8633   -0.9023   27.9130 C.3     1  UNL1        0.0933
      5 C           4.5115   -0.3384   30.0687 C.3     1  UNL1        0.0578
      6 C           5.8149   -1.0158   30.3727 C.3     1  UNL1        0.0187
      7 C           6.3187   -1.0737   31.7844 C.3     1  UNL1        0.0326
      8 C           5.5192   -0.4544   32.8921 C.3     1  UNL1        0.1085
      9 O           6.6855   -0.9800   33.6751 O.3     1  UNL1       -0.3826
     10 C           4.2158    0.2230   32.5881 C.3     1  UNL1        0.0326
     11 C           3.7119    0.2810   31.1765 C.3     1  UNL1        0.0187
     12 H           7.3065   -1.4202   33.0740 H       1  UNL1        0.2107
     13 C           5.1247   -0.0175   34.2718 C.ar    1  UNL1        0.0211
     14 C           4.0871    1.0507   34.4523 C.ar    1  UNL1        0.0043
     15 C           3.6926    1.4875   35.8319 C.ar    1  UNL1        0.0575
     16 C           4.3356    0.8562   37.0311 C.ar    1  UNL1        0.2247
     17 N           5.3731   -0.2119   36.8506 N.ar    1  UNL1       -0.2104
     18 C           5.7677   -0.6489   35.4709 C.ar    1  UNL1        0.1000
     19 O           3.9411    1.2931   38.4107 O.3     1  UNL1       -0.4640
     20 C           2.4906    1.4072   38.7753 C.3     1  UNL1        0.1676
     21 C           1.4955    2.5283   38.8290 C.3     1  UNL1        0.0437
     22 C           0.4391    1.5687   39.2908 C.3     1  UNL1        0.0074
     23 C           1.4342    0.4476   39.2371 C.3     1  UNL1        0.0437
     24 O           1.2473    1.8508   25.8818 O.2     1  UNL1       -0.2733
     25 C           1.7674    0.8842   24.8596 C.2     1  UNL1        0.2426
     26 N           2.7913   -0.1405   25.2490 N.am    1  UNL1       -0.3018
     27 H           3.1327   -0.7749   24.5780 H       1  UNL1        0.1495
     28 C           1.2636    0.9421   23.4479 C.3     1  UNL1        0.1759
     29 N           2.1276    0.4549   22.3226 N.am    1  UNL1       -0.2931
     30 C           1.5030    0.0344   21.0253 C.2     1  UNL1        0.2462
     31 O           0.0144    0.1011   20.8533 O.2     1  UNL1       -0.2701
     32 H           3.1047    0.4111   22.4356 H       1  UNL1        0.1502
     33 C           2.3670   -0.4528   19.9001 C.ar    1  UNL1        0.0533
     34 C           2.7204    0.4704   18.7719 C.ar    1  UNL1        0.0045
     35 C           3.5843   -0.0169   17.6467 C.ar    1  UNL1        0.0001
     36 C           4.0949   -1.4273   17.6496 C.ar    1  UNL1        0.0039
     37 C           3.7416   -2.3505   18.7778 C.ar    1  UNL1        0.0716
     38 C           2.8776   -1.8632   19.9030 C.ar    1  UNL1        0.0084
     39 C           4.2522   -3.7609   18.7808 C.3     1  UNL1        0.4186
     40 F           4.7628   -5.1713   18.7838 F       1  UNL1       -0.1659
     41 F           5.5875   -3.2785   18.2969 F       1  UNL1       -0.1659
     42 F           2.9168   -4.2433   19.2647 F       1  UNL1       -0.1659
@<TRIPOS>BOND
     1    24    25    2
     2    25    28    1
     3    28    29    1
     4    29    30   am
     5    30    31    2
     6    30    33    1
     7    33    34   ar
     8    34    35   ar
     9    35    36   ar
    10    36    37   ar
    11    37    39    1
    12    39    40    1
    13    39    41    1
    14    39    42    1
    15    37    38   ar
    16    25    26   am
    17    26     1    1
    18     1     2    1
    19     2     3    1
    20     5     3    1
    21     5     6    1
    22     6     7    1
    23     7     8    1
    24     8     9    1
    25     8    13    1
    26    13    14   ar
    27    14    15   ar
    28    15    16   ar
    29    16    19    1
    30    19    20    1
    31    20    21    1
    32    21    22    1
    33    22    23    1
    34    16    17   ar
    35    17    18   ar
    36     8    10    1
    37    10    11    1
    38     3     4    1
    39    38    33   ar
    40     4     1    1
    41    11     5    1
    42    18    13   ar
    43    23    20    1
    44    29    32    1
    45    26    27    1
    46     9    12    1
@<TRIPOS>MOLECULE
*****
 42 46 0 0 0
SMALL
GASTEIGER

@<TRIPOS>ATOM
      1 C           0.3065    2.2595   19.5383 C.3     1  UNL1        0.1035
      2 C           0.5238    0.7842   19.7003 C.3     1  UNL1        0.0933
      3 N           1.9400    0.9412   19.2314 N.3     1  UNL1       -0.2711
      4 C           1.7227    2.4166   19.0694 C.3     1  UNL1        0.0933
      5 C           3.0950    0.0091   19.0145 C.3     1  UNL1        0.0578
      6 C           3.5491   -0.3108   17.6212 C.3     1  UNL1        0.0187
      7 C           4.7042   -1.2429   17.4043 C.3     1  UNL1        0.0326
      8 C           5.4050   -1.8551   18.5807 C.3     1  UNL1        0.1085
      9 O           6.1982   -2.4607   17.4608 O.3     1  UNL1       -0.3826
     10 C           4.9509   -1.5352   19.9740 C.3     1  UNL1        0.0326
     11 C           3.7959   -0.6031   20.1909 C.3     1  UNL1        0.0187
     12 H           5.8500   -2.1471   16.6115 H       1  UNL1        0.2107
     13 C           6.3814   -2.6776   19.3682 C.ar    1  UNL1        0.0211
     14 C           7.8373   -2.3161   19.3693 C.ar    1  UNL1        0.0043
     15 C           8.8136   -3.1386   20.1568 C.ar    1  UNL1        0.0575
     16 C           8.3342   -4.3225   20.9432 C.ar    1  UNL1        0.2247
     17 N           6.8785   -4.6840   20.9421 N.ar    1  UNL1       -0.2104
     18 C           5.9020   -3.8616   20.1546 C.ar    1  UNL1        0.1000
     19 O           9.3106   -5.1450   21.7307 O.3     1  UNL1       -0.4640
     20 C           8.8286   -5.9976   22.8667 C.3     1  UNL1        0.1676
     21 C           8.9894   -7.4377   23.2545 C.3     1  UNL1        0.0437
     22 C           8.1469   -7.2036   24.4733 C.3     1  UNL1        0.0074
     23 C           7.9861   -5.7635   24.0855 C.3     1  UNL1        0.0437
     24 O          -0.9976    3.6031   17.1943 O.2     1  UNL1       -0.2733
     25 C          -1.5006    3.8634   18.5833 C.2     1  UNL1        0.2426
     26 N          -0.8486    3.1916   19.7552 N.am    1  UNL1       -0.3018
     27 H          -1.1788    3.3624   20.6668 H       1  UNL1        0.1495
     28 C          -2.6556    4.7954   18.8003 C.3     1  UNL1        0.1759
     29 N          -3.3119    4.8757   20.1467 N.am    1  UNL1       -0.2931
     30 C          -4.5876    4.1301   20.4049 C.2     1  UNL1        0.2462
     31 O          -5.2071    3.3042   19.3167 O.2     1  UNL1       -0.2701
     32 H          -2.9054    5.4177   20.8610 H       1  UNL1        0.1502
     33 C          -5.2439    4.2103   21.7514 C.ar    1  UNL1        0.0533
     34 C          -6.6985    4.5610   21.8571 C.ar    1  UNL1        0.0045
     35 C          -7.3547    4.6413   23.2035 C.ar    1  UNL1        0.0001
     36 C          -6.5563    4.3708   24.4442 C.ar    1  UNL1        0.0039
     37 C          -5.1018    4.0200   24.3386 C.ar    1  UNL1        0.0716
     38 C          -4.4456    3.9398   22.9922 C.ar    1  UNL1        0.0084
     39 C          -4.3035    3.7495   25.5793 C.3     1  UNL1        0.4186
     40 F          -3.5051    3.4790   26.8201 F       1  UNL1       -0.1659
     41 F          -5.3785    4.3858   26.4097 F       1  UNL1       -0.1659
     42 F          -3.2285    3.1133   24.7489 F       1  UNL1       -0.1659
@<TRIPOS>BOND
     1    24    25    2
     2    25    28    1
     3    28    29    1
     4    29    30   am
     5    30    31    2
     6    30    33    1
     7    33    34   ar
     8    34    35   ar
     9    35    36   ar
    10    36    37   ar
    11    37    39    1
    12    39    40    1
    13    39    41    1
    14    39    42    1
    15    37    38   ar
    16    25    26   am
    17    26     1    1
    18     1     2    1
    19     2     3    1
    20     5     3    1
    21     5     6    1
    22     6     7    1
    23     7     8    1
    24     8     9    1
    25     8    13    1
    26    13    14   ar
    27    14    15   ar
    28    15    16   ar
    29    16    19    1
    30    19    20    1
    31    20    21    1
    32    21    22    1
    33    22    23    1
    34    16    17   ar
    35    17    18   ar
    36     8    10    1
    37    10    11    1
    38     3     4    1
    39    38    33   ar
    40     4     1    1
    41    11     5    1
    42    18    13   ar
    43    23    20    1
    44    29    32    1
    45    26    27    1
    46     9    12    1
@<TRIPOS>MOLECULE
*****
 42 46 0 0 0
SMALL
GASTEIGER

@<TRIPOS>ATOM
      1 C           0.9207    1.6534   26.5303 C.3     1  UNL1        0.1035
      2 C           1.9486    2.3934   27.3339 C.3     1  UNL1        0.0933
      3 N           0.9393    2.6148   28.4212 N.3     1  UNL1       -0.2711
      4 C          -0.0886    1.8747   27.6176 C.3     1  UNL1        0.0933
      5 C           0.9524    3.2946   29.7582 C.3     1  UNL1        0.0578
      6 C           0.5608    4.7383   29.8694 C.3     1  UNL1        0.0187
      7 C           0.5740    5.4181   31.2065 C.3     1  UNL1        0.0326
      8 C           0.9786    4.6542   32.4323 C.3     1  UNL1        0.1085
      9 O           0.6932    5.9942   33.0428 O.3     1  UNL1       -0.3826
     10 C           1.3701    3.2105   32.3211 C.3     1  UNL1        0.0326
     11 C           1.3570    2.5307   30.9841 C.3     1  UNL1        0.0187
     12 H           0.4118    6.6119   32.3499 H       1  UNL1        0.2107
     13 C           1.2841    4.3557   33.8702 C.ar    1  UNL1        0.0211
     14 C           0.9001    5.3368   34.9379 C.ar    1  UNL1        0.0043
     15 C           1.2056    5.0383   36.3758 C.ar    1  UNL1        0.0575
     16 C           1.8952    3.7586   36.7459 C.ar    1  UNL1        0.2247
     17 N           2.2792    2.7775   35.6784 N.ar    1  UNL1       -0.2104
     18 C           1.9737    3.0760   34.2404 C.ar    1  UNL1        0.1000
     19 O           2.2007    3.4601   38.1838 O.3     1  UNL1       -0.4640
     20 C           1.7615    2.1602   38.7898 C.3     1  UNL1        0.1676
     21 C           0.5712    1.7080   39.5826 C.3     1  UNL1        0.0437
     22 C           1.1404    0.3217   39.6468 C.3     1  UNL1        0.0074
     23 C           2.3308    0.7739   38.8540 C.3     1  UNL1        0.0437
     24 O           0.3830    3.2438   24.0440 O.2     1  UNL1       -0.2733
     25 C           0.6388    1.7687   23.9501 C.2     1  UNL1        0.2426
     26 N           0.9077    0.9735   25.1932 N.am    1  UNL1       -0.3018
     27 H           1.0756    0.0054   25.1316 H       1  UNL1        0.1495
     28 C           0.6258    1.0889   22.6132 C.3     1  UNL1        0.1759
     29 N           1.8725    0.4393   22.0898 N.am    1  UNL1       -0.2931
     30 C           1.8901   -0.1464   20.7091 C.2     1  UNL1        0.2462
     31 O           0.6611   -0.0826   19.8515 O.2     1  UNL1       -0.2701
     32 H           2.6792    0.3973   22.6527 H       1  UNL1        0.1502
     33 C           3.1369   -0.7961   20.1858 C.ar    1  UNL1        0.0533
     34 C           4.3570    0.0329   19.9138 C.ar    1  UNL1        0.0045
     35 C           5.6036   -0.6168   19.3905 C.ar    1  UNL1        0.0001
     36 C           5.6301   -2.0953   19.1392 C.ar    1  UNL1        0.0039
     37 C           4.4099   -2.9243   19.4112 C.ar    1  UNL1        0.0716
     38 C           3.1633   -2.2746   19.9345 C.ar    1  UNL1        0.0084
     39 C           4.4364   -4.4028   19.1600 C.3     1  UNL1        0.4186
     40 F           4.4629   -5.8814   18.9087 F       1  UNL1       -0.1659
     41 F           5.8654   -4.4543   19.6131 F       1  UNL1       -0.1659
     42 F           3.0074   -4.3514   18.7068 F       1  UNL1       -0.1659
@<TRIPOS>BOND
     1    24    25    2
     2    25    28    1
     3    28    29    1
     4    29    30   am
     5    30    31    2
     6    30    33    1
     7    33    34   ar
     8    34    35   ar
     9    35    36   ar
    10    36    37   ar
    11    37    39    1
    12    39    40    1
    13    39    41    1
    14    39    42    1
    15    37    38   ar
    16    25    26   am
    17    26     1    1
    18     1     2    1
    19     2     3    1
    20     5     3    1
    21     5     6    1
    22     6     7    1
    23     7     8    1
    24     8     9    1
    25     8    13    1
    26    13    14   ar
    27    14    15   ar
    28    15    16   ar
    29    16    19    1
    30    19    20    1
    31    20    21    1
    32    21    22    1
    33    22    23    1
    34    16    17   ar
    35    17    18   ar
    36     8    10    1
    37    10    11    1
    38     3     4    1
    39    38    33   ar
    40     4     1    1
    41    11     5    1
    42    18    13   ar
    43    23    20    1
    44    29    32    1
    45    26    27    1
    46     9    12    1
@<TRIPOS>MOLECULE
*****
 42 46 0 0 0
SMALL
GASTEIGER

@<TRIPOS>ATOM
      1 C           0.7242    2.2626   18.7811 C.3     1  UNL1        0.1035
      2 C           0.9177    0.7784   18.6823 C.3     1  UNL1        0.0933
      3 N           2.4048    0.9738   18.6596 N.3     1  UNL1       -0.2711
      4 C           2.2113    2.4580   18.7584 C.3     1  UNL1        0.0933
      5 C           3.5931    0.0625   18.5737 C.3     1  UNL1        0.0578
      6 C           4.2270   -0.2200   17.2440 C.3     1  UNL1        0.0187
      7 C           5.4154   -1.1314   17.1581 C.3     1  UNL1        0.0326
      8 C           5.9698   -1.7601   18.4020 C.3     1  UNL1        0.1085
      9 O           6.9096   -2.3297   17.3811 O.3     1  UNL1       -0.3826
     10 C           5.3359   -1.4775   19.7318 C.3     1  UNL1        0.0326
     11 C           4.1475   -0.5662   19.8177 C.3     1  UNL1        0.0187
     12 H           6.6679   -2.0020   16.5007 H       1  UNL1        0.2107
     13 C           6.8506   -2.5866   19.2914 C.ar    1  UNL1        0.0211
     14 C           8.3271   -2.3260   19.3362 C.ar    1  UNL1        0.0043
     15 C           9.2079   -3.1526   20.2256 C.ar    1  UNL1        0.0575
     16 C           8.6122   -4.2398   21.0701 C.ar    1  UNL1        0.2247
     17 N           7.1358   -4.5004   21.0253 N.ar    1  UNL1       -0.2104
     18 C           6.2549   -3.6738   20.1359 C.ar    1  UNL1        0.1000
     19 O           9.4931   -5.0663   21.9594 O.3     1  UNL1       -0.4640
     20 C           8.8853   -5.9242   23.0292 C.3     1  UNL1        0.1676
     21 C           8.8323   -7.3978   23.3045 C.3     1  UNL1        0.0437
     22 C           8.0258   -7.1376   24.5422 C.3     1  UNL1        0.0074
     23 C           8.0787   -5.6641   24.2669 C.3     1  UNL1        0.0437
     24 O          -0.9749    2.2830   21.2535 O.2     1  UNL1       -0.2733
     25 C          -1.3137    3.1840   20.1031 C.2     1  UNL1        0.2426
     26 N          -0.4642    3.1739   18.8670 N.am    1  UNL1       -0.3018
     27 H          -0.6866    3.7653   18.1120 H       1  UNL1        0.1495
     28 C          -2.5021    4.0953   20.1890 C.3     1  UNL1        0.1759
     29 N          -3.0222    4.5255   21.5286 N.am    1  UNL1       -0.2931
     30 C          -4.0711    3.7088   22.2234 C.2     1  UNL1        0.2462
     31 O          -4.6000    2.4620   21.5787 O.2     1  UNL1       -0.2701
     32 H          -2.6751    5.3438   21.9518 H       1  UNL1        0.1502
     33 C          -4.5912    4.1390   23.5631 C.ar    1  UNL1        0.0533
     34 C          -3.7560    3.9359   24.7923 C.ar    1  UNL1        0.0045
     35 C          -4.2761    4.3661   26.1319 C.ar    1  UNL1        0.0001
     36 C          -5.6314    4.9993   26.2421 C.ar    1  UNL1        0.0039
     37 C          -6.4666    5.2024   25.0129 C.ar    1  UNL1        0.0716
     38 C          -5.9465    4.7722   23.6733 C.ar    1  UNL1        0.0084
     39 C          -7.8219    5.8356   25.1231 C.3     1  UNL1        0.4186
     40 F          -9.1772    6.4689   25.2334 F       1  UNL1       -0.1659
     41 F          -8.0994    5.4913   23.6898 F       1  UNL1       -0.1659
     42 F          -7.5444    6.1799   26.5565 F       1  UNL1       -0.1659
@<TRIPOS>BOND
     1    24    25    2
     2    25    28    1
     3    28    29    1
     4    29    30   am
     5    30    31    2
     6    30    33    1
     7    33    34   ar
     8    34    35   ar
     9    35    36   ar
    10    36    37   ar
    11    37    39    1
    12    39    40    1
    13    39    41    1
    14    39    42    1
    15    37    38   ar
    16    25    26   am
    17    26     1    1
    18     1     2    1
    19     2     3    1
    20     5     3    1
    21     5     6    1
    22     6     7    1
    23     7     8    1
    24     8     9    1
    25     8    13    1
    26    13    14   ar
    27    14    15   ar
    28    15    16   ar
    29    16    19    1
    30    19    20    1
    31    20    21    1
    32    21    22    1
    33    22    23    1
    34    16    17   ar
    35    17    18   ar
    36     8    10    1
    37    10    11    1
    38     3     4    1
    39    38    33   ar
    40     4     1    1
    41    11     5    1
    42    18    13   ar
    43    23    20    1
    44    29    32    1
    45    26    27    1
    46     9    12    1
@<TRIPOS>MOLECULE
*****
 42 46 0 0 0
SMALL
GASTEIGER

@<TRIPOS>ATOM
      1 C           6.7601   -1.6198   32.4656 C.3     1  UNL1        0.1035
      2 C           7.8119   -2.2817   31.6255 C.3     1  UNL1        0.0933
      3 N           6.7667   -2.6681   30.6214 N.3     1  UNL1       -0.2711
      4 C           5.7149   -2.0062   31.4614 C.3     1  UNL1        0.0933
      5 C           6.7713   -3.4094   29.3174 C.3     1  UNL1        0.0578
      6 C           6.7285   -4.9087   29.3068 C.3     1  UNL1        0.0187
      7 C           6.7331   -5.6499   28.0027 C.3     1  UNL1        0.0326
      8 C           6.7805   -4.8918   26.7092 C.3     1  UNL1        0.1085
      9 O           6.7506   -6.2974   26.1864 O.3     1  UNL1       -0.3826
     10 C           6.8233   -3.3925   26.7198 C.3     1  UNL1        0.0326
     11 C           6.8187   -2.6512   28.0238 C.3     1  UNL1        0.0187
     12 H           6.7180   -6.9186   26.9307 H       1  UNL1        0.2107
     13 C           6.8175   -4.6219   25.2342 C.ar    1  UNL1        0.0211
     14 C           6.0466   -3.4687   24.6632 C.ar    1  UNL1        0.0043
     15 C           6.0837   -3.1987   23.1882 C.ar    1  UNL1        0.0575
     16 C           6.8916   -4.0819   22.2841 C.ar    1  UNL1        0.2247
     17 N           7.6624   -5.2350   22.8550 N.ar    1  UNL1       -0.2104
     18 C           7.6255   -5.5051   24.3301 C.ar    1  UNL1        0.1000
     19 O           6.9286   -3.8118   20.8091 O.3     1  UNL1       -0.4640
     20 C           5.6587   -3.8311   20.0110 C.3     1  UNL1        0.1676
     21 C           5.2463   -3.3221   18.6616 C.3     1  UNL1        0.0437
     22 C           3.8628   -3.8584   18.8821 C.3     1  UNL1        0.0074
     23 C           4.2753   -4.3674   20.2315 C.3     1  UNL1        0.0437
     24 O           8.8398    0.4730   33.0087 O.2     1  UNL1       -0.2733
     25 C           7.7954    0.1678   34.0412 C.2     1  UNL1        0.2426
     26 N           6.7555   -0.8785   33.7696 N.am    1  UNL1       -0.3018
     27 H           6.0700   -1.0788   34.4473 H       1  UNL1        0.1495
     28 C           7.7908    0.9090   35.3452 C.3     1  UNL1        0.1759
     29 N           6.5644    1.6561   35.7790 N.am    1  UNL1       -0.2931
     30 C           5.4220    0.9188   36.4124 C.2     1  UNL1        0.2462
     31 O           5.5058   -0.5654   36.6120 O.2     1  UNL1       -0.2701
     32 H           6.5094    2.6303   35.6480 H       1  UNL1        0.1502
     33 C           4.1956    1.6659   36.8462 C.ar    1  UNL1        0.0533
     34 C           3.7969    2.9276   36.1397 C.ar    1  UNL1        0.0045
     35 C           2.5707    3.6746   36.5735 C.ar    1  UNL1        0.0001
     36 C           1.7430    3.1598   37.7137 C.ar    1  UNL1        0.0039
     37 C           2.1417    1.8981   38.4202 C.ar    1  UNL1        0.0716
     38 C           3.3680    1.1511   37.9864 C.ar    1  UNL1        0.0084
     39 C           1.3141    1.3834   39.5604 C.3     1  UNL1        0.4186
     40 F           0.4865    0.8686   40.7006 F       1  UNL1       -0.1659
     41 F           1.1925    0.0558   38.8728 F       1  UNL1       -0.1659
     42 F           1.4357    2.7110   40.2480 F       1  UNL1       -0.1659
@<TRIPOS>BOND
     1    24    25    2
     2    25    28    1
     3    28    29    1
     4    29    30   am
     5    30    31    2
     6    30    33    1
     7    33    34   ar
     8    34    35   ar
     9    35    36   ar
    10    36    37   ar
    11    37    39    1
    12    39    40    1
    13    39    41    1
    14    39    42    1
    15    37    38   ar
    16    25    26   am
    17    26     1    1
    18     1     2    1
    19     2     3    1
    20     5     3    1
    21     5     6    1
    22     6     7    1
    23     7     8    1
    24     8     9    1
    25     8    13    1
    26    13    14   ar
    27    14    15   ar
    28    15    16   ar
    29    16    19    1
    30    19    20    1
    31    20    21    1
    32    21    22    1
    33    22    23    1
    34    16    17   ar
    35    17    18   ar
    36     8    10    1
    37    10    11    1
    38     3     4    1
    39    38    33   ar
    40     4     1    1
    41    11     5    1
    42    18    13   ar
    43    23    20    1
    44    29    32    1
    45    26    27    1
    46     9    12    1
@<TRIPOS>MOLECULE
*****
 42 46 0 0 0
SMALL
GASTEIGER

@<TRIPOS>ATOM
      1 C           7.4653   -3.3754   28.8948 C.3     1  UNL1        0.1035
      2 C           7.9196   -2.0370   29.3970 C.3     1  UNL1        0.0933
      3 N           7.4821   -2.4085   30.7829 N.3     1  UNL1       -0.2711
      4 C           7.0278   -3.7469   30.2806 C.3     1  UNL1        0.0933
      5 C           7.4939   -1.7248   32.1179 C.3     1  UNL1        0.0578
      6 C           8.7664   -1.6442   32.9080 C.3     1  UNL1        0.0187
      7 C           8.7782   -0.9605   34.2431 C.3     1  UNL1        0.0326
      8 C           7.5175   -0.3574   34.7881 C.3     1  UNL1        0.1085
      9 O           8.4667   -0.0276   35.9017 O.3     1  UNL1       -0.3826
     10 C           6.2451   -0.4380   33.9979 C.3     1  UNL1        0.0326
     11 C           6.2332   -1.1216   32.6629 C.3     1  UNL1        0.0187
     12 H           9.3497   -0.3653   35.6847 H       1  UNL1        0.2107
     13 C           6.5865    0.3603   35.7198 C.ar    1  UNL1        0.0211
     14 C           5.2748   -0.2625   36.0961 C.ar    1  UNL1        0.0043
     15 C           4.3437    0.4552   37.0278 C.ar    1  UNL1        0.0575
     16 C           4.7244    1.7956   37.5832 C.ar    1  UNL1        0.2247
     17 N           6.0360    2.4183   37.2069 N.ar    1  UNL1       -0.2104
     18 C           6.9672    1.7007   36.2751 C.ar    1  UNL1        0.1000
     19 O           3.7933    2.5132   38.5149 O.3     1  UNL1       -0.4640
     20 C           2.4598    1.9143   38.8511 C.3     1  UNL1        0.1676
     21 C           1.9821    0.5542   39.2658 C.3     1  UNL1        0.0437
     22 C           0.5739    1.0672   39.3266 C.3     1  UNL1        0.0074
     23 C           1.0516    2.4273   38.9119 C.3     1  UNL1        0.0437
     24 O           5.7952   -2.2730   26.6597 O.2     1  UNL1       -0.2733
     25 C           6.6185   -3.5079   26.4422 C.2     1  UNL1        0.2426
     26 N           7.4535   -4.0591   27.5596 N.am    1  UNL1       -0.3018
     27 H           7.9939   -4.8695   27.4168 H       1  UNL1        0.1495
     28 C           6.6067   -4.1916   25.1071 C.3     1  UNL1        0.1759
     29 N           5.6946   -3.7017   24.0216 N.am    1  UNL1       -0.2931
     30 C           6.0423   -3.9455   22.5830 C.2     1  UNL1        0.2462
     31 O           7.3021   -4.6792   22.2298 O.2     1  UNL1       -0.2701
     32 H           4.8678   -3.2202   24.2534 H       1  UNL1        0.1502
     33 C           5.1302   -3.4556   21.4975 C.ar    1  UNL1        0.0533
     34 C           5.2164   -4.0470   20.1218 C.ar    1  UNL1        0.0045
     35 C           4.3044   -3.5572   19.0364 C.ar    1  UNL1        0.0001
     36 C           3.3061   -2.4759   19.3267 C.ar    1  UNL1        0.0039
     37 C           3.2199   -1.8845   20.7025 C.ar    1  UNL1        0.0716
     38 C           4.1319   -2.3744   21.7879 C.ar    1  UNL1        0.0084
     39 C           2.2216   -0.8032   20.9928 C.3     1  UNL1        0.4186
     40 F           1.2234    0.2780   21.2832 F       1  UNL1       -0.1659
     41 F           1.7308   -0.8762   19.5773 F       1  UNL1       -0.1659
     42 F           2.7124   -0.7302   22.4084 F       1  UNL1       -0.1659
@<TRIPOS>BOND
     1    24    25    2
     2    25    28    1
     3    28    29    1
     4    29    30   am
     5    30    31    2
     6    30    33    1
     7    33    34   ar
     8    34    35   ar
     9    35    36   ar
    10    36    37   ar
    11    37    39    1
    12    39    40    1
    13    39    41    1
    14    39    42    1
    15    37    38   ar
    16    25    26   am
    17    26     1    1
    18     1     2    1
    19     2     3    1
    20     5     3    1
    21     5     6    1
    22     6     7    1
    23     7     8    1
    24     8     9    1
    25     8    13    1
    26    13    14   ar
    27    14    15   ar
    28    15    16   ar
    29    16    19    1
    30    19    20    1
    31    20    21    1
    32    21    22    1
    33    22    23    1
    34    16    17   ar
    35    17    18   ar
    36     8    10    1
    37    10    11    1
    38     3     4    1
    39    38    33   ar
    40     4     1    1
    41    11     5    1
    42    18    13   ar
    43    23    20    1
    44    29    32    1
    45    26    27    1
    46     9    12    1
@<TRIPOS>MOLECULE
*****
 42 46 0 0 0
SMALL
GASTEIGER

@<TRIPOS>ATOM
      1 C           2.0437    2.1375   26.0196 C.3     1  UNL1        0.1035
      2 C           1.6782    1.0664   27.0040 C.3     1  UNL1        0.0933
      3 N           2.1391    1.9438   28.1300 N.3     1  UNL1       -0.2711
      4 C           2.5046    3.0150   27.1456 C.3     1  UNL1        0.0933
      5 C           2.2066    1.8068   29.6221 C.3     1  UNL1        0.0578
      6 C           1.0818    2.3164   30.4737 C.3     1  UNL1        0.0187
      7 C           1.1493    2.1794   31.9659 C.3     1  UNL1        0.0326
      8 C           2.3415    1.5327   32.6066 C.3     1  UNL1        0.1085
      9 O           1.5334    1.8569   33.8279 O.3     1  UNL1       -0.3826
     10 C           3.4663    1.0231   31.7550 C.3     1  UNL1        0.0326
     11 C           3.3988    1.1601   30.2628 C.3     1  UNL1        0.0187
     12 H           0.7079    2.2923   33.5632 H       1  UNL1        0.2107
     13 C           3.2531    0.9986   33.6713 C.ar    1  UNL1        0.0211
     14 C           3.9096   -0.3385   33.4951 C.ar    1  UNL1        0.0043
     15 C           4.8212   -0.8726   34.5599 C.ar    1  UNL1        0.0575
     16 C           5.0762   -0.0695   35.8009 C.ar    1  UNL1        0.2247
     17 N           4.4197    1.2675   35.9772 N.ar    1  UNL1       -0.2104
     18 C           3.5081    1.8017   34.9124 C.ar    1  UNL1        0.1000
     19 O           5.9878   -0.6037   36.8656 O.3     1  UNL1       -0.4640
     20 C           7.4558   -0.2994   36.8182 C.3     1  UNL1        0.1676
     21 C           8.6257   -0.5754   37.7155 C.3     1  UNL1        0.0437
     22 C           9.5320    0.1309   36.7512 C.3     1  UNL1        0.0074
     23 C           8.3621    0.4068   35.8539 C.3     1  UNL1        0.0437
     24 O          -0.6159    2.1335   24.6316 O.2     1  UNL1       -0.2733
     25 C           0.6465    2.2725   23.8334 C.2     1  UNL1        0.2426
     26 N           1.9763    2.2745   24.5274 N.am    1  UNL1       -0.3018
     27 H           2.8048    2.3657   24.0035 H       1  UNL1        0.1495
     28 C           0.5791    2.4095   22.3412 C.3     1  UNL1        0.1759
     29 N           1.5891    1.7134   21.4778 N.am    1  UNL1       -0.2931
     30 C           1.1755    0.5450   20.6329 C.2     1  UNL1        0.2462
     31 O          -0.2481    0.0726   20.6515 O.2     1  UNL1       -0.2701
     32 H           2.5234    2.0234   21.4656 H       1  UNL1        0.1502
     33 C           2.1855   -0.1510   19.7695 C.ar    1  UNL1        0.0533
     34 C           2.8250    0.5792   18.6259 C.ar    1  UNL1        0.0045
     35 C           3.8349   -0.1168   17.7625 C.ar    1  UNL1        0.0001
     36 C           4.2053   -1.5431   18.0427 C.ar    1  UNL1        0.0039
     37 C           3.5658   -2.2734   19.1862 C.ar    1  UNL1        0.0716
     38 C           2.5559   -1.5773   20.0496 C.ar    1  UNL1        0.0084
     39 C           3.9362   -3.6997   19.4663 C.3     1  UNL1        0.4186
     40 F           4.3066   -5.1260   19.7464 F       1  UNL1       -0.1659
     41 F           5.2961   -3.2575   19.9195 F       1  UNL1       -0.1659
     42 F           2.5764   -4.1418   19.0132 F       1  UNL1       -0.1659
@<TRIPOS>BOND
     1    24    25    2
     2    25    28    1
     3    28    29    1
     4    29    30   am
     5    30    31    2
     6    30    33    1
     7    33    34   ar
     8    34    35   ar
     9    35    36   ar
    10    36    37   ar
    11    37    39    1
    12    39    40    1
    13    39    41    1
    14    39    42    1
    15    37    38   ar
    16    25    26   am
    17    26     1    1
    18     1     2    1
    19     2     3    1
    20     5     3    1
    21     5     6    1
    22     6     7    1
    23     7     8    1
    24     8     9    1
    25     8    13    1
    26    13    14   ar
    27    14    15   ar
    28    15    16   ar
    29    16    19    1
    30    19    20    1
    31    20    21    1
    32    21    22    1
    33    22    23    1
    34    16    17   ar
    35    17    18   ar
    36     8    10    1
    37    10    11    1
    38     3     4    1
    39    38    33   ar
    40     4     1    1
    41    11     5    1
    42    18    13   ar
    43    23    20    1
    44    29    32    1
    45    26    27    1
    46     9    12    1
@<TRIPOS>MOLECULE
*****
 42 46 0 0 0
SMALL
GASTEIGER

@<TRIPOS>ATOM
      1 C           7.1231   -1.4476   30.1470 C.3     1  UNL1        0.1035
      2 C           8.1174   -1.7763   29.0730 C.3     1  UNL1        0.0933
      3 N           7.0137   -2.3279   28.2201 N.3     1  UNL1       -0.2711
      4 C           6.0194   -1.9993   29.2940 C.3     1  UNL1        0.0933
      5 C           6.9363   -2.9503   26.8575 C.3     1  UNL1        0.0578
      6 C           7.5718   -4.2856   26.6057 C.3     1  UNL1        0.0187
      7 C           7.4944   -4.9080   25.2431 C.3     1  UNL1        0.0326
      8 C           6.7815   -4.1952   24.1324 C.3     1  UNL1        0.1085
      9 O           7.2226   -5.4320   23.4074 O.3     1  UNL1       -0.3826
     10 C           6.1461   -2.8600   24.3842 C.3     1  UNL1        0.0326
     11 C           6.2234   -2.2376   25.7467 C.3     1  UNL1        0.0187
     12 H           7.7116   -6.0069   24.0167 H       1  UNL1        0.2107
     13 C           6.2219   -3.9120   22.7698 C.ar    1  UNL1        0.0211
     14 C           7.1277   -3.9017   21.5742 C.ar    1  UNL1        0.0043
     15 C           6.5681   -3.6185   20.2117 C.ar    1  UNL1        0.0575
     16 C           5.1025   -3.3455   20.0447 C.ar    1  UNL1        0.2247
     17 N           4.1968   -3.3557   21.2402 N.ar    1  UNL1       -0.2104
     18 C           4.7564   -3.6390   22.6029 C.ar    1  UNL1        0.1000
     19 O           4.5430   -3.0622   18.6822 O.3     1  UNL1       -0.4640
     20 C           3.9882   -1.7049   18.3664 C.3     1  UNL1        0.1676
     21 C           3.0745   -0.7434   19.0669 C.3     1  UNL1        0.0437
     22 C           3.2034    0.2148   17.9200 C.3     1  UNL1        0.0074
     23 C           4.1171   -0.7468   17.2195 C.3     1  UNL1        0.0437
     24 O           6.0049   -2.8968   32.5239 O.2     1  UNL1       -0.2733
     25 C           6.6414   -1.5497   32.6980 C.2     1  UNL1        0.2426
     26 N           7.2005   -0.8252   31.5096 N.am    1  UNL1       -0.3018
     27 H           7.6183    0.0590   31.6239 H       1  UNL1        0.1495
     28 C           6.7189   -0.9272   34.0605 C.3     1  UNL1        0.1759
     29 N           5.6494    0.0221   34.5133 N.am    1  UNL1       -0.2931
     30 C           5.3969    0.2241   35.9780 C.2     1  UNL1        0.2462
     31 O           6.2138   -0.5231   36.9900 O.2     1  UNL1       -0.2701
     32 H           5.1131    0.5126   33.8491 H       1  UNL1        0.1502
     33 C           4.3273    1.1735   36.4308 C.ar    1  UNL1        0.0533
     34 C           4.1362    2.4814   35.7217 C.ar    1  UNL1        0.0045
     35 C           3.0667    3.4306   36.1745 C.ar    1  UNL1        0.0001
     36 C           2.1884    3.0720   37.3363 C.ar    1  UNL1        0.0039
     37 C           2.3795    1.7641   38.0454 C.ar    1  UNL1        0.0716
     38 C           3.4490    0.8149   37.5927 C.ar    1  UNL1        0.0084
     39 C           1.5012    1.4055   39.2073 C.3     1  UNL1        0.4186
     40 F           0.6229    1.0469   40.3692 F       1  UNL1       -0.1659
     41 F           1.7261   -0.0509   38.9278 F       1  UNL1       -0.1659
     42 F           1.2763    2.8620   39.4868 F       1  UNL1       -0.1659
@<TRIPOS>BOND
     1    24    25    2
     2    25    28    1
     3    28    29    1
     4    29    30   am
     5    30    31    2
     6    30    33    1
     7    33    34   ar
     8    34    35   ar
     9    35    36   ar
    10    36    37   ar
    11    37    39    1
    12    39    40    1
    13    39    41    1
    14    39    42    1
    15    37    38   ar
    16    25    26   am
    17    26     1    1
    18     1     2    1
    19     2     3    1
    20     5     3    1
    21     5     6    1
    22     6     7    1
    23     7     8    1
    24     8     9    1
    25     8    13    1
    26    13    14   ar
    27    14    15   ar
    28    15    16   ar
    29    16    19    1
    30    19    20    1
    31    20    21    1
    32    21    22    1
    33    22    23    1
    34    16    17   ar
    35    17    18   ar
    36     8    10    1
    37    10    11    1
    38     3     4    1
    39    38    33   ar
    40     4     1    1
    41    11     5    1
    42    18    13   ar
    43    23    20    1
    44    29    32    1
    45    26    27    1
    46     9    12    1
