@<TRIPOS>MOLECULE
*****
 24 26 0 0 0
SMALL
GASTEIGER

@<TRIPOS>ATOM
      1 C          -6.4765  -20.1761   20.6425 C.ar    1  UNL1        0.1453
      2 C          -6.9013  -19.9698   22.0663 C.ar    1  UNL1        0.0376
      3 C          -8.2800  -19.4640   22.3718 C.ar    1  UNL1        0.0063
      4 C          -9.2339  -19.1644   21.2537 C.ar    1  UNL1        0.0395
      5 C          -8.8092  -19.3707   19.8300 C.ar    1  UNL1        0.0063
      6 C          -7.4305  -19.8766   19.5243 C.ar    1  UNL1        0.0376
      7 C         -10.6126  -18.6586   21.5593 C.ar    1  UNL1        0.2058
      8 N         -11.5258  -17.9539   20.6004 N.ar    1  UNL1       -0.1077
      9 N         -12.7978  -17.6284   21.3259 N.ar    1  UNL1       -0.0450
     10 N         -12.6706  -18.1320   22.7331 N.ar    1  UNL1       -0.1495
     11 N         -11.3201  -18.7687   22.8773 N.ar    1  UNL1       -0.1297
     12 C         -13.7112  -18.0188   23.8074 C.3     1  UNL1        0.1681
     13 C         -13.4732  -18.6420   25.1509 C.3     1  UNL1        0.0938
     14 N         -14.5636  -18.6435   26.1809 N.3     1  UNL1       -0.3194
     15 H         -14.7597  -17.6851   26.4697 H       1  UNL1        0.1189
     16 H         -14.2661  -19.1884   26.9902 H       1  UNL1        0.1189
     17 O          -5.0979  -20.6819   20.3370 O.3     1  UNL1       -0.4535
     18 C          -0.4440  -16.8949   20.3392 C.3     1  UNL1        0.0310
     19 C          -1.6074  -17.8417   20.3386 C.ar    1  UNL1       -0.0217
     20 C          -1.8288  -18.7586   21.5049 C.ar    1  UNL1       -0.0011
     21 C          -2.9922  -19.7054   21.5043 C.ar    1  UNL1        0.0372
     22 C          -3.9344  -19.7352   20.3375 C.ar    1  UNL1        0.1453
     23 C          -3.7130  -18.8182   19.1713 C.ar    1  UNL1        0.0372
     24 C          -2.5496  -17.8715   19.1718 C.ar    1  UNL1       -0.0011
@<TRIPOS>BOND
     1    18    19    1
     2    19    20   ar
     3    20    21   ar
     4    21    22   ar
     5    22    17    1
     6    17     1    1
     7     1     2   ar
     8     2     3   ar
     9     3     4   ar
    10     4     7    1
    11     7     8   ar
    12     8     9   ar
    13     9    10   ar
    14    10    12    1
    15    12    13    1
    16    13    14    1
    17    10    11   ar
    18     4     5   ar
    19     5     6   ar
    20    22    23   ar
    21    23    24   ar
    22    24    19   ar
    23     6     1   ar
    24    11     7   ar
    25    14    15    1
    26    14    16    1
@<TRIPOS>MOLECULE
*****
 24 26 0 0 0
SMALL
GASTEIGER

@<TRIPOS>ATOM
      1 C          -5.4835  -17.0742   23.5156 C.ar    1  UNL1        0.1453
      2 C          -6.3205  -16.0227   24.1819 C.ar    1  UNL1        0.0376
      3 C          -7.7939  -15.9533   23.9099 C.ar    1  UNL1        0.0063
      4 C          -8.4305  -16.9353   22.9715 C.ar    1  UNL1        0.0395
      5 C          -7.5936  -17.9867   22.3053 C.ar    1  UNL1        0.0063
      6 C          -6.1200  -18.0562   22.5773 C.ar    1  UNL1        0.0376
      7 C          -9.9040  -16.8659   22.6995 C.ar    1  UNL1        0.2058
      8 N         -10.5632  -16.0700   21.6123 N.ar    1  UNL1       -0.1077
      9 N         -12.0437  -16.2923   21.7078 N.ar    1  UNL1       -0.0450
     10 N         -12.2993  -17.2255   22.8541 N.ar    1  UNL1       -0.1495
     11 N         -10.9769  -17.5799   23.4670 N.ar    1  UNL1       -0.1297
     12 C         -13.6415  -17.7178   23.3077 C.3     1  UNL1        0.1681
     13 C         -13.8053  -18.2866   24.6860 C.3     1  UNL1        0.0938
     14 N         -15.1743  -18.6115   25.2055 N.3     1  UNL1       -0.3194
     15 H         -15.7110  -17.7506   25.3114 H       1  UNL1        0.1189
     16 H         -15.0934  -19.0751   26.1105 H       1  UNL1        0.1189
     17 O          -4.0100  -17.1436   23.7876 O.3     1  UNL1       -0.4535
     18 C          -0.1729  -18.1567   19.2876 C.3     1  UNL1        0.0310
     19 C          -1.1322  -17.9035   20.4126 C.ar    1  UNL1       -0.0217
     20 C          -1.8359  -19.0527   21.0713 C.ar    1  UNL1       -0.0011
     21 C          -2.7951  -18.7994   22.1963 C.ar    1  UNL1        0.0372
     22 C          -3.0507  -17.3969   22.6626 C.ar    1  UNL1        0.1453
     23 C          -2.3470  -16.2476   22.0039 C.ar    1  UNL1        0.0372
     24 C          -1.3878  -16.5009   20.8789 C.ar    1  UNL1       -0.0011
@<TRIPOS>BOND
     1    18    19    1
     2    19    20   ar
     3    20    21   ar
     4    21    22   ar
     5    22    17    1
     6    17     1    1
     7     1     2   ar
     8     2     3   ar
     9     3     4   ar
    10     4     7    1
    11     7     8   ar
    12     8     9   ar
    13     9    10   ar
    14    10    12    1
    15    12    13    1
    16    13    14    1
    17    10    11   ar
    18     4     5   ar
    19     5     6   ar
    20    22    23   ar
    21    23    24   ar
    22    24    19   ar
    23     6     1   ar
    24    11     7   ar
    25    14    15    1
    26    14    16    1
@<TRIPOS>MOLECULE
*****
 24 26 0 0 0
SMALL
GASTEIGER

@<TRIPOS>ATOM
      1 C          -5.8223  -20.2837   20.4805 C.ar    1  UNL1        0.1453
      2 C          -6.9531  -19.5933   19.7772 C.ar    1  UNL1        0.0376
      3 C          -8.2187  -19.2807   20.5192 C.ar    1  UNL1        0.0063
      4 C          -8.3535  -19.6584   21.9645 C.ar    1  UNL1        0.0395
      5 C          -7.2228  -20.3488   22.6679 C.ar    1  UNL1        0.0063
      6 C          -5.9571  -20.6615   21.9259 C.ar    1  UNL1        0.0376
      7 C          -9.6191  -19.3457   22.7065 C.ar    1  UNL1        0.2058
      8 N         -10.0253  -19.9124   24.0347 N.ar    1  UNL1       -0.1077
      9 N         -11.3580  -19.3284   24.3997 N.ar    1  UNL1       -0.0450
     10 N         -11.7753  -18.4009   23.2970 N.ar    1  UNL1       -0.1495
     11 N         -10.7006  -18.4117   22.2507 N.ar    1  UNL1       -0.1297
     12 C         -13.0444  -17.6029   23.2492 C.3     1  UNL1        0.1681
     13 C         -13.0259  -16.1946   22.7330 C.3     1  UNL1        0.0938
     14 N         -11.7194  -15.4841   22.5385 N.3     1  UNL1       -0.3194
     15 H         -11.2728  -15.3397   23.4441 H       1  UNL1        0.1189
     16 H         -11.8861  -14.5814   22.0938 H       1  UNL1        0.1189
     17 O          -4.5568  -20.5964   19.7385 O.3     1  UNL1       -0.4535
     18 C           0.1719  -16.9315   20.1949 C.3     1  UNL1        0.0310
     19 C          -1.0102  -17.8477   20.0808 C.ar    1  UNL1       -0.0217
     20 C          -1.8335  -17.8572   18.8270 C.ar    1  UNL1       -0.0011
     21 C          -3.0157  -18.7734   18.7129 C.ar    1  UNL1        0.0372
     22 C          -3.3746  -19.6802   19.8526 C.ar    1  UNL1        0.1453
     23 C          -2.5513  -19.6707   21.1064 C.ar    1  UNL1        0.0372
     24 C          -1.3691  -18.7545   21.2205 C.ar    1  UNL1       -0.0011
@<TRIPOS>BOND
     1    18    19    1
     2    19    20   ar
     3    20    21   ar
     4    21    22   ar
     5    22    17    1
     6    17     1    1
     7     1     2   ar
     8     2     3   ar
     9     3     4   ar
    10     4     7    1
    11     7     8   ar
    12     8     9   ar
    13     9    10   ar
    14    10    12    1
    15    12    13    1
    16    13    14    1
    17    10    11   ar
    18     4     5   ar
    19     5     6   ar
    20    22    23   ar
    21    23    24   ar
    22    24    19   ar
    23     6     1   ar
    24    11     7   ar
    25    14    15    1
    26    14    16    1
@<TRIPOS>MOLECULE
*****
 24 26 0 0 0
SMALL
GASTEIGER

@<TRIPOS>ATOM
      1 C          -5.3709  -19.1593   22.5779 C.ar    1  UNL1        0.1453
      2 C          -5.8569  -17.7975   22.9772 C.ar    1  UNL1        0.0376
      3 C          -7.2967  -17.4268   22.7782 C.ar    1  UNL1        0.0063
      4 C          -8.2505  -18.4179   22.1798 C.ar    1  UNL1        0.0395
      5 C          -7.7645  -19.7796   21.7805 C.ar    1  UNL1        0.0063
      6 C          -6.3247  -20.1503   21.9795 C.ar    1  UNL1        0.0376
      7 C          -9.6903  -18.0472   21.9808 C.ar    1  UNL1        0.2058
      8 N         -10.8558  -18.5932   22.7512 N.ar    1  UNL1       -0.1077
      9 N         -12.1033  -17.9489   22.2230 N.ar    1  UNL1       -0.0450
     10 N         -11.7086  -17.0048   21.1262 N.ar    1  UNL1       -0.1495
     11 N         -10.2173  -17.0655   20.9766 N.ar    1  UNL1       -0.1297
     12 C         -12.6414  -16.1500   20.3206 C.3     1  UNL1        0.1681
     13 C         -12.1737  -15.5353   19.0347 C.3     1  UNL1        0.0938
     14 N         -10.7719  -15.0146   18.9185 N.3     1  UNL1       -0.3194
     15 H         -10.6529  -14.2164   19.5423 H       1  UNL1        0.1189
     16 H         -10.5959  -14.7237   17.9568 H       1  UNL1        0.1189
     17 O          -3.9311  -19.5299   22.7769 O.3     1  UNL1       -0.4535
     18 C           0.3503  -16.7171   19.6532 C.3     1  UNL1        0.0310
     19 C          -0.7200  -17.4203   20.4341 C.ar    1  UNL1       -0.0217
     20 C          -1.4359  -16.7027   21.5398 C.ar    1  UNL1       -0.0011
     21 C          -2.5062  -17.4059   22.3207 C.ar    1  UNL1        0.0372
     22 C          -2.8608  -18.8267   21.9960 C.ar    1  UNL1        0.1453
     23 C          -2.1449  -19.5443   20.8903 C.ar    1  UNL1        0.0372
     24 C          -1.0746  -18.8411   20.1094 C.ar    1  UNL1       -0.0011
@<TRIPOS>BOND
     1    18    19    1
     2    19    20   ar
     3    20    21   ar
     4    21    22   ar
     5    22    17    1
     6    17     1    1
     7     1     2   ar
     8     2     3   ar
     9     3     4   ar
    10     4     7    1
    11     7     8   ar
    12     8     9   ar
    13     9    10   ar
    14    10    12    1
    15    12    13    1
    16    13    14    1
    17    10    11   ar
    18     4     5   ar
    19     5     6   ar
    20    22    23   ar
    21    23    24   ar
    22    24    19   ar
    23     6     1   ar
    24    11     7   ar
    25    14    15    1
    26    14    16    1
@<TRIPOS>MOLECULE
*****
 24 26 0 0 0
SMALL
GASTEIGER

@<TRIPOS>ATOM
      1 C         -12.6925   -1.7292   18.4995 C.ar    1  UNL1        0.1453
      2 C         -13.4183   -2.6086   19.4743 C.ar    1  UNL1        0.0376
      3 C         -14.7475   -2.1823   20.0233 C.ar    1  UNL1        0.0063
      4 C         -15.3510   -0.8767   19.5976 C.ar    1  UNL1        0.0395
      5 C         -14.6253    0.0026   18.6229 C.ar    1  UNL1        0.0063
      6 C         -13.2961   -0.4236   18.0738 C.ar    1  UNL1        0.0376
      7 C         -16.6803   -0.4505   20.1467 C.ar    1  UNL1        0.2058
      8 N         -17.9566   -1.2352   20.0746 N.ar    1  UNL1       -0.1077
      9 N         -19.0317   -0.4344   20.7476 N.ar    1  UNL1       -0.0450
     10 N         -18.4198    0.8452   21.2357 N.ar    1  UNL1       -0.1495
     11 N         -16.9665    0.8353   20.8643 N.ar    1  UNL1       -0.1297
     12 C         -19.1354    1.9421   21.9668 C.3     1  UNL1        0.1681
     13 C         -18.4007    2.7753   22.9748 C.3     1  UNL1        0.0938
     14 N         -17.5116    2.1167   23.9874 N.3     1  UNL1       -0.3194
     15 H         -18.0769    1.5468   24.6167 H       1  UNL1        0.1189
     16 H         -17.0205    2.8313   24.5246 H       1  UNL1        0.1189
     17 O         -11.3634   -2.1555   17.9504 O.3     1  UNL1       -0.4535
     18 C          -9.6862   -7.9069   18.2799 C.3     1  UNL1        0.0310
     19 C         -10.1055   -6.4690   18.1975 C.ar    1  UNL1       -0.0217
     20 C         -11.0674   -6.0280   17.1344 C.ar    1  UNL1       -0.0011
     21 C         -11.4867   -4.5902   17.0521 C.ar    1  UNL1        0.0372
     22 C         -10.9441   -3.5933   18.0328 C.ar    1  UNL1        0.1453
     23 C          -9.9822   -4.0344   19.0959 C.ar    1  UNL1        0.0372
     24 C          -9.5629   -5.4722   19.1783 C.ar    1  UNL1       -0.0011
@<TRIPOS>BOND
     1    18    19    1
     2    19    20   ar
     3    20    21   ar
     4    21    22   ar
     5    22    17    1
     6    17     1    1
     7     1     2   ar
     8     2     3   ar
     9     3     4   ar
    10     4     7    1
    11     7     8   ar
    12     8     9   ar
    13     9    10   ar
    14    10    12    1
    15    12    13    1
    16    13    14    1
    17    10    11   ar
    18     4     5   ar
    19     5     6   ar
    20    22    23   ar
    21    23    24   ar
    22    24    19   ar
    23     6     1   ar
    24    11     7   ar
    25    14    15    1
    26    14    16    1
@<TRIPOS>MOLECULE
*****
 24 26 0 0 0
SMALL
GASTEIGER

@<TRIPOS>ATOM
      1 C          -0.0648    2.6227   20.1839 C.ar    1  UNL1        0.1453
      2 C          -0.1249    1.1686   20.5474 C.ar    1  UNL1        0.0376
      3 C           0.8822    0.2118   19.9816 C.ar    1  UNL1        0.0063
      4 C           1.9494    0.7091   19.0522 C.ar    1  UNL1        0.0395
      5 C           2.0095    2.1631   18.6886 C.ar    1  UNL1        0.0063
      6 C           1.0024    3.1199   19.2545 C.ar    1  UNL1        0.0376
      7 C           2.9566   -0.2478   18.4863 C.ar    1  UNL1        0.2058
      8 N           3.5839   -0.1653   17.1262 N.ar    1  UNL1       -0.1077
      9 N           4.5282   -1.3216   16.9805 N.ar    1  UNL1       -0.0450
     10 N           4.4845   -2.1187   18.2505 N.ar    1  UNL1       -0.1495
     11 N           3.5132   -1.4550   19.1811 N.ar    1  UNL1       -0.1297
     12 C           5.2735   -3.3612   18.5391 C.3     1  UNL1        0.1681
     13 C           4.5635   -4.6515   18.8238 C.3     1  UNL1        0.0938
     14 N           3.0659   -4.6819   18.9030 N.3     1  UNL1       -0.3194
     15 H           2.7569   -4.1360   19.7073 H       1  UNL1        0.1189
     16 H           2.7504   -5.6464   19.0052 H       1  UNL1        0.1189
     17 O          -1.0719    3.5795   20.7498 O.3     1  UNL1       -0.4535
     18 C          -6.7305    3.5058   18.7559 C.3     1  UNL1        0.0310
     19 C          -5.3158    3.5242   19.2543 C.ar    1  UNL1       -0.0217
     20 C          -5.0245    3.2266   20.6953 C.ar    1  UNL1       -0.0011
     21 C          -3.6098    3.2450   21.1938 C.ar    1  UNL1        0.0372
     22 C          -2.4866    3.5611   20.2513 C.ar    1  UNL1        0.1453
     23 C          -2.7779    3.8587   18.8103 C.ar    1  UNL1        0.0372
     24 C          -4.1926    3.8403   18.3118 C.ar    1  UNL1       -0.0011
@<TRIPOS>BOND
     1    18    19    1
     2    19    20   ar
     3    20    21   ar
     4    21    22   ar
     5    22    17    1
     6    17     1    1
     7     1     2   ar
     8     2     3   ar
     9     3     4   ar
    10     4     7    1
    11     7     8   ar
    12     8     9   ar
    13     9    10   ar
    14    10    12    1
    15    12    13    1
    16    13    14    1
    17    10    11   ar
    18     4     5   ar
    19     5     6   ar
    20    22    23   ar
    21    23    24   ar
    22    24    19   ar
    23     6     1   ar
    24    11     7   ar
    25    14    15    1
    26    14    16    1
@<TRIPOS>MOLECULE
*****
 24 26 0 0 0
SMALL
GASTEIGER

@<TRIPOS>ATOM
      1 C           2.5043   -1.2300   20.2658 C.ar    1  UNL1        0.1453
      2 C           2.7447   -0.8704   21.7021 C.ar    1  UNL1        0.0376
      3 C           3.7354   -1.6502   22.5148 C.ar    1  UNL1        0.0063
      4 C           4.4857   -2.7896   21.8913 C.ar    1  UNL1        0.0395
      5 C           4.2453   -3.1492   20.4550 C.ar    1  UNL1        0.0063
      6 C           3.2546   -2.3694   19.6423 C.ar    1  UNL1        0.0376
      7 C           5.4764   -3.5694   22.7040 C.ar    1  UNL1        0.2058
      8 N           6.5145   -4.5083   22.1648 N.ar    1  UNL1       -0.1077
      9 N           7.2827   -5.0663   23.3262 N.ar    1  UNL1       -0.0450
     10 N           6.7192   -4.4722   24.5830 N.ar    1  UNL1       -0.1495
     11 N           5.6029   -3.5471   24.1985 N.ar    1  UNL1       -0.1297
     12 C           7.1895   -4.7539   25.9792 C.3     1  UNL1        0.1681
     13 C           6.6582   -5.9425   26.7242 C.3     1  UNL1        0.0938
     14 N           5.6091   -5.7582   27.7802 N.3     1  UNL1       -0.3194
     15 H           6.0004   -5.2293   28.5596 H       1  UNL1        0.1189
     16 H           5.2963   -6.6708   28.1116 H       1  UNL1        0.1189
     17 O           1.5136   -0.4503   19.4532 O.3     1  UNL1       -0.4535
     18 C           2.8101    5.1390   17.6984 C.3     1  UNL1        0.0310
     19 C           2.4859    3.7417   18.1371 C.ar    1  UNL1       -0.0217
     20 C           1.0563    3.3241   18.3152 C.ar    1  UNL1       -0.0011
     21 C           0.7322    1.9268   18.7539 C.ar    1  UNL1        0.0372
     22 C           1.8377    0.9471   19.0145 C.ar    1  UNL1        0.1453
     23 C           3.2673    1.3646   18.8363 C.ar    1  UNL1        0.0372
     24 C           3.5914    2.7620   18.3977 C.ar    1  UNL1       -0.0011
@<TRIPOS>BOND
     1    18    19    1
     2    19    20   ar
     3    20    21   ar
     4    21    22   ar
     5    22    17    1
     6    17     1    1
     7     1     2   ar
     8     2     3   ar
     9     3     4   ar
    10     4     7    1
    11     7     8   ar
    12     8     9   ar
    13     9    10   ar
    14    10    12    1
    15    12    13    1
    16    13    14    1
    17    10    11   ar
    18     4     5   ar
    19     5     6   ar
    20    22    23   ar
    21    23    24   ar
    22    24    19   ar
    23     6     1   ar
    24    11     7   ar
    25    14    15    1
    26    14    16    1
@<TRIPOS>MOLECULE
*****
 24 26 0 0 0
SMALL
GASTEIGER

@<TRIPOS>ATOM
      1 C         -15.5387   -0.1616   19.1474 C.ar    1  UNL1        0.1453
      2 C         -14.1509   -0.1461   18.5782 C.ar    1  UNL1        0.0376
      3 C         -13.3212   -1.3956   18.5908 C.ar    1  UNL1        0.0063
      4 C         -13.8791   -2.6606   19.1726 C.ar    1  UNL1        0.0395
      5 C         -15.2668   -2.6762   19.7418 C.ar    1  UNL1        0.0063
      6 C         -16.0966   -1.4266   19.7292 C.ar    1  UNL1        0.0376
      7 C         -13.0492   -3.9102   19.1851 C.ar    1  UNL1        0.2058
      8 N         -13.5432   -5.2935   19.4891 N.ar    1  UNL1       -0.1077
      9 N         -12.3790   -6.2341   19.3878 N.ar    1  UNL1       -0.0450
     10 N         -11.1656   -5.4319   19.0212 N.ar    1  UNL1       -0.1495
     11 N         -11.5799   -3.9957   18.8959 N.ar    1  UNL1       -0.1297
     12 C          -9.7812   -5.9713   18.8159 C.3     1  UNL1        0.1681
     13 C          -9.5055   -7.4304   19.0281 C.3     1  UNL1        0.0938
     14 N          -9.9722   -8.4365   18.0183 N.3     1  UNL1       -0.3194
     15 H         -10.9919   -8.4559   18.0039 H       1  UNL1        0.1189
     16 H          -9.6181   -9.3596   18.2694 H       1  UNL1        0.1189
     17 O         -16.3685    1.0879   19.1348 O.3     1  UNL1       -0.4535
     18 C         -16.7011    4.5179   24.0465 C.3     1  UNL1        0.0310
     19 C         -16.6180    3.6604   22.8186 C.ar    1  UNL1       -0.0217
     20 C         -17.3199    2.3354   22.7801 C.ar    1  UNL1       -0.0011
     21 C         -17.2368    1.4779   21.5522 C.ar    1  UNL1        0.0372
     22 C         -16.4516    1.9454   20.3627 C.ar    1  UNL1        0.1453
     23 C         -15.7497    3.2704   20.4011 C.ar    1  UNL1        0.0372
     24 C         -15.8328    4.1279   21.6291 C.ar    1  UNL1       -0.0011
@<TRIPOS>BOND
     1    18    19    1
     2    19    20   ar
     3    20    21   ar
     4    21    22   ar
     5    22    17    1
     6    17     1    1
     7     1     2   ar
     8     2     3   ar
     9     3     4   ar
    10     4     7    1
    11     7     8   ar
    12     8     9   ar
    13     9    10   ar
    14    10    12    1
    15    12    13    1
    16    13    14    1
    17    10    11   ar
    18     4     5   ar
    19     5     6   ar
    20    22    23   ar
    21    23    24   ar
    22    24    19   ar
    23     6     1   ar
    24    11     7   ar
    25    14    15    1
    26    14    16    1
@<TRIPOS>MOLECULE
*****
 24 26 0 0 0
SMALL
GASTEIGER

@<TRIPOS>ATOM
      1 C           5.3264   -3.5364   20.4546 C.ar    1  UNL1        0.1453
      2 C           4.5676   -3.6473   21.7438 C.ar    1  UNL1        0.0376
      3 C           5.3038   -3.8802   23.0298 C.ar    1  UNL1        0.0063
      4 C           6.7988   -4.0021   23.0266 C.ar    1  UNL1        0.0395
      5 C           7.5576   -3.8913   21.7375 C.ar    1  UNL1        0.0063
      6 C           6.8214   -3.6584   20.4514 C.ar    1  UNL1        0.0376
      7 C           7.5350   -4.2350   24.3126 C.ar    1  UNL1        0.2058
      8 N           9.0148   -4.4331   24.4579 N.ar    1  UNL1       -0.1077
      9 N           9.3151   -4.6312   25.9142 N.ar    1  UNL1       -0.0450
     10 N           8.0209   -4.5554   26.6688 N.ar    1  UNL1       -0.1495
     11 N           6.9208   -4.3106   25.6790 N.ar    1  UNL1       -0.1297
     12 C           7.8558   -4.6993   28.1527 C.3     1  UNL1        0.1681
     13 C           6.5401   -5.1409   28.7217 C.3     1  UNL1        0.0938
     14 N           5.5456   -5.8488   27.8501 N.3     1  UNL1       -0.3194
     15 H           5.2132   -5.2113   27.1266 H       1  UNL1        0.1189
     16 H           4.7571   -6.1600   28.4174 H       1  UNL1        0.1189
     17 O           4.5901   -3.3036   19.1686 O.3     1  UNL1       -0.4535
     18 C           1.2410    1.6268   18.4794 C.3     1  UNL1        0.0310
     19 C           2.0783    0.3942   18.6517 C.ar    1  UNL1       -0.0217
     20 C           3.1924    0.1038   17.6903 C.ar    1  UNL1       -0.0011
     21 C           4.0297   -1.1288   17.8626 C.ar    1  UNL1        0.0372
     22 C           3.7529   -2.0710   18.9963 C.ar    1  UNL1        0.1453
     23 C           2.6388   -1.7807   19.9578 C.ar    1  UNL1        0.0372
     24 C           1.8015   -0.5481   19.7855 C.ar    1  UNL1       -0.0011
@<TRIPOS>BOND
     1    18    19    1
     2    19    20   ar
     3    20    21   ar
     4    21    22   ar
     5    22    17    1
     6    17     1    1
     7     1     2   ar
     8     2     3   ar
     9     3     4   ar
    10     4     7    1
    11     7     8   ar
    12     8     9   ar
    13     9    10   ar
    14    10    12    1
    15    12    13    1
    16    13    14    1
    17    10    11   ar
    18     4     5   ar
    19     5     6   ar
    20    22    23   ar
    21    23    24   ar
    22    24    19   ar
    23     6     1   ar
    24    11     7   ar
    25    14    15    1
    26    14    16    1
