@<TRIPOS>MOLECULE
*****
 28 31 0 0 0
SMALL
GASTEIGER

@<TRIPOS>ATOM
      1 C          -6.1194  -15.2673   26.5377 C.3     1  UNL1        0.0233
      2 C          -6.0327  -16.0075   25.2360 C.3     1  UNL1        0.0956
      3 C          -4.6981  -16.4456   24.7097 C.3     1  UNL1        0.1135
      4 N          -4.6114  -17.1858   23.4080 N.am    1  UNL1       -0.2726
      5 C          -3.2768  -17.6239   22.8818 C.2     1  UNL1        0.2491
      6 O          -2.0289  -17.3217   23.6573 O.2     1  UNL1       -0.2699
      7 C          -5.8593  -17.4880   22.6325 C.3     1  UNL1        0.1152
      8 C          -7.1939  -17.0499   23.1587 C.3     1  UNL1        0.1153
      9 N          -7.2806  -16.3097   24.4604 N.am    1  UNL1       -0.2716
     10 C          -8.6152  -15.8716   24.9867 C.2     1  UNL1        0.2883
     11 O          -8.7019  -15.1314   26.2884 O.2     1  UNL1       -0.2664
     12 C          -3.1901  -18.3641   21.5801 C.ar    1  UNL1        0.0536
     13 C          -2.4868  -17.7434   20.4097 C.ar    1  UNL1        0.0045
     14 C          -2.4001  -18.4836   19.1079 C.ar    1  UNL1        0.0001
     15 C          -3.0167  -19.8447   18.9766 C.ar    1  UNL1        0.0000
     16 C          -3.7200  -20.4654   20.1470 C.ar    1  UNL1        0.0001
     17 C          -3.8067  -19.7252   21.4487 C.ar    1  UNL1        0.0045
     18 C          -9.8632  -16.1738   24.2112 C.2     1  UNL1        0.2516
     19 O         -10.7874  -15.0611   23.8143 O.2     1  UNL1       -0.2816
     20 C         -10.1868  -17.5887   23.8325 C.2     1  UNL1        0.0814
     21 C         -10.4284  -18.7228   24.7841 C.2     1  UNL1        0.1034
     22 N         -10.7165  -19.9529   23.9755 N.2     1  UNL1       -0.2461
     23 C         -10.6530  -19.5791   22.5242 C.2     1  UNL1        0.0811
     24 C         -10.8510  -20.3804   21.2718 C.3     1  UNL1        0.0749
     25 C         -10.7215  -19.7206   19.9310 C.2     1  UNL1        0.0009
     26 C         -10.3941  -18.2594   19.8426 C.2     1  UNL1        0.0947
     27 N         -10.1962  -17.4581   21.0951 N.2     1  UNL1       -0.2428
     28 C         -10.3256  -18.1179   22.4359 C.2     1  UNL1        0.0998
@<TRIPOS>BOND
     1     2     1    1
     2     2     3    1
     3     3     4    1
     4     4     5   am
     5     5     6    2
     6     5    12    1
     7    12    13   ar
     8    13    14   ar
     9    14    15   ar
    10    15    16   ar
    11    16    17   ar
    12     4     7    1
    13     7     8    1
    14     8     9    1
    15     9    10   am
    16    10    11    2
    17    10    18    1
    18    18    19    2
    19    18    20    1
    20    20    21    2
    21    21    22    1
    22    22    23    2
    23    23    24    1
    24    24    25    1
    25    25    26    2
    26    26    27    1
    27    27    28    2
    28     9     2    1
    29    28    20    1
    30    17    12   ar
    31    28    23    1
@<TRIPOS>MOLECULE
*****
 28 31 0 0 0
SMALL
GASTEIGER

@<TRIPOS>ATOM
      1 C           7.2013   -7.4299   26.4955 C.3     1  UNL1        0.0233
      2 C           7.1698   -6.1411   27.2622 C.3     1  UNL1        0.0956
      3 C           7.0860   -6.1611   28.7597 C.3     1  UNL1        0.1135
      4 N           7.0545   -4.8722   29.5264 N.am    1  UNL1       -0.2726
      5 C           6.9707   -4.8923   31.0239 C.2     1  UNL1        0.2491
      6 O           6.9184   -6.2012   31.7548 O.2     1  UNL1       -0.2699
      7 C           7.1068   -3.5633   28.7956 C.3     1  UNL1        0.1152
      8 C           7.1907   -3.5433   27.2981 C.3     1  UNL1        0.1153
      9 N           7.2222   -4.8322   26.5314 N.am    1  UNL1       -0.2716
     10 C           7.3060   -4.8122   25.0339 C.2     1  UNL1        0.2883
     11 O           7.3375   -6.1011   24.2672 O.2     1  UNL1       -0.2664
     12 C           6.9392   -3.6035   31.7906 C.ar    1  UNL1        0.0536
     13 C           8.2221   -2.9427   32.2000 C.ar    1  UNL1        0.0045
     14 C           8.1906   -1.6538   32.9667 C.ar    1  UNL1        0.0001
     15 C           6.8761   -1.0257   33.3241 C.ar    1  UNL1        0.0000
     16 C           5.5933   -1.6865   32.9148 C.ar    1  UNL1        0.0001
     17 C           5.6248   -2.9753   32.1481 C.ar    1  UNL1        0.0045
     18 C           7.3583   -3.5033   24.3030 C.2     1  UNL1        0.2516
     19 O           8.6509   -2.7482   24.2088 O.2     1  UNL1       -0.2816
     20 C           6.1181   -2.9496   23.6665 C.2     1  UNL1        0.0814
     21 C           5.1176   -2.0460   24.3242 C.2     1  UNL1        0.1034
     22 N           4.0417   -1.7403   23.3247 N.2     1  UNL1       -0.2461
     23 C           4.3773   -2.4549   22.0492 C.2     1  UNL1        0.0811
     24 C           3.6801   -2.5216   20.7228 C.3     1  UNL1        0.0749
     25 C           4.2663   -3.3357   19.6076 C.2     1  UNL1        0.0009
     26 C           5.5495   -4.0831   19.8189 C.2     1  UNL1        0.0947
     27 N           6.2467   -4.0164   21.1453 N.2     1  UNL1       -0.2428
     28 C           5.6606   -3.2023   22.2605 C.2     1  UNL1        0.0998
@<TRIPOS>BOND
     1     2     1    1
     2     2     3    1
     3     3     4    1
     4     4     5   am
     5     5     6    2
     6     5    12    1
     7    12    13   ar
     8    13    14   ar
     9    14    15   ar
    10    15    16   ar
    11    16    17   ar
    12     4     7    1
    13     7     8    1
    14     8     9    1
    15     9    10   am
    16    10    11    2
    17    10    18    1
    18    18    19    2
    19    18    20    1
    20    20    21    2
    21    21    22    1
    22    22    23    2
    23    23    24    1
    24    24    25    1
    25    25    26    2
    26    26    27    1
    27    27    28    2
    28     9     2    1
    29    28    20    1
    30    17    12   ar
    31    28    23    1
@<TRIPOS>MOLECULE
*****
 28 31 0 0 0
SMALL
GASTEIGER

@<TRIPOS>ATOM
      1 C           6.1668   -3.5237   25.1483 C.3     1  UNL1        0.0233
      2 C           5.3070   -2.5358   24.4171 C.3     1  UNL1        0.0956
      3 C           4.9858   -2.7493   22.9675 C.3     1  UNL1        0.1135
      4 N           4.1260   -1.7614   22.2364 N.am    1  UNL1       -0.2726
      5 C           3.8049   -1.9750   20.7868 C.2     1  UNL1        0.2491
      6 O           4.3437   -3.1765   20.0683 O.2     1  UNL1       -0.2699
      7 C           3.5872   -0.5599   22.9547 C.3     1  UNL1        0.1152
      8 C           3.9083   -0.3463   24.4043 C.3     1  UNL1        0.1153
      9 N           4.7682   -1.3343   25.1355 N.am    1  UNL1       -0.2716
     10 C           5.0893   -1.1207   26.5850 C.2     1  UNL1        0.2883
     11 O           5.9491   -2.1086   27.3162 O.2     1  UNL1       -0.2664
     12 C           2.9451   -0.9871   20.0556 C.ar    1  UNL1        0.0536
     13 C           1.5025   -0.8246   20.4329 C.ar    1  UNL1        0.0045
     14 C           0.6426    0.1633   19.7018 C.ar    1  UNL1        0.0001
     15 C           1.2254    0.9888   18.5932 C.ar    1  UNL1        0.0000
     16 C           2.6680    0.8263   18.2158 C.ar    1  UNL1        0.0001
     17 C           3.5278   -0.1616   18.9470 C.ar    1  UNL1        0.0045
     18 C           4.5505    0.0809   27.3035 C.2     1  UNL1        0.2516
     19 O           5.1961    1.4211   27.1120 O.2     1  UNL1       -0.2816
     20 C           3.3661   -0.0580   28.2134 C.2     1  UNL1        0.0814
     21 C           3.3744   -0.6651   29.5850 C.2     1  UNL1        0.1034
     22 N           1.9788   -0.5964   30.1307 N.2     1  UNL1       -0.2461
     23 C           1.1081    0.0532   29.0964 C.2     1  UNL1        0.0811
     24 C          -0.3547    0.3847   29.0804 C.3     1  UNL1        0.0749
     25 C          -0.9601    1.0490   27.8796 C.2     1  UNL1        0.0009
     26 C          -0.1028    1.3817   26.6946 C.2     1  UNL1        0.0947
     27 N           1.3600    1.0502   26.7105 N.2     1  UNL1       -0.2428
     28 C           1.9655    0.3860   27.9114 C.2     1  UNL1        0.0998
@<TRIPOS>BOND
     1     2     1    1
     2     2     3    1
     3     3     4    1
     4     4     5   am
     5     5     6    2
     6     5    12    1
     7    12    13   ar
     8    13    14   ar
     9    14    15   ar
    10    15    16   ar
    11    16    17   ar
    12     4     7    1
    13     7     8    1
    14     8     9    1
    15     9    10   am
    16    10    11    2
    17    10    18    1
    18    18    19    2
    19    18    20    1
    20    20    21    2
    21    21    22    1
    22    22    23    2
    23    23    24    1
    24    24    25    1
    25    25    26    2
    26    26    27    1
    27    27    28    2
    28     9     2    1
    29    28    20    1
    30    17    12   ar
    31    28    23    1
@<TRIPOS>MOLECULE
*****
 28 31 0 0 0
SMALL
GASTEIGER

@<TRIPOS>ATOM
      1 C           8.4136   -3.9781   23.1123 C.3     1  UNL1        0.0233
      2 C           7.1503   -3.2810   23.5222 C.3     1  UNL1        0.0956
      3 C           7.0796   -2.5710   24.8416 C.3     1  UNL1        0.1135
      4 N           5.8162   -1.8738   25.2514 N.am    1  UNL1       -0.2726
      5 C           5.7456   -1.1638   26.5709 C.2     1  UNL1        0.2491
      6 O           6.9383   -1.1510   27.4805 O.2     1  UNL1       -0.2699
      7 C           4.6236   -1.8867   24.3419 C.3     1  UNL1        0.1152
      8 C           4.6943   -2.5967   23.0224 C.3     1  UNL1        0.1153
      9 N           5.9576   -3.2938   22.6126 N.am    1  UNL1       -0.2716
     10 C           6.0283   -4.0038   21.2932 C.2     1  UNL1        0.2883
     11 O           7.2917   -4.7009   20.8834 O.2     1  UNL1       -0.2664
     12 C           4.4823   -0.4667   26.9807 C.ar    1  UNL1        0.0536
     13 C           3.4742   -1.1801   27.8320 C.ar    1  UNL1        0.0045
     14 C           2.2109   -0.4830   28.2419 C.ar    1  UNL1        0.0001
     15 C           1.9556    0.9277   27.8003 C.ar    1  UNL1        0.0000
     16 C           2.9636    1.6411   26.9490 C.ar    1  UNL1        0.0001
     17 C           4.2270    0.9439   26.5391 C.ar    1  UNL1        0.0045
     18 C           4.8356   -4.0167   20.3835 C.2     1  UNL1        0.2516
     19 O           3.7990   -5.0919   20.5213 O.2     1  UNL1       -0.2816
     20 C           4.6797   -2.9542   19.3361 C.2     1  UNL1        0.0814
     21 C           5.5589   -2.7637   18.1358 C.2     1  UNL1        0.1034
     22 N           5.0397   -1.5875   17.3631 N.2     1  UNL1       -0.2461
     23 C           3.8397   -1.0511   18.0858 C.2     1  UNL1        0.0811
     24 C           2.9210    0.0973   17.7911 C.3     1  UNL1        0.0749
     25 C           1.7797    0.4010   18.7158 C.2     1  UNL1        0.0009
     26 C           1.5571   -0.4437   19.9353 C.2     1  UNL1        0.0947
     27 N           2.4759   -1.5921   20.2300 N.2     1  UNL1       -0.2428
     28 C           3.6172   -1.8958   19.3053 C.2     1  UNL1        0.0998
@<TRIPOS>BOND
     1     2     1    1
     2     2     3    1
     3     3     4    1
     4     4     5   am
     5     5     6    2
     6     5    12    1
     7    12    13   ar
     8    13    14   ar
     9    14    15   ar
    10    15    16   ar
    11    16    17   ar
    12     4     7    1
    13     7     8    1
    14     8     9    1
    15     9    10   am
    16    10    11    2
    17    10    18    1
    18    18    19    2
    19    18    20    1
    20    20    21    2
    21    21    22    1
    22    22    23    2
    23    23    24    1
    24    24    25    1
    25    25    26    2
    26    26    27    1
    27    27    28    2
    28     9     2    1
    29    28    20    1
    30    17    12   ar
    31    28    23    1
@<TRIPOS>MOLECULE
*****
 28 31 0 0 0
SMALL
GASTEIGER

@<TRIPOS>ATOM
      1 C           9.1135   -7.6689   24.0339 C.3     1  UNL1        0.0233
      2 C           8.7997   -6.6346   25.0739 C.3     1  UNL1        0.0956
      3 C           8.9284   -6.9718   26.5298 C.3     1  UNL1        0.1135
      4 N           8.6146   -5.9374   27.5698 N.am    1  UNL1       -0.2726
      5 C           8.7434   -6.2747   29.0258 C.2     1  UNL1        0.2491
      6 O           9.1858   -7.6463   29.4417 O.2     1  UNL1       -0.2699
      7 C           8.1722   -4.5658   27.1540 C.3     1  UNL1        0.1152
      8 C           8.0435   -4.2286   25.6981 C.3     1  UNL1        0.1153
      9 N           8.3572   -5.2630   24.6580 N.am    1  UNL1       -0.2716
     10 C           8.2285   -4.9258   23.2021 C.2     1  UNL1        0.2883
     11 O           8.5423   -5.9601   22.1621 O.2     1  UNL1       -0.2664
     12 C           8.4296   -5.2404   30.0658 C.ar    1  UNL1        0.0536
     13 C           7.0174   -5.0535   30.5357 C.ar    1  UNL1        0.0045
     14 C           6.7037   -4.0192   31.5757 C.ar    1  UNL1        0.0001
     15 C           7.8021   -3.1716   32.1458 C.ar    1  UNL1        0.0000
     16 C           9.2143   -3.3584   31.6759 C.ar    1  UNL1        0.0001
     17 C           9.5280   -4.3928   30.6359 C.ar    1  UNL1        0.0045
     18 C           7.7860   -3.5541   22.7862 C.2     1  UNL1        0.2516
     19 O           8.7762   -2.4284   22.7406 O.2     1  UNL1       -0.2816
     20 C           6.3534   -3.3084   22.4159 C.2     1  UNL1        0.0814
     21 C           5.1941   -3.2532   23.3662 C.2     1  UNL1        0.1034
     22 N           3.9528   -2.9854   22.5678 N.2     1  UNL1       -0.2461
     23 C           4.3449   -2.8750   21.1242 C.2     1  UNL1        0.0811
     24 C           3.5426   -2.6185   19.8830 C.3     1  UNL1        0.0749
     25 C           4.2240   -2.5616   18.5480 C.2     1  UNL1        0.0009
     26 C           5.7076   -2.7613   18.4541 C.2     1  UNL1        0.0947
     27 N           6.5099   -3.0178   19.6952 N.2     1  UNL1       -0.2428
     28 C           5.8285   -3.0746   21.0303 C.2     1  UNL1        0.0998
@<TRIPOS>BOND
     1     2     1    1
     2     2     3    1
     3     3     4    1
     4     4     5   am
     5     5     6    2
     6     5    12    1
     7    12    13   ar
     8    13    14   ar
     9    14    15   ar
    10    15    16   ar
    11    16    17   ar
    12     4     7    1
    13     7     8    1
    14     8     9    1
    15     9    10   am
    16    10    11    2
    17    10    18    1
    18    18    19    2
    19    18    20    1
    20    20    21    2
    21    21    22    1
    22    22    23    2
    23    23    24    1
    24    24    25    1
    25    25    26    2
    26    26    27    1
    27    27    28    2
    28     9     2    1
    29    28    20    1
    30    17    12   ar
    31    28    23    1
@<TRIPOS>MOLECULE
*****
 28 31 0 0 0
SMALL
GASTEIGER

@<TRIPOS>ATOM
      1 C           3.2707   -0.4786   26.8730 C.3     1  UNL1        0.0233
      2 C           3.9607   -1.0258   25.6587 C.3     1  UNL1        0.0956
      3 C           3.3282   -0.8786   24.3066 C.3     1  UNL1        0.1135
      4 N           4.0182   -1.4258   23.0923 N.am    1  UNL1       -0.2726
      5 C           3.3856   -1.2786   21.7401 C.2     1  UNL1        0.2491
      6 O           2.0632   -0.5843   21.6022 O.2     1  UNL1       -0.2699
      7 C           5.3406   -2.1201   23.2301 C.3     1  UNL1        0.1152
      8 C           5.9731   -2.2673   24.5823 C.3     1  UNL1        0.1153
      9 N           5.2831   -1.7201   25.7965 N.am    1  UNL1       -0.2716
     10 C           5.9155   -1.8672   27.1487 C.2     1  UNL1        0.2883
     11 O           5.2255   -1.3200   28.3630 O.2     1  UNL1       -0.2664
     12 C           4.0756   -1.8258   20.5258 C.ar    1  UNL1        0.0536
     13 C           5.0224   -0.9610   19.7476 C.ar    1  UNL1        0.0045
     14 C           5.7124   -1.5082   18.5333 C.ar    1  UNL1        0.0001
     15 C           5.4556   -2.9202   18.0972 C.ar    1  UNL1        0.0000
     16 C           4.5088   -3.7850   18.8755 C.ar    1  UNL1        0.0001
     17 C           3.8188   -3.2378   20.0897 C.ar    1  UNL1        0.0045
     18 C           7.2381   -2.5616   27.2866 C.2     1  UNL1        0.2516
     19 O           8.5119   -1.7941   27.0915 O.2     1  UNL1       -0.2816
     20 C           7.2866   -4.0234   27.6196 C.2     1  UNL1        0.0814
     21 C           7.0876   -4.6250   28.9792 C.2     1  UNL1        0.1034
     22 N           7.2206   -6.1136   28.8513 N.2     1  UNL1       -0.2461
     23 C           7.5018   -6.4320   27.4127 C.2     1  UNL1        0.0811
     24 C           7.7260   -7.7313   26.6975 C.3     1  UNL1        0.0749
     25 C           7.9910   -7.7388   25.2212 C.2     1  UNL1        0.0009
     26 C           8.0317   -6.4469   24.4600 C.2     1  UNL1        0.0947
     27 N           7.8075   -5.1476   25.1751 N.2     1  UNL1       -0.2428
     28 C           7.5426   -5.1401   26.6514 C.2     1  UNL1        0.0998
@<TRIPOS>BOND
     1     2     1    1
     2     2     3    1
     3     3     4    1
     4     4     5   am
     5     5     6    2
     6     5    12    1
     7    12    13   ar
     8    13    14   ar
     9    14    15   ar
    10    15    16   ar
    11    16    17   ar
    12     4     7    1
    13     7     8    1
    14     8     9    1
    15     9    10   am
    16    10    11    2
    17    10    18    1
    18    18    19    2
    19    18    20    1
    20    20    21    2
    21    21    22    1
    22    22    23    2
    23    23    24    1
    24    24    25    1
    25    25    26    2
    26    26    27    1
    27    27    28    2
    28     9     2    1
    29    28    20    1
    30    17    12   ar
    31    28    23    1
@<TRIPOS>MOLECULE
*****
 28 31 0 0 0
SMALL
GASTEIGER

@<TRIPOS>ATOM
      1 C           2.8562    0.1279   26.5318 C.3     1  UNL1        0.0233
      2 C           3.5878   -0.5262   25.3974 C.3     1  UNL1        0.0956
      3 C           2.9985   -0.5130   24.0180 C.3     1  UNL1        0.1135
      4 N           3.7301   -1.1672   22.8836 N.am    1  UNL1       -0.2726
      5 C           3.1408   -1.1539   21.5043 C.2     1  UNL1        0.2491
      6 O           1.8199   -0.4866   21.2593 O.2     1  UNL1       -0.2699
      7 C           5.0509   -1.8345   23.1285 C.3     1  UNL1        0.1152
      8 C           5.6402   -1.8477   24.5078 C.3     1  UNL1        0.1153
      9 N           4.9086   -1.1936   25.6422 N.am    1  UNL1       -0.2716
     10 C           5.4979   -1.2068   27.0216 C.2     1  UNL1        0.2883
     11 O           4.7663   -0.5526   28.1560 O.2     1  UNL1       -0.2664
     12 C           3.8723   -1.8081   20.3698 C.ar    1  UNL1        0.0536
     13 C           3.6464   -3.2603   20.0698 C.ar    1  UNL1        0.0045
     14 C           4.3780   -3.9144   18.9354 C.ar    1  UNL1        0.0001
     15 C           5.3355   -3.1163   18.1010 C.ar    1  UNL1        0.0000
     16 C           5.5614   -1.6641   18.4010 C.ar    1  UNL1        0.0001
     17 C           4.8299   -1.0100   19.5354 C.ar    1  UNL1        0.0045
     18 C           6.8188   -1.8742   27.2665 C.2     1  UNL1        0.2516
     19 O           8.0943   -1.1527   26.9465 O.2     1  UNL1       -0.2816
     20 C           6.8641   -3.2630   27.8315 C.2     1  UNL1        0.0814
     21 C           6.9199   -4.5356   27.0395 C.2     1  UNL1        0.1034
     22 N           6.9518   -5.6821   28.0062 N.2     1  UNL1       -0.2461
     23 C           6.9157   -5.1180   29.3956 C.2     1  UNL1        0.0811
     24 C           6.9252   -5.7727   30.7452 C.3     1  UNL1        0.0749
     25 C           6.8804   -4.9322   31.9867 C.2     1  UNL1        0.0009
     26 C           6.8262   -3.4371   31.8787 C.2     1  UNL1        0.0947
     27 N           6.8167   -2.7824   30.5292 N.2     1  UNL1       -0.2428
     28 C           6.8615   -3.6229   29.2876 C.2     1  UNL1        0.0998
@<TRIPOS>BOND
     1     2     1    1
     2     2     3    1
     3     3     4    1
     4     4     5   am
     5     5     6    2
     6     5    12    1
     7    12    13   ar
     8    13    14   ar
     9    14    15   ar
    10    15    16   ar
    11    16    17   ar
    12     4     7    1
    13     7     8    1
    14     8     9    1
    15     9    10   am
    16    10    11    2
    17    10    18    1
    18    18    19    2
    19    18    20    1
    20    20    21    2
    21    21    22    1
    22    22    23    2
    23    23    24    1
    24    24    25    1
    25    25    26    2
    26    26    27    1
    27    27    28    2
    28     9     2    1
    29    28    20    1
    30    17    12   ar
    31    28    23    1
@<TRIPOS>MOLECULE
*****
 28 31 0 0 0
SMALL
GASTEIGER

@<TRIPOS>ATOM
      1 C           7.3510   -3.4264   27.4315 C.3     1  UNL1        0.0233
      2 C           6.6041   -2.9365   26.2265 C.3     1  UNL1        0.0956
      3 C           6.7780   -3.6250   24.9052 C.3     1  UNL1        0.1135
      4 N           6.0311   -3.1351   23.7002 N.am    1  UNL1       -0.2726
      5 C           6.2050   -3.8236   22.3789 C.2     1  UNL1        0.2491
      6 O           7.1258   -5.0020   22.2626 O.2     1  UNL1       -0.2699
      7 C           5.1103   -1.9567   23.8163 C.3     1  UNL1        0.1152
      8 C           4.9364   -1.2682   25.1376 C.3     1  UNL1        0.1153
      9 N           5.6833   -1.7581   26.3426 N.am    1  UNL1       -0.2716
     10 C           5.5094   -1.0697   27.6639 C.2     1  UNL1        0.2883
     11 O           6.2563   -1.5596   28.8690 O.2     1  UNL1       -0.2664
     12 C           5.4581   -3.3337   21.1739 C.ar    1  UNL1        0.0536
     13 C           4.2767   -4.1020   20.6602 C.ar    1  UNL1        0.0045
     14 C           3.5298   -3.6121   19.4551 C.ar    1  UNL1        0.0001
     15 C           3.9643   -2.3538   18.7638 C.ar    1  UNL1        0.0000
     16 C           5.1457   -1.5855   19.2775 C.ar    1  UNL1        0.0001
     17 C           5.8926   -2.0754   20.4825 C.ar    1  UNL1        0.0045
     18 C           4.5885    0.1088   27.7802 C.2     1  UNL1        0.2516
     19 O           4.9404    1.4043   27.1112 O.2     1  UNL1       -0.2816
     20 C           3.3158   -0.0085   28.5654 C.2     1  UNL1        0.0814
     21 C           3.1835   -0.5650   29.9520 C.2     1  UNL1        0.1034
     22 N           1.7379   -0.4903   30.3454 N.2     1  UNL1       -0.2461
     23 C           0.9769    0.1124   29.2019 C.2     1  UNL1        0.0811
     24 C          -0.4781    0.4285   29.0203 C.3     1  UNL1        0.0749
     25 C          -0.9579    1.0424   27.7385 C.2     1  UNL1        0.0009
     26 C           0.0173    1.3402   26.6384 C.2     1  UNL1        0.0947
     27 N           1.4723    1.0240   26.8200 N.2     1  UNL1       -0.2428
     28 C           1.9521    0.4102   28.1018 C.2     1  UNL1        0.0998
@<TRIPOS>BOND
     1     2     1    1
     2     2     3    1
     3     3     4    1
     4     4     5   am
     5     5     6    2
     6     5    12    1
     7    12    13   ar
     8    13    14   ar
     9    14    15   ar
    10    15    16   ar
    11    16    17   ar
    12     4     7    1
    13     7     8    1
    14     8     9    1
    15     9    10   am
    16    10    11    2
    17    10    18    1
    18    18    19    2
    19    18    20    1
    20    20    21    2
    21    21    22    1
    22    22    23    2
    23    23    24    1
    24    24    25    1
    25    25    26    2
    26    26    27    1
    27    27    28    2
    28     9     2    1
    29    28    20    1
    30    17    12   ar
    31    28    23    1
@<TRIPOS>MOLECULE
*****
 28 31 0 0 0
SMALL
GASTEIGER

@<TRIPOS>ATOM
      1 C           7.9537   -0.8122   24.3987 C.3     1  UNL1        0.0233
      2 C           6.4705   -0.8193   24.6220 C.3     1  UNL1        0.0956
      3 C           5.8844   -0.0829   25.7901 C.3     1  UNL1        0.1135
      4 N           4.4011   -0.0900   26.0134 N.am    1  UNL1       -0.2726
      5 C           3.8151    0.6464   27.1815 C.2     1  UNL1        0.2491
      6 O           4.7122    1.3898   28.1262 O.2     1  UNL1       -0.2699
      7 C           3.5039   -0.8334   25.0688 C.3     1  UNL1        0.1152
      8 C           4.0900   -1.5698   23.9008 C.3     1  UNL1        0.1153
      9 N           5.5733   -1.5627   23.6774 N.am    1  UNL1       -0.2716
     10 C           6.1594   -2.2990   22.5094 C.2     1  UNL1        0.2883
     11 O           7.6426   -2.2919   22.2860 O.2     1  UNL1       -0.2664
     12 C           2.3318    0.6393   27.4049 C.ar    1  UNL1        0.0536
     13 C           1.4376    1.4669   26.5301 C.ar    1  UNL1        0.0045
     14 C          -0.0456    1.4598   26.7534 C.ar    1  UNL1        0.0001
     15 C          -0.6347    0.6250   27.8517 C.ar    1  UNL1        0.0000
     16 C           0.2595   -0.2026   28.7265 C.ar    1  UNL1        0.0001
     17 C           1.7427   -0.1955   28.5031 C.ar    1  UNL1        0.0045
     18 C           5.2621   -3.0425   21.5647 C.2     1  UNL1        0.2516
     19 O           4.5481   -4.2787   22.0250 O.2     1  UNL1       -0.2816
     20 C           5.0791   -2.5498   20.1598 C.2     1  UNL1        0.0814
     21 C           5.8723   -2.9837   18.9629 C.2     1  UNL1        0.1034
     22 N           5.3542   -2.2387   17.7686 N.2     1  UNL1       -0.2461
     23 C           4.2407   -1.3443   18.2274 C.2     1  UNL1        0.0811
     24 C           3.3597   -0.3797   17.4903 C.3     1  UNL1        0.0749
     25 C           2.3087    0.3927   18.2311 C.2     1  UNL1        0.0009
     26 C           2.1388    0.2004   19.7090 C.2     1  UNL1        0.0947
     27 N           3.0198   -0.7642   20.4461 N.2     1  UNL1       -0.2428
     28 C           4.0708   -1.5366   19.7052 C.2     1  UNL1        0.0998
@<TRIPOS>BOND
     1     2     1    1
     2     2     3    1
     3     3     4    1
     4     4     5   am
     5     5     6    2
     6     5    12    1
     7    12    13   ar
     8    13    14   ar
     9    14    15   ar
    10    15    16   ar
    11    16    17   ar
    12     4     7    1
    13     7     8    1
    14     8     9    1
    15     9    10   am
    16    10    11    2
    17    10    18    1
    18    18    19    2
    19    18    20    1
    20    20    21    2
    21    21    22    1
    22    22    23    2
    23    23    24    1
    24    24    25    1
    25    25    26    2
    26    26    27    1
    27    27    28    2
    28     9     2    1
    29    28    20    1
    30    17    12   ar
    31    28    23    1
