@<TRIPOS>MOLECULE
*****
 34 38 0 0 0
SMALL
GASTEIGER

@<TRIPOS>ATOM
      1 C           4.9785   -0.6383   17.2699 C.2     1  UNL1        0.2257
      2 O           3.8369   -1.1433   16.4384 O.2     1  UNL1       -0.2749
      3 N           5.6392   -1.5445   18.2661 N.am    1  UNL1       -0.2760
      4 C           6.7809   -1.0395   19.0977 C.3     1  UNL1        0.1149
      5 C           7.4415   -1.9457   20.0939 C.3     1  UNL1        0.1141
      6 N           6.9604   -3.3569   20.2585 N.pl3   1  UNL1       -0.2846
      7 C           5.8187   -3.8619   19.4270 C.3     1  UNL1        0.1141
      8 C           5.1581   -2.9557   18.4308 C.3     1  UNL1        0.1149
      9 C           4.8283    1.8779   17.8993 C.3     1  UNL1        0.0851
     10 C           5.3094    3.2891   17.7347 C.3     1  UNL1        0.0096
     11 C           6.4217    3.5952   16.7762 C.3     1  UNL1        0.0005
     12 C           7.0531    2.4902   15.9822 C.3     1  UNL1        0.0005
     13 C           6.5720    1.0790   16.1468 C.3     1  UNL1        0.0096
     14 C           5.4596    0.7729   17.1053 C.3     1  UNL1        0.0853
     15 N           2.4270    0.9952   18.3515 N.am    1  UNL1       -0.2959
     16 C           3.7159    1.5717   18.8578 C.2     1  UNL1        0.2231
     17 O           3.8924    1.8420   20.3227 O.2     1  UNL1       -0.2751
     18 H           2.3111    0.8178   17.3901 H       1  UNL1        0.1502
     19 C           1.3145    0.6890   19.3101 C.3     1  UNL1        0.1364
     20 C           0.4790   -0.0566   20.3081 C.3     1  UNL1        0.0353
     21 C           1.7257   -0.6826   19.7567 C.3     1  UNL1        0.0353
     22 N          -0.2803    3.2198   19.0826 N.1     1  UNL1       -0.1943
     23 C           0.5171    1.9544   19.1963 C.1     1  UNL1        0.0896
     24 C           7.6210   -4.2631   21.2547 C.ar    1  UNL1        0.1631
     25 N           7.0642   -4.6612   22.5895 N.ar    1  UNL1       -0.2240
     26 C           8.0535   -5.5744   23.2508 C.ar    1  UNL1        0.0897
     27 C           9.2218   -5.7407   22.3248 C.ar    1  UNL1        0.0572
     28 S           8.9545   -4.9303   21.0912 S.2     1  UNL1       -0.0510
     29 C           7.9012   -6.2098   24.6010 C.ar    1  UNL1        0.0182
     30 C           7.1421   -5.4998   25.6826 C.ar    1  UNL1        0.0015
     31 C           6.9899   -6.1351   27.0328 C.ar    1  UNL1        0.0000
     32 C           7.5967   -7.4803   27.3014 C.ar    1  UNL1        0.0000
     33 C           8.3557   -8.1903   26.2199 C.ar    1  UNL1        0.0000
     34 C           8.5080   -7.5549   24.8696 C.ar    1  UNL1        0.0015
@<TRIPOS>BOND
     1    22    23    3
     2    23    19    1
     3    19    15    1
     4    15    16   am
     5    16    17    2
     6     9    16    1
     7     9    10    1
     8    10    11    1
     9    11    12    1
    10    12    13    1
    11    13    14    1
    12    14     1    1
    13     1     2    2
    14     1     3   am
    15     3     4    1
    16     4     5    1
    17     5     6    1
    18     6    24    1
    19    24    25   ar
    20    25    26   ar
    21    26    29    1
    22    29    30   ar
    23    30    31   ar
    24    31    32   ar
    25    32    33   ar
    26    33    34   ar
    27    26    27   ar
    28    27    28   ar
    29     6     7    1
    30     7     8    1
    31    19    20    1
    32    20    21    1
    33    21    19    1
    34    14     9    1
    35     8     3    1
    36    28    24   ar
    37    34    29   ar
    38    15    18    1
@<TRIPOS>MOLECULE
*****
 34 38 0 0 0
SMALL
GASTEIGER

@<TRIPOS>ATOM
      1 C           4.6033    0.5354   21.1969 C.2     1  UNL1        0.2257
      2 O           5.5794    1.2759   20.3316 O.2     1  UNL1       -0.2749
      3 N           5.1003   -0.3318   22.3155 N.am    1  UNL1       -0.2760
      4 C           4.1242   -1.0723   23.1808 C.3     1  UNL1        0.1149
      5 C           4.6212   -1.9395   24.2993 C.3     1  UNL1        0.1141
      6 N           6.0943   -2.0661   24.5525 N.pl3   1  UNL1       -0.2846
      7 C           7.0703   -1.3255   23.6871 C.3     1  UNL1        0.1141
      8 C           6.5734   -0.4584   22.5686 C.3     1  UNL1        0.1149
      9 C           2.4392   -0.3107   20.0348 C.3     1  UNL1        0.0851
     10 C           0.9661   -0.1842   19.7817 C.3     1  UNL1        0.0096
     11 C           0.1842    0.9151   20.4376 C.3     1  UNL1        0.0005
     12 C           0.8753    1.8877   21.3466 C.3     1  UNL1        0.0005
     13 C           2.3483    1.7612   21.5997 C.3     1  UNL1        0.0096
     14 C           3.1302    0.6620   20.9438 C.3     1  UNL1        0.0853
     15 N           3.5607   -2.6515   20.1492 N.am    1  UNL1       -0.2959
     16 C           3.2212   -1.4100   19.3789 C.2     1  UNL1        0.2231
     17 O           3.6637   -1.2677   17.9528 O.2     1  UNL1       -0.2751
     18 H           3.2703   -2.7449   21.0852 H       1  UNL1        0.1502
     19 C           4.3427   -3.7507   19.4933 C.3     1  UNL1        0.1364
     20 C           4.6405   -5.0277   18.7648 C.3     1  UNL1        0.0353
     21 C           3.2199   -4.6443   19.0565 C.3     1  UNL1        0.0353
     22 N           7.1314   -2.7268   19.9117 N.1     1  UNL1       -0.1943
     23 C           5.7371   -3.2389   19.7024 C.1     1  UNL1        0.0896
     24 C           6.5913   -2.9332   25.6710 C.ar    1  UNL1        0.1631
     25 N           6.2051   -2.8162   27.1157 N.ar    1  UNL1       -0.2240
     26 C           6.9369   -3.8803   27.8788 C.ar    1  UNL1        0.0897
     27 C           7.7753   -4.6550   26.9057 C.ar    1  UNL1        0.0572
     28 S           7.5617   -4.0696   25.5412 S.2     1  UNL1       -0.0510
     29 C           6.8461   -4.1265   29.3556 C.ar    1  UNL1        0.0182
     30 C           6.5220   -2.9953   30.2859 C.ar    1  UNL1        0.0015
     31 C           6.4313   -3.2415   31.7628 C.ar    1  UNL1        0.0000
     32 C           6.6645   -4.6188   32.3093 C.ar    1  UNL1        0.0000
     33 C           6.9885   -5.7499   31.3790 C.ar    1  UNL1        0.0000
     34 C           7.0793   -5.5037   29.9021 C.ar    1  UNL1        0.0015
@<TRIPOS>BOND
     1    22    23    3
     2    23    19    1
     3    19    15    1
     4    15    16   am
     5    16    17    2
     6     9    16    1
     7     9    10    1
     8    10    11    1
     9    11    12    1
    10    12    13    1
    11    13    14    1
    12    14     1    1
    13     1     2    2
    14     1     3   am
    15     3     4    1
    16     4     5    1
    17     5     6    1
    18     6    24    1
    19    24    25   ar
    20    25    26   ar
    21    26    29    1
    22    29    30   ar
    23    30    31   ar
    24    31    32   ar
    25    32    33   ar
    26    33    34   ar
    27    26    27   ar
    28    27    28   ar
    29     6     7    1
    30     7     8    1
    31    19    20    1
    32    20    21    1
    33    21    19    1
    34    14     9    1
    35     8     3    1
    36    28    24   ar
    37    34    29   ar
    38    15    18    1
@<TRIPOS>MOLECULE
*****
 34 38 0 0 0
SMALL
GASTEIGER

@<TRIPOS>ATOM
      1 C           4.3553   -0.4408   19.4766 C.2     1  UNL1        0.2257
      2 O           5.6580    0.2281   19.1519 O.2     1  UNL1       -0.2749
      3 N           3.0952    0.3692   19.5541 N.am    1  UNL1       -0.2760
      4 C           1.7924   -0.2997   19.8788 C.3     1  UNL1        0.1149
      5 C           0.5323    0.5103   19.9563 C.3     1  UNL1        0.1141
      6 N           0.5749    1.9892   19.7090 N.pl3   1  UNL1       -0.2846
      7 C           1.8777    2.6581   19.3843 C.3     1  UNL1        0.1141
      8 C           3.1378    1.8481   19.3068 C.3     1  UNL1        0.1149
      9 C           4.3430   -2.4464   21.1281 C.3     1  UNL1        0.0851
     10 C           4.3004   -3.9253   21.3754 C.3     1  UNL1        0.0096
     11 C           4.2274   -4.8773   20.2186 C.3     1  UNL1        0.0005
     12 C           4.1970   -4.3505   18.8145 C.3     1  UNL1        0.0005
     13 C           4.2397   -2.8717   18.5671 C.3     1  UNL1        0.0096
     14 C           4.3127   -1.9197   19.7239 C.3     1  UNL1        0.0853
     15 N           3.2061   -1.2583   23.1395 N.am    1  UNL1       -0.2959
     16 C           4.4160   -1.4943   22.2849 C.2     1  UNL1        0.2231
     17 O           5.6990   -0.7782   22.5870 O.2     1  UNL1       -0.2751
     18 H           2.3641   -1.7283   22.9412 H       1  UNL1        0.1502
     19 C           3.2792   -0.3061   24.2963 C.3     1  UNL1        0.1364
     20 C           3.5267    0.2119   25.6821 C.3     1  UNL1        0.0353
     21 C           3.8070   -1.2256   25.3575 C.3     1  UNL1        0.0353
     22 N           2.2741    2.1938   22.9772 N.1     1  UNL1       -0.1943
     23 C           2.7766    0.9439   23.6368 C.1     1  UNL1        0.0896
     24 C          -0.6852    2.7992   19.7865 C.ar    1  UNL1        0.1631
     25 N          -1.7939    2.6122   20.7794 N.ar    1  UNL1       -0.2240
     26 C          -2.8518    3.6359   20.4912 C.ar    1  UNL1        0.0897
     27 C          -2.3969    4.4555   19.3202 C.ar    1  UNL1        0.0572
     28 S          -1.0579    3.9384   18.8846 S.2     1  UNL1       -0.0510
     29 C          -4.1386    3.8094   21.2422 C.ar    1  UNL1        0.0182
     30 C          -5.3572    4.3219   20.5335 C.ar    1  UNL1        0.0015
     31 C          -6.6440    4.4954   21.2844 C.ar    1  UNL1        0.0000
     32 C          -6.7122    4.1564   22.7441 C.ar    1  UNL1        0.0000
     33 C          -5.4935    3.6438   23.4527 C.ar    1  UNL1        0.0000
     34 C          -4.2067    3.4703   22.7017 C.ar    1  UNL1        0.0015
@<TRIPOS>BOND
     1    22    23    3
     2    23    19    1
     3    19    15    1
     4    15    16   am
     5    16    17    2
     6     9    16    1
     7     9    10    1
     8    10    11    1
     9    11    12    1
    10    12    13    1
    11    13    14    1
    12    14     1    1
    13     1     2    2
    14     1     3   am
    15     3     4    1
    16     4     5    1
    17     5     6    1
    18     6    24    1
    19    24    25   ar
    20    25    26   ar
    21    26    29    1
    22    29    30   ar
    23    30    31   ar
    24    31    32   ar
    25    32    33   ar
    26    33    34   ar
    27    26    27   ar
    28    27    28   ar
    29     6     7    1
    30     7     8    1
    31    19    20    1
    32    20    21    1
    33    21    19    1
    34    14     9    1
    35     8     3    1
    36    28    24   ar
    37    34    29   ar
    38    15    18    1
@<TRIPOS>MOLECULE
*****
 34 38 0 0 0
SMALL
GASTEIGER

@<TRIPOS>ATOM
      1 C           4.3179   -0.3260   20.7369 C.2     1  UNL1        0.2257
      2 O           5.5066    0.2963   21.4074 O.2     1  UNL1       -0.2749
      3 N           3.0377    0.4457   20.6123 N.am    1  UNL1       -0.2760
      4 C           1.8489   -0.1767   19.9418 C.3     1  UNL1        0.1149
      5 C           0.5688    0.5951   19.8171 C.3     1  UNL1        0.1141
      6 N           0.4774    1.9893   20.3630 N.pl3   1  UNL1       -0.2846
      7 C           1.6661    2.6117   21.0334 C.3     1  UNL1        0.1141
      8 C           2.9462    1.8399   21.1581 C.3     1  UNL1        0.1149
      9 C           4.7330   -1.9389   18.7428 C.3     1  UNL1        0.0851
     10 C           4.8245   -3.3330   18.1970 C.3     1  UNL1        0.0096
     11 C           4.5921   -4.5085   19.0993 C.3     1  UNL1        0.0005
     12 C           4.2683   -4.2898   20.5475 C.3     1  UNL1        0.0005
     13 C           4.1769   -2.8957   21.0934 C.3     1  UNL1        0.0096
     14 C           4.4093   -1.7203   20.1910 C.3     1  UNL1        0.0853
     15 N           5.8759    0.3468   18.2745 N.am    1  UNL1       -0.2959
     16 C           4.9654   -0.7634   17.8405 C.2     1  UNL1        0.2231
     17 O           4.2873   -0.6981   16.5041 O.2     1  UNL1       -0.2751
     18 H           6.3210    0.3040   19.1516 H       1  UNL1        0.1502
     19 C           6.1083    1.5224   17.3721 C.3     1  UNL1        0.1364
     20 C           6.7247    2.3842   16.3104 C.3     1  UNL1        0.0353
     21 C           7.2949    1.0272   16.5997 C.3     1  UNL1        0.0353
     22 N           3.8962    3.3290   18.2904 N.1     1  UNL1       -0.1943
     23 C           5.0023    2.4257   17.8313 C.1     1  UNL1        0.0896
     24 C          -0.8028    2.7611   20.2383 C.ar    1  UNL1        0.1631
     25 N          -1.9672    2.6957   21.1817 N.ar    1  UNL1       -0.2240
     26 C          -3.0274    3.6279   20.6748 C.ar    1  UNL1        0.0897
     27 C          -2.5182    4.2695   19.4182 C.ar    1  UNL1        0.0572
     28 S          -1.1434    3.7338   19.1484 S.2     1  UNL1       -0.0510
     29 C          -4.3623    3.8752   21.3126 C.ar    1  UNL1        0.0182
     30 C          -5.5259    4.3108   20.4721 C.ar    1  UNL1        0.0015
     31 C          -6.8608    4.5581   21.1099 C.ar    1  UNL1        0.0000
     32 C          -7.0322    4.3697   22.5881 C.ar    1  UNL1        0.0000
     33 C          -5.8686    3.9340   23.4286 C.ar    1  UNL1        0.0000
     34 C          -4.5337    3.6868   22.7908 C.ar    1  UNL1        0.0015
@<TRIPOS>BOND
     1    22    23    3
     2    23    19    1
     3    19    15    1
     4    15    16   am
     5    16    17    2
     6     9    16    1
     7     9    10    1
     8    10    11    1
     9    11    12    1
    10    12    13    1
    11    13    14    1
    12    14     1    1
    13     1     2    2
    14     1     3   am
    15     3     4    1
    16     4     5    1
    17     5     6    1
    18     6    24    1
    19    24    25   ar
    20    25    26   ar
    21    26    29    1
    22    29    30   ar
    23    30    31   ar
    24    31    32   ar
    25    32    33   ar
    26    33    34   ar
    27    26    27   ar
    28    27    28   ar
    29     6     7    1
    30     7     8    1
    31    19    20    1
    32    20    21    1
    33    21    19    1
    34    14     9    1
    35     8     3    1
    36    28    24   ar
    37    34    29   ar
    38    15    18    1
@<TRIPOS>MOLECULE
*****
 34 38 0 0 0
SMALL
GASTEIGER

@<TRIPOS>ATOM
      1 C           6.5364   -0.2668   30.1311 C.2     1  UNL1        0.2257
      2 O           7.8057    0.5051   30.3386 O.2     1  UNL1       -0.2749
      3 N           5.9962   -0.4636   28.7457 N.am    1  UNL1       -0.2760
      4 C           4.7268   -1.2355   28.5382 C.3     1  UNL1        0.1149
      5 C           4.1866   -1.4322   27.1528 C.3     1  UNL1        0.1141
      6 N           4.9157   -0.8571   25.9748 N.pl3   1  UNL1       -0.2846
      7 C           6.1850   -0.0852   26.1822 C.3     1  UNL1        0.1141
      8 C           6.7253    0.1115   27.5677 C.3     1  UNL1        0.1149
      9 C           6.0579   -2.2607   31.7265 C.3     1  UNL1        0.0851
     10 C           5.3288   -2.8359   32.9045 C.3     1  UNL1        0.0096
     11 C           4.3491   -1.9923   33.6650 C.3     1  UNL1        0.0005
     12 C           4.0985   -0.5735   33.2476 C.3     1  UNL1        0.0005
     13 C           4.8276    0.0017   32.0696 C.3     1  UNL1        0.0096
     14 C           5.8073   -0.8420   31.3091 C.3     1  UNL1        0.0853
     15 N           6.5469   -4.0862   29.9436 N.am    1  UNL1       -0.2959
     16 C           7.0377   -3.1044   30.9660 C.2     1  UNL1        0.2231
     17 O           8.5082   -2.9661   31.2278 O.2     1  UNL1       -0.2751
     18 H           5.5818   -4.1769   29.7718 H       1  UNL1        0.1502
     19 C           7.5267   -4.9298   29.1831 C.3     1  UNL1        0.1364
     20 C           8.4449   -6.0676   28.8479 C.3     1  UNL1        0.0353
     21 C           7.6895   -6.0700   30.1439 C.3     1  UNL1        0.0353
     22 N           7.8815   -3.2350   26.7332 N.1     1  UNL1       -0.1943
     23 C           7.7041   -4.0824   27.9581 C.1     1  UNL1        0.0896
     24 C           4.3755   -1.0539   24.5894 C.ar    1  UNL1        0.1631
     25 N           4.9791   -1.9180   23.5221 N.ar    1  UNL1       -0.2240
     26 C           4.1134   -1.8193   22.3011 C.ar    1  UNL1        0.0897
     27 C           2.9749   -0.8940   22.6136 C.ar    1  UNL1        0.0572
     28 S           3.1369   -0.4210   24.0278 S.2     1  UNL1       -0.0510
     29 C           4.3456   -2.5223   20.9965 C.ar    1  UNL1        0.0182
     30 C           4.1358   -4.0041   20.8955 C.ar    1  UNL1        0.0015
     31 C           4.3680   -4.7071   19.5909 C.ar    1  UNL1        0.0000
     32 C           4.8100   -3.9284   18.3875 C.ar    1  UNL1        0.0000
     33 C           5.0198   -2.4466   18.4887 C.ar    1  UNL1        0.0000
     34 C           4.7876   -1.7436   19.7932 C.ar    1  UNL1        0.0015
@<TRIPOS>BOND
     1    22    23    3
     2    23    19    1
     3    19    15    1
     4    15    16   am
     5    16    17    2
     6     9    16    1
     7     9    10    1
     8    10    11    1
     9    11    12    1
    10    12    13    1
    11    13    14    1
    12    14     1    1
    13     1     2    2
    14     1     3   am
    15     3     4    1
    16     4     5    1
    17     5     6    1
    18     6    24    1
    19    24    25   ar
    20    25    26   ar
    21    26    29    1
    22    29    30   ar
    23    30    31   ar
    24    31    32   ar
    25    32    33   ar
    26    33    34   ar
    27    26    27   ar
    28    27    28   ar
    29     6     7    1
    30     7     8    1
    31    19    20    1
    32    20    21    1
    33    21    19    1
    34    14     9    1
    35     8     3    1
    36    28    24   ar
    37    34    29   ar
    38    15    18    1
@<TRIPOS>MOLECULE
*****
 34 38 0 0 0
SMALL
GASTEIGER

@<TRIPOS>ATOM
      1 C         -16.9956    3.4148   19.5454 C.2     1  UNL1        0.2257
      2 O         -18.3443    3.7021   20.1358 O.2     1  UNL1       -0.2749
      3 N         -16.4699    2.0101   19.5244 N.am    1  UNL1       -0.2760
      4 C         -15.1211    1.7229   18.9340 C.3     1  UNL1        0.1149
      5 C         -14.5954    0.3182   18.9130 C.3     1  UNL1        0.1141
      6 N         -15.4184   -0.7993   19.4823 N.pl3   1  UNL1       -0.2846
      7 C         -16.7670   -0.5120   20.0726 C.3     1  UNL1        0.1141
      8 C         -17.2928    0.8927   20.0937 C.3     1  UNL1        0.1149
      9 C         -15.2948    5.3508   19.8758 C.3     1  UNL1        0.0851
     10 C         -14.4718    6.4682   19.3066 C.3     1  UNL1        0.0096
     11 C         -14.5267    6.7671   17.8377 C.3     1  UNL1        0.0005
     12 C         -15.4045    5.9485   16.9380 C.3     1  UNL1        0.0005
     13 C         -16.2275    4.8311   17.5073 C.3     1  UNL1        0.0096
     14 C         -16.1726    4.5323   18.9761 C.3     1  UNL1        0.0853
     15 N         -16.4635    5.2336   22.1932 N.am    1  UNL1       -0.2959
     16 C         -15.2400    5.0520   21.3447 C.2     1  UNL1        0.2231
     17 O         -13.9616    4.5714   21.9651 O.2     1  UNL1       -0.2751
     18 H         -17.3025    5.5490   21.7860 H       1  UNL1        0.1502
     19 C         -16.4087    4.9347   23.6622 C.3     1  UNL1        0.1364
     20 C         -16.1791    5.1265   25.1320 C.3     1  UNL1        0.0353
     21 C         -15.8864    6.2440   24.1750 C.3     1  UNL1        0.0353
     22 N         -17.4152    2.1086   23.6566 N.1     1  UNL1       -0.1943
     23 C         -16.9120    3.5217   23.6593 C.1     1  UNL1        0.0896
     24 C         -14.8926   -2.2039   19.4612 C.ar    1  UNL1        0.1631
     25 N         -13.4745   -2.6106   19.1902 N.ar    1  UNL1       -0.2240
     26 C         -13.3981   -4.1066   19.2690 C.ar    1  UNL1        0.0897
     27 C         -14.7690   -4.6245   19.5887 C.ar    1  UNL1        0.0572
     28 S         -15.6927   -3.4486   19.7075 S.2     1  UNL1       -0.0510
     29 C         -12.1669   -4.9386   19.0640 C.ar    1  UNL1        0.0182
     30 C         -12.2809   -6.4292   18.9417 C.ar    1  UNL1        0.0015
     31 C         -11.0498   -7.2612   18.7368 C.ar    1  UNL1        0.0000
     32 C          -9.7046   -6.6025   18.6541 C.ar    1  UNL1        0.0000
     33 C          -9.5907   -5.1119   18.7763 C.ar    1  UNL1        0.0000
     34 C         -10.8219   -4.2799   18.9813 C.ar    1  UNL1        0.0015
@<TRIPOS>BOND
     1    22    23    3
     2    23    19    1
     3    19    15    1
     4    15    16   am
     5    16    17    2
     6     9    16    1
     7     9    10    1
     8    10    11    1
     9    11    12    1
    10    12    13    1
    11    13    14    1
    12    14     1    1
    13     1     2    2
    14     1     3   am
    15     3     4    1
    16     4     5    1
    17     5     6    1
    18     6    24    1
    19    24    25   ar
    20    25    26   ar
    21    26    29    1
    22    29    30   ar
    23    30    31   ar
    24    31    32   ar
    25    32    33   ar
    26    33    34   ar
    27    26    27   ar
    28    27    28   ar
    29     6     7    1
    30     7     8    1
    31    19    20    1
    32    20    21    1
    33    21    19    1
    34    14     9    1
    35     8     3    1
    36    28    24   ar
    37    34    29   ar
    38    15    18    1
@<TRIPOS>MOLECULE
*****
 34 38 0 0 0
SMALL
GASTEIGER

@<TRIPOS>ATOM
      1 C           6.5376   -0.2959   29.9509 C.2     1  UNL1        0.2257
      2 O           7.7710    0.5296   30.1680 O.2     1  UNL1       -0.2749
      3 N           6.0584   -0.5763   28.5574 N.am    1  UNL1       -0.2760
      4 C           4.8249   -1.4018   28.3404 C.3     1  UNL1        0.1149
      5 C           4.3457   -1.6822   26.9469 C.3     1  UNL1        0.1141
      6 N           5.1001   -1.1371   25.7705 N.pl3   1  UNL1       -0.2846
      7 C           6.3335   -0.3117   25.9876 C.3     1  UNL1        0.1141
      8 C           6.8127   -0.0312   27.3811 C.3     1  UNL1        0.1149
      9 C           6.0328   -2.2447   31.5933 C.3     1  UNL1        0.0851
     10 C           5.2785   -2.7898   32.7696 C.3     1  UNL1        0.0096
     11 C           4.2746   -1.9311   33.4801 C.3     1  UNL1        0.0005
     12 C           4.0250   -0.5273   33.0141 C.3     1  UNL1        0.0005
     13 C           4.7793    0.0178   31.8378 C.3     1  UNL1        0.0096
     14 C           5.7832   -0.8409   31.1273 C.3     1  UNL1        0.0853
     15 N           6.5736   -4.1981   29.9679 N.am    1  UNL1       -0.2959
     16 C           7.0368   -3.1034   30.8827 C.2     1  UNL1        0.2231
     17 O           8.5039   -2.8674   31.0872 O.2     1  UNL1       -0.2751
     18 H           5.6107   -4.3530   29.8337 H       1  UNL1        0.1502
     19 C           7.5776   -5.0568   29.2573 C.3     1  UNL1        0.1364
     20 C           8.5388   -6.1780   28.9947 C.3     1  UNL1        0.0353
     21 C           7.8031   -6.1110   30.3003 C.3     1  UNL1        0.0353
     22 N           7.8234   -3.5447   26.6780 N.1     1  UNL1       -0.1943
     23 C           7.7005   -4.3008   27.9677 C.1     1  UNL1        0.0896
     24 C           4.6209   -1.4175   24.3770 C.ar    1  UNL1        0.1631
     25 N           3.7948   -0.4983   23.5270 N.ar    1  UNL1       -0.2240
     26 C           3.5470   -1.1790   22.2135 C.ar    1  UNL1        0.0897
     27 C           4.2200   -2.5190   22.2518 C.ar    1  UNL1        0.0572
     28 S           4.8837   -2.6664   23.5889 S.2     1  UNL1       -0.0510
     29 C           2.7638   -0.6182   21.0638 C.ar    1  UNL1        0.0182
     30 C           1.3551   -0.1479   21.2745 C.ar    1  UNL1        0.0015
     31 C           0.5719    0.4129   20.1247 C.ar    1  UNL1        0.0000
     32 C           1.1973    0.5034   18.7643 C.ar    1  UNL1        0.0000
     33 C           2.6060    0.0330   18.5536 C.ar    1  UNL1        0.0000
     34 C           3.3892   -0.5278   19.7034 C.ar    1  UNL1        0.0015
@<TRIPOS>BOND
     1    22    23    3
     2    23    19    1
     3    19    15    1
     4    15    16   am
     5    16    17    2
     6     9    16    1
     7     9    10    1
     8    10    11    1
     9    11    12    1
    10    12    13    1
    11    13    14    1
    12    14     1    1
    13     1     2    2
    14     1     3   am
    15     3     4    1
    16     4     5    1
    17     5     6    1
    18     6    24    1
    19    24    25   ar
    20    25    26   ar
    21    26    29    1
    22    29    30   ar
    23    30    31   ar
    24    31    32   ar
    25    32    33   ar
    26    33    34   ar
    27    26    27   ar
    28    27    28   ar
    29     6     7    1
    30     7     8    1
    31    19    20    1
    32    20    21    1
    33    21    19    1
    34    14     9    1
    35     8     3    1
    36    28    24   ar
    37    34    29   ar
    38    15    18    1
@<TRIPOS>MOLECULE
*****
 34 38 0 0 0
SMALL
GASTEIGER

@<TRIPOS>ATOM
      1 C           5.1415    0.4912   35.3979 C.2     1  UNL1        0.2257
      2 O           4.4695   -0.1981   36.5482 O.2     1  UNL1       -0.2749
      3 N           5.4038   -0.2572   34.1247 N.am    1  UNL1       -0.2760
      4 C           6.0758    0.4321   32.9743 C.3     1  UNL1        0.1149
      5 C           6.3381   -0.3163   31.7011 C.3     1  UNL1        0.1141
      6 N           5.9283   -1.7541   31.5782 N.pl3   1  UNL1       -0.2846
      7 C           5.2563   -2.4433   32.7286 C.3     1  UNL1        0.1141
      8 C           4.9940   -1.6949   34.0018 C.3     1  UNL1        0.1149
      9 C           4.6695    3.0099   34.9693 C.3     1  UNL1        0.0851
     10 C           5.0792    4.4475   35.0921 C.3     1  UNL1        0.0096
     11 C           6.3707    4.8043   35.7664 C.3     1  UNL1        0.0005
     12 C           7.2525    3.7234   36.3178 C.3     1  UNL1        0.0005
     13 C           6.8428    2.2857   36.1950 C.3     1  UNL1        0.0096
     14 C           5.5513    1.9290   35.5207 C.3     1  UNL1        0.0853
     15 N           3.2660    2.7283   32.8011 N.am    1  UNL1       -0.2959
     16 C           3.3780    2.6530   34.2950 C.2     1  UNL1        0.2231
     17 O           2.1984    2.2209   35.1146 O.2     1  UNL1       -0.2751
     18 H           4.0403    3.0119   32.2631 H       1  UNL1        0.1502
     19 C           1.9745    2.3714   32.1268 C.3     1  UNL1        0.1364
     20 C           0.5817    2.5075   31.5868 C.3     1  UNL1        0.0353
     21 C           1.2343    3.6671   32.2795 C.3     1  UNL1        0.0353
     22 N           2.5581   -0.4678   31.3532 N.1     1  UNL1       -0.1943
     23 C           2.2663    0.9518   31.7400 C.1     1  UNL1        0.0896
     24 C           6.1905   -2.5025   30.3050 C.ar    1  UNL1        0.1631
     25 N           6.6364   -3.9307   30.1976 N.ar    1  UNL1       -0.2240
     26 C           6.7744   -4.2650   28.7419 C.ar    1  UNL1        0.0897
     27 C           6.4138   -3.0435   27.9496 C.ar    1  UNL1        0.0572
     28 S           6.0530   -1.9542   28.9156 S.2     1  UNL1       -0.0510
     29 C           7.1985   -5.5885   28.1776 C.ar    1  UNL1        0.0182
     30 C           8.1481   -6.4609   28.9440 C.ar    1  UNL1        0.0015
     31 C           8.5722   -7.7844   28.3797 C.ar    1  UNL1        0.0000
     32 C           8.0468   -8.2355   27.0491 C.ar    1  UNL1        0.0000
     33 C           7.0973   -7.3631   26.2828 C.ar    1  UNL1        0.0000
     34 C           6.6732   -6.0396   26.8471 C.ar    1  UNL1        0.0015
@<TRIPOS>BOND
     1    22    23    3
     2    23    19    1
     3    19    15    1
     4    15    16   am
     5    16    17    2
     6     9    16    1
     7     9    10    1
     8    10    11    1
     9    11    12    1
    10    12    13    1
    11    13    14    1
    12    14     1    1
    13     1     2    2
    14     1     3   am
    15     3     4    1
    16     4     5    1
    17     5     6    1
    18     6    24    1
    19    24    25   ar
    20    25    26   ar
    21    26    29    1
    22    29    30   ar
    23    30    31   ar
    24    31    32   ar
    25    32    33   ar
    26    33    34   ar
    27    26    27   ar
    28    27    28   ar
    29     6     7    1
    30     7     8    1
    31    19    20    1
    32    20    21    1
    33    21    19    1
    34    14     9    1
    35     8     3    1
    36    28    24   ar
    37    34    29   ar
    38    15    18    1
@<TRIPOS>MOLECULE
*****
 34 38 0 0 0
SMALL
GASTEIGER

@<TRIPOS>ATOM
      1 C           5.4843   -0.2429   35.7672 C.2     1  UNL1        0.2257
      2 O           4.1652   -0.3824   36.4673 O.2     1  UNL1       -0.2749
      3 N           5.7065   -0.9154   34.4449 N.am    1  UNL1       -0.2760
      4 C           7.0257   -0.7759   33.7448 C.3     1  UNL1        0.1149
      5 C           7.2479   -1.4484   32.4225 C.3     1  UNL1        0.1141
      6 N           6.1507   -2.2604   31.8004 N.pl3   1  UNL1       -0.2846
      7 C           4.8315   -2.3999   32.5005 C.3     1  UNL1        0.1141
      8 C           4.6094   -1.7274   33.8228 C.3     1  UNL1        0.1149
      9 C           6.5231    2.0673   36.3452 C.3     1  UNL1        0.0851
     10 C           7.6201    2.8793   36.9673 C.3     1  UNL1        0.0096
     11 C           8.7756    2.1931   37.6335 C.3     1  UNL1        0.0005
     12 C           8.8341    0.6949   37.6776 C.3     1  UNL1        0.0005
     13 C           7.7370   -0.1171   37.0555 C.3     1  UNL1        0.0096
     14 C           6.5815    0.5691   36.3893 C.3     1  UNL1        0.0853
     15 N           3.9883    2.6301   36.2555 N.am    1  UNL1       -0.2959
     16 C           5.3675    2.7535   35.6789 C.2     1  UNL1        0.2231
     17 O           5.5912    3.5630   34.4361 O.2     1  UNL1       -0.2751
     18 H           3.8414    2.0988   37.0712 H       1  UNL1        0.1502
     19 C           2.8327    3.3163   35.5892 C.3     1  UNL1        0.1364
     20 C           1.7482    4.3197   35.3300 C.3     1  UNL1        0.0353
     21 C           2.6362    4.4680   36.5299 C.3     1  UNL1        0.0353
     22 N           2.4232    1.4893   33.2452 N.1     1  UNL1       -0.1943
     23 C           2.6280    2.4029   34.4172 C.1     1  UNL1        0.0896
     24 C           6.3728   -2.9329   30.4781 C.ar    1  UNL1        0.1631
     25 N           6.8333   -4.3458   30.2738 N.ar    1  UNL1       -0.2240
     26 C           6.9186   -4.5967   28.7974 C.ar    1  UNL1        0.0897
     27 C           6.5107   -3.3389   28.0892 C.ar    1  UNL1        0.0572
     28 S           6.1734   -2.3106   29.1279 S.2     1  UNL1       -0.0510
     29 C           7.3380   -5.8801   28.1439 C.ar    1  UNL1        0.0182
     30 C           8.2893   -6.8031   28.8461 C.ar    1  UNL1        0.0015
     31 C           8.7088   -8.0865   28.1927 C.ar    1  UNL1        0.0000
     32 C           8.1769   -8.4468   26.8372 C.ar    1  UNL1        0.0000
     33 C           7.2256   -7.5237   26.1351 C.ar    1  UNL1        0.0000
     34 C           6.8062   -6.2403   26.7885 C.ar    1  UNL1        0.0015
@<TRIPOS>BOND
     1    22    23    3
     2    23    19    1
     3    19    15    1
     4    15    16   am
     5    16    17    2
     6     9    16    1
     7     9    10    1
     8    10    11    1
     9    11    12    1
    10    12    13    1
    11    13    14    1
    12    14     1    1
    13     1     2    2
    14     1     3   am
    15     3     4    1
    16     4     5    1
    17     5     6    1
    18     6    24    1
    19    24    25   ar
    20    25    26   ar
    21    26    29    1
    22    29    30   ar
    23    30    31   ar
    24    31    32   ar
    25    32    33   ar
    26    33    34   ar
    27    26    27   ar
    28    27    28   ar
    29     6     7    1
    30     7     8    1
    31    19    20    1
    32    20    21    1
    33    21    19    1
    34    14     9    1
    35     8     3    1
    36    28    24   ar
    37    34    29   ar
    38    15    18    1
