@<TRIPOS>MOLECULE
*****
 23 25 0 0 0
SMALL
GASTEIGER

@<TRIPOS>ATOM
      1 C          -7.9203  -17.9467   21.7136 C.3     1  UNL1        0.1471
      2 O          -6.6418  -17.2385   22.0511 O.3     1  UNL1       -0.3812
      3 C          -9.0079  -18.8728   21.2560 C.3     1  UNL1        0.0584
      4 C         -10.3258  -18.2548   21.6180 C.ar    1  UNL1       -0.0202
      5 C         -11.7393  -18.7141   21.4152 C.ar    1  UNL1       -0.0044
      6 C         -12.8796  -17.8653   21.8939 C.ar    1  UNL1       -0.0003
      7 C         -12.6065  -16.5572   22.5752 C.ar    1  UNL1       -0.0002
      8 C         -11.1931  -16.0979   22.7780 C.ar    1  UNL1       -0.0011
      9 C         -10.0528  -16.9466   22.2994 C.ar    1  UNL1        0.0157
     10 C          -8.5660  -16.7563   22.3584 C.3     1  UNL1        0.2137
     11 H          -5.8884  -17.7703   21.7502 H       1  UNL1        0.2105
     12 C          -7.0073  -18.9891   21.1393 C.3     1  UNL1        0.1001
     13 C          -4.7135  -19.2078   19.9389 C.3     1  UNL1        0.0859
     14 N          -6.1028  -18.6448   19.9933 N.3     1  UNL1       -0.2942
     15 H          -6.5769  -18.9482   19.1426 H       1  UNL1        0.1234
     16 O          -7.8507  -15.5817   22.9572 O.3     1  UNL1       -0.4700
     17 C          -7.5258  -15.5683   24.4216 C.ar    1  UNL1        0.1662
     18 C          -8.6108  -15.7928   25.4327 C.ar    1  UNL1        0.0392
     19 C          -8.2859  -15.7794   26.8970 C.ar    1  UNL1        0.0033
     20 C          -6.8759  -15.5416   27.3502 C.ar    1  UNL1        0.0025
     21 C          -5.7909  -15.3171   26.3391 C.ar    1  UNL1        0.0328
     22 C          -6.1158  -15.3305   24.8748 C.ar    1  UNL1        0.1738
     23 F          -5.0307  -15.1060   23.8638 F       1  UNL1       -0.2010
@<TRIPOS>BOND
     1    13    14    1
     2    14    12    1
     3    12     1    1
     4     1     2    1
     5     1     3    1
     6     3     4    1
     7     4     5   ar
     8     5     6   ar
     9     6     7   ar
    10     7     8   ar
    11     8     9   ar
    12     9    10    1
    13    10    16    1
    14    16    17    1
    15    17    18   ar
    16    18    19   ar
    17    19    20   ar
    18    20    21   ar
    19    21    22   ar
    20    22    23    1
    21    10     1    1
    22    22    17   ar
    23     9     4   ar
    24    14    15    1
    25     2    11    1
@<TRIPOS>MOLECULE
*****
 23 25 0 0 0
SMALL
GASTEIGER

@<TRIPOS>ATOM
      1 C          -9.5802  -17.1344   21.7680 C.3     1  UNL1        0.1471
      2 O         -10.0453  -15.7947   22.2570 O.3     1  UNL1       -0.3812
      3 C          -9.4093  -18.5011   21.1739 C.3     1  UNL1        0.0584
      4 C          -7.9937  -18.9363   21.4120 C.ar    1  UNL1       -0.0202
      5 C          -7.2547  -20.1903   21.0496 C.ar    1  UNL1       -0.0044
      6 C          -5.8119  -20.3466   21.4285 C.ar    1  UNL1       -0.0003
      7 C          -5.1079  -19.2489   22.1698 C.ar    1  UNL1       -0.0002
      8 C          -5.8468  -17.9949   22.5322 C.ar    1  UNL1       -0.0011
      9 C          -7.2897  -17.8386   22.1533 C.ar    1  UNL1        0.0157
     10 C          -8.2703  -16.7250   22.3733 C.3     1  UNL1        0.2137
     11 H         -10.9784  -15.6711   22.0226 H       1  UNL1        0.2105
     12 C         -10.9874  -17.2638   21.2650 C.3     1  UNL1        0.1001
     13 C         -11.7069  -15.7242   19.2998 C.3     1  UNL1        0.0859
     14 N         -11.2835  -17.0707   19.8072 N.3     1  UNL1       -0.2942
     15 H         -10.4363  -17.3239   19.2986 H       1  UNL1        0.1234
     16 O          -7.9900  -15.4293   23.0753 O.3     1  UNL1       -0.4700
     17 C          -7.5728  -15.4320   24.5163 C.ar    1  UNL1        0.1662
     18 C          -8.5990  -15.6218   25.5938 C.ar    1  UNL1        0.0392
     19 C          -8.1819  -15.6245   27.0346 C.ar    1  UNL1        0.0033
     20 C          -6.7387  -15.4373   27.3979 C.ar    1  UNL1        0.0025
     21 C          -5.7125  -15.2476   26.3204 C.ar    1  UNL1        0.0328
     22 C          -6.1296  -15.2449   24.8796 C.ar    1  UNL1        0.1738
     23 F          -5.1035  -15.0551   23.8021 F       1  UNL1       -0.2010
@<TRIPOS>BOND
     1    13    14    1
     2    14    12    1
     3    12     1    1
     4     1     2    1
     5     1     3    1
     6     3     4    1
     7     4     5   ar
     8     5     6   ar
     9     6     7   ar
    10     7     8   ar
    11     8     9   ar
    12     9    10    1
    13    10    16    1
    14    16    17    1
    15    17    18   ar
    16    18    19   ar
    17    19    20   ar
    18    20    21   ar
    19    21    22   ar
    20    22    23    1
    21    10     1    1
    22    22    17   ar
    23     9     4   ar
    24    14    15    1
    25     2    11    1
@<TRIPOS>MOLECULE
*****
 23 25 0 0 0
SMALL
GASTEIGER

@<TRIPOS>ATOM
      1 C          -6.5981  -15.9809   23.5211 C.3     1  UNL1        0.1471
      2 O          -7.5121  -14.8090   23.7240 O.3     1  UNL1       -0.3812
      3 C          -5.4974  -16.9999   23.5183 C.3     1  UNL1        0.0584
      4 C          -5.9018  -18.1166   22.6020 C.ar    1  UNL1       -0.0202
      5 C          -5.2146  -19.3903   22.2079 C.ar    1  UNL1       -0.0044
      6 C          -5.8781  -20.3352   21.2504 C.ar    1  UNL1       -0.0003
      7 C          -7.2288  -20.0064   20.6870 C.ar    1  UNL1       -0.0002
      8 C          -7.9160  -18.7326   21.0810 C.ar    1  UNL1       -0.0011
      9 C          -7.2525  -17.7878   22.0385 C.ar    1  UNL1        0.0157
     10 C          -7.6828  -16.4679   22.6066 C.3     1  UNL1        0.2137
     11 H          -7.1027  -14.1828   24.3414 H       1  UNL1        0.2105
     12 C          -5.7045  -15.2491   24.4780 C.3     1  UNL1        0.1001
     13 C          -6.5754  -15.4992   26.9130 C.3     1  UNL1        0.0859
     14 N          -6.2782  -14.6375   25.7217 N.3     1  UNL1       -0.2942
     15 H          -5.6174  -13.9249   26.0313 H       1  UNL1        0.1234
     16 O          -8.9716  -15.7593   22.3118 O.3     1  UNL1       -0.4700
     17 C         -10.2726  -16.5009   22.4002 C.ar    1  UNL1        0.1662
     18 C         -10.5771  -17.3401   23.6057 C.ar    1  UNL1        0.0392
     19 C         -11.8778  -18.0817   23.6942 C.ar    1  UNL1        0.0033
     20 C         -12.8742  -17.9842   22.5771 C.ar    1  UNL1        0.0025
     21 C         -12.5697  -17.1451   21.3716 C.ar    1  UNL1        0.0328
     22 C         -11.2689  -16.4034   21.2832 C.ar    1  UNL1        0.1738
     23 F         -10.9644  -15.5643   20.0777 F       1  UNL1       -0.2010
@<TRIPOS>BOND
     1    13    14    1
     2    14    12    1
     3    12     1    1
     4     1     2    1
     5     1     3    1
     6     3     4    1
     7     4     5   ar
     8     5     6   ar
     9     6     7   ar
    10     7     8   ar
    11     8     9   ar
    12     9    10    1
    13    10    16    1
    14    16    17    1
    15    17    18   ar
    16    18    19   ar
    17    19    20   ar
    18    20    21   ar
    19    21    22   ar
    20    22    23    1
    21    10     1    1
    22    22    17   ar
    23     9     4   ar
    24    14    15    1
    25     2    11    1
@<TRIPOS>MOLECULE
*****
 23 25 0 0 0
SMALL
GASTEIGER

@<TRIPOS>ATOM
      1 C          -8.0199  -16.1578   23.5890 C.3     1  UNL1        0.1471
      2 O          -6.9804  -15.5963   22.6649 O.3     1  UNL1       -0.3812
      3 C          -8.9927  -16.4678   24.6879 C.3     1  UNL1        0.0584
      4 C          -9.6962  -17.7455   24.3375 C.ar    1  UNL1       -0.0202
      5 C         -10.7571  -18.5341   25.0464 C.ar    1  UNL1       -0.0044
      6 C         -11.2800  -19.8024   24.4398 C.ar    1  UNL1       -0.0003
      7 C         -10.7419  -20.2821   23.1243 C.ar    1  UNL1       -0.0002
      8 C          -9.6810  -19.4935   22.4155 C.ar    1  UNL1       -0.0011
      9 C          -9.1581  -18.2252   23.0221 C.ar    1  UNL1        0.0157
     10 C          -8.1222  -17.2440   22.5595 C.3     1  UNL1        0.2137
     11 H          -6.6270  -14.7734   23.0376 H       1  UNL1        0.2105
     12 C          -7.7004  -14.9544   24.4253 C.3     1  UNL1        0.1001
     13 C          -5.6077  -15.1692   25.9499 C.3     1  UNL1        0.0859
     14 N          -6.2724  -14.6087   24.7276 N.3     1  UNL1       -0.2942
     15 H          -5.7198  -14.9132   23.9261 H       1  UNL1        0.1234
     16 O          -7.3279  -17.3332   21.2901 O.3     1  UNL1       -0.4700
     17 C          -6.4581  -18.5278   21.0321 C.ar    1  UNL1        0.1662
     18 C          -5.1226  -18.6426   21.7052 C.ar    1  UNL1        0.0392
     19 C          -4.2528  -19.8371   21.4472 C.ar    1  UNL1        0.0033
     20 C          -4.7186  -20.9169   20.5160 C.ar    1  UNL1        0.0025
     21 C          -6.0541  -20.8021   19.8429 C.ar    1  UNL1        0.0328
     22 C          -6.9239  -19.6076   20.1009 C.ar    1  UNL1        0.1738
     23 F          -8.2594  -19.4928   19.4277 F       1  UNL1       -0.2010
@<TRIPOS>BOND
     1    13    14    1
     2    14    12    1
     3    12     1    1
     4     1     2    1
     5     1     3    1
     6     3     4    1
     7     4     5   ar
     8     5     6   ar
     9     6     7   ar
    10     7     8   ar
    11     8     9   ar
    12     9    10    1
    13    10    16    1
    14    16    17    1
    15    17    18   ar
    16    18    19   ar
    17    19    20   ar
    18    20    21   ar
    19    21    22   ar
    20    22    23    1
    21    10     1    1
    22    22    17   ar
    23     9     4   ar
    24    14    15    1
    25     2    11    1
@<TRIPOS>MOLECULE
*****
 23 25 0 0 0
SMALL
GASTEIGER

@<TRIPOS>ATOM
      1 C          -6.1327  -16.3065   23.7991 C.3     1  UNL1        0.1471
      2 O          -4.8209  -16.0308   24.4723 O.3     1  UNL1       -0.3812
      3 C          -7.5404  -16.3274   23.2815 C.3     1  UNL1        0.0584
      4 C          -7.6773  -17.5015   22.3581 C.ar    1  UNL1       -0.0202
      5 C          -8.8359  -18.0200   21.5587 C.ar    1  UNL1       -0.0044
      6 C          -8.6713  -19.2431   20.7063 C.ar    1  UNL1       -0.0003
      7 C          -7.3482  -19.9479   20.6531 C.ar    1  UNL1       -0.0002
      8 C          -6.1897  -19.4294   21.4525 C.ar    1  UNL1       -0.0011
      9 C          -6.3543  -18.2063   22.3049 C.ar    1  UNL1        0.0157
     10 C          -5.3996  -17.4677   23.1956 C.3     1  UNL1        0.2137
     11 H          -4.9035  -15.2418   25.0305 H       1  UNL1        0.2105
     12 C          -6.5915  -15.0877   24.5434 C.3     1  UNL1        0.1001
     13 C          -6.7019  -15.2760   27.1323 C.3     1  UNL1        0.0859
     14 N          -6.0197  -14.7743   25.8942 N.3     1  UNL1       -0.2942
     15 H          -5.0718  -15.1507   25.9073 H       1  UNL1        0.1234
     16 O          -3.9640  -17.8272   23.4397 O.3     1  UNL1       -0.4700
     17 C          -3.0255  -17.9954   22.2816 C.ar    1  UNL1        0.1662
     18 C          -2.7664  -19.3613   21.7185 C.ar    1  UNL1        0.0392
     19 C          -1.8280  -19.5296   20.5605 C.ar    1  UNL1        0.0033
     20 C          -1.1487  -18.3318   19.9656 C.ar    1  UNL1        0.0025
     21 C          -1.4078  -16.9659   20.5287 C.ar    1  UNL1        0.0328
     22 C          -2.3462  -16.7977   21.6867 C.ar    1  UNL1        0.1738
     23 F          -2.6053  -15.4317   22.2498 F       1  UNL1       -0.2010
@<TRIPOS>BOND
     1    13    14    1
     2    14    12    1
     3    12     1    1
     4     1     2    1
     5     1     3    1
     6     3     4    1
     7     4     5   ar
     8     5     6   ar
     9     6     7   ar
    10     7     8   ar
    11     8     9   ar
    12     9    10    1
    13    10    16    1
    14    16    17    1
    15    17    18   ar
    16    18    19   ar
    17    19    20   ar
    18    20    21   ar
    19    21    22   ar
    20    22    23    1
    21    10     1    1
    22    22    17   ar
    23     9     4   ar
    24    14    15    1
    25     2    11    1
@<TRIPOS>MOLECULE
*****
 23 25 0 0 0
SMALL
GASTEIGER

@<TRIPOS>ATOM
      1 C         -15.1196   -7.3433   19.2087 C.3     1  UNL1        0.1471
      2 O         -14.1335   -8.4557   19.0086 O.3     1  UNL1       -0.3812
      3 C         -16.3187   -6.4599   19.3866 C.3     1  UNL1        0.0584
      4 C         -15.8347   -5.0509   19.5610 C.ar    1  UNL1       -0.0202
      5 C         -16.5647   -3.7580   19.7746 C.ar    1  UNL1       -0.0044
      6 C         -15.7963   -2.4778   19.9181 C.ar    1  UNL1       -0.0003
      7 C         -14.2980   -2.4904   19.8480 C.ar    1  UNL1       -0.0002
      8 C         -13.5680   -3.7832   19.6344 C.ar    1  UNL1       -0.0011
      9 C         -14.3364   -5.0635   19.4909 C.ar    1  UNL1        0.0157
     10 C         -13.8945   -6.4803   19.2732 C.3     1  UNL1        0.2137
     11 H         -14.6088   -9.2959   18.9131 H       1  UNL1        0.2105
     12 C         -16.1386   -8.4389   19.1024 C.3     1  UNL1        0.1001
     13 C         -16.7248  -10.8941   18.4872 C.3     1  UNL1        0.0859
     14 N         -15.7026   -9.8420   18.8008 N.3     1  UNL1       -0.2942
     15 H         -15.0776   -9.7897   17.9963 H       1  UNL1        0.1234
     16 O         -12.4763   -6.9513   19.1428 O.3     1  UNL1       -0.4700
     17 C         -11.4980   -6.1667   18.3197 C.ar    1  UNL1        0.1662
     18 C         -10.3319   -5.4934   18.9806 C.ar    1  UNL1        0.0392
     19 C          -9.3537   -4.7088   18.1575 C.ar    1  UNL1        0.0033
     20 C          -9.5416   -4.5975   16.6735 C.ar    1  UNL1        0.0025
     21 C         -10.7077   -5.2708   16.0126 C.ar    1  UNL1        0.0328
     22 C         -11.6860   -6.0554   16.8356 C.ar    1  UNL1        0.1738
     23 F         -12.8521   -6.7287   16.1747 F       1  UNL1       -0.2010
@<TRIPOS>BOND
     1    13    14    1
     2    14    12    1
     3    12     1    1
     4     1     2    1
     5     1     3    1
     6     3     4    1
     7     4     5   ar
     8     5     6   ar
     9     6     7   ar
    10     7     8   ar
    11     8     9   ar
    12     9    10    1
    13    10    16    1
    14    16    17    1
    15    17    18   ar
    16    18    19   ar
    17    19    20   ar
    18    20    21   ar
    19    21    22   ar
    20    22    23    1
    21    10     1    1
    22    22    17   ar
    23     9     4   ar
    24    14    15    1
    25     2    11    1
@<TRIPOS>MOLECULE
*****
 23 25 0 0 0
SMALL
GASTEIGER

@<TRIPOS>ATOM
      1 C          -7.2005  -16.7243   23.0843 C.3     1  UNL1        0.1471
      2 O          -5.8657  -17.0450   23.6889 O.3     1  UNL1       -0.3812
      3 C          -8.5094  -16.1383   22.6448 C.3     1  UNL1        0.0584
      4 C          -9.1630  -17.1126   21.7101 C.ar    1  UNL1       -0.0202
      5 C         -10.4653  -17.0713   20.9670 C.ar    1  UNL1       -0.0044
      6 C         -10.8625  -18.2183   20.0857 C.ar    1  UNL1       -0.0003
      7 C          -9.9575  -19.4065   19.9476 C.ar    1  UNL1       -0.0002
      8 C          -8.6552  -19.4477   20.6908 C.ar    1  UNL1       -0.0011
      9 C          -8.2580  -18.3008   21.5720 C.ar    1  UNL1        0.0157
     10 C          -7.0451  -18.0608   22.4213 C.3     1  UNL1        0.2137
     11 H          -5.5877  -16.3153   24.2644 H       1  UNL1        0.2105
     12 C          -7.0768  -15.4548   23.8737 C.3     1  UNL1        0.1001
     13 C          -5.7296  -15.1102   26.0683 C.3     1  UNL1        0.0859
     14 N          -5.7891  -15.1267   24.5696 N.3     1  UNL1       -0.2942
     15 H          -5.1017  -15.8115   24.2551 H       1  UNL1        0.1234
     16 O          -5.8811  -18.9936   22.5798 O.3     1  UNL1       -0.4700
     17 C          -4.7372  -18.9369   21.6111 C.ar    1  UNL1        0.1662
     18 C          -3.5757  -18.0251   21.8747 C.ar    1  UNL1        0.0392
     19 C          -2.4318  -17.9683   20.9061 C.ar    1  UNL1        0.0033
     20 C          -2.4495  -18.8234   19.6738 C.ar    1  UNL1        0.0025
     21 C          -3.6110  -19.7352   19.4102 C.ar    1  UNL1        0.0328
     22 C          -4.7548  -19.7920   20.3788 C.ar    1  UNL1        0.1738
     23 F          -5.9163  -20.7038   20.1152 F       1  UNL1       -0.2010
@<TRIPOS>BOND
     1    13    14    1
     2    14    12    1
     3    12     1    1
     4     1     2    1
     5     1     3    1
     6     3     4    1
     7     4     5   ar
     8     5     6   ar
     9     6     7   ar
    10     7     8   ar
    11     8     9   ar
    12     9    10    1
    13    10    16    1
    14    16    17    1
    15    17    18   ar
    16    18    19   ar
    17    19    20   ar
    18    20    21   ar
    19    21    22   ar
    20    22    23    1
    21    10     1    1
    22    22    17   ar
    23     9     4   ar
    24    14    15    1
    25     2    11    1
@<TRIPOS>MOLECULE
*****
 23 25 0 0 0
SMALL
GASTEIGER

@<TRIPOS>ATOM
      1 C         -11.5054   -6.5106   18.1210 C.3     1  UNL1        0.1471
      2 O         -12.2675   -7.4858   18.9684 O.3     1  UNL1       -0.3812
      3 C         -10.6311   -5.7934   17.1355 C.3     1  UNL1        0.0584
      4 C         -10.7872   -4.3192   17.3642 C.ar    1  UNL1       -0.0202
      5 C         -10.1707   -3.1284   16.6920 C.ar    1  UNL1       -0.0044
      6 C         -10.5252   -1.7436   17.1466 C.ar    1  UNL1       -0.0003
      7 C         -11.4960   -1.5496   18.2735 C.ar    1  UNL1       -0.0002
      8 C         -12.1125   -2.7404   18.9457 C.ar    1  UNL1       -0.0011
      9 C         -11.7580   -4.1252   18.4911 C.ar    1  UNL1        0.0157
     10 C         -12.2019   -5.4795   18.9588 C.3     1  UNL1        0.2137
     11 H         -12.0536   -8.3906   18.6918 H       1  UNL1        0.2105
     12 C         -10.9682   -7.7454   17.4604 C.3     1  UNL1        0.1001
     13 C          -9.0021   -7.8801   19.1534 C.3     1  UNL1        0.0859
     14 N          -9.8688   -8.5284   18.1149 N.3     1  UNL1       -0.2942
     15 H         -10.3063   -9.3358   18.5587 H       1  UNL1        0.1234
     16 O         -13.1720   -5.7546   20.0693 O.3     1  UNL1       -0.4700
     17 C         -14.6345   -5.4860   19.8714 C.ar    1  UNL1        0.1662
     18 C         -15.4988   -6.5053   19.1902 C.ar    1  UNL1        0.0392
     19 C         -16.9612   -6.2368   18.9922 C.ar    1  UNL1        0.0033
     20 C         -17.5593   -4.9489   19.4754 C.ar    1  UNL1        0.0025
     21 C         -16.6951   -3.9296   20.1566 C.ar    1  UNL1        0.0328
     22 C         -15.2327   -4.1981   20.3546 C.ar    1  UNL1        0.1738
     23 F         -14.3685   -3.1788   21.0359 F       1  UNL1       -0.2010
@<TRIPOS>BOND
     1    13    14    1
     2    14    12    1
     3    12     1    1
     4     1     2    1
     5     1     3    1
     6     3     4    1
     7     4     5   ar
     8     5     6   ar
     9     6     7   ar
    10     7     8   ar
    11     8     9   ar
    12     9    10    1
    13    10    16    1
    14    16    17    1
    15    17    18   ar
    16    18    19   ar
    17    19    20   ar
    18    20    21   ar
    19    21    22   ar
    20    22    23    1
    21    10     1    1
    22    22    17   ar
    23     9     4   ar
    24    14    15    1
    25     2    11    1
@<TRIPOS>MOLECULE
*****
 23 25 0 0 0
SMALL
GASTEIGER

@<TRIPOS>ATOM
      1 C          -7.1531  -17.5356   22.5279 C.3     1  UNL1        0.1471
      2 O          -5.8757  -17.3820   23.2991 O.3     1  UNL1       -0.3812
      3 C          -8.5285  -17.4510   21.9354 C.3     1  UNL1        0.0584
      4 C          -8.6424  -18.5064   20.8756 C.ar    1  UNL1       -0.0202
      5 C          -9.7658  -18.8916   19.9594 C.ar    1  UNL1       -0.0044
      6 C          -9.5842  -20.0137   18.9807 C.ar    1  UNL1       -0.0003
      7 C          -8.2792  -20.7506   18.9182 C.ar    1  UNL1       -0.0002
      8 C          -7.1557  -20.3654   19.8344 C.ar    1  UNL1       -0.0011
      9 C          -7.3373  -19.2433   20.8131 C.ar    1  UNL1        0.0157
     10 C          -6.4169  -18.6433   21.8343 C.3     1  UNL1        0.2137
     11 H          -5.9698  -16.6599   23.9400 H       1  UNL1        0.2105
     12 C          -7.6222  -16.3958   23.3828 C.3     1  UNL1        0.1001
     13 C          -7.5723  -15.5317   25.8324 C.3     1  UNL1        0.0859
     14 N          -6.8487  -16.0098   24.6086 N.3     1  UNL1       -0.2942
     15 H          -6.3094  -16.8296   24.8868 H       1  UNL1        0.1234
     16 O          -5.0077  -19.0752   22.1129 O.3     1  UNL1       -0.4700
     17 C          -3.8891  -18.5961   21.2358 C.ar    1  UNL1        0.1662
     18 C          -3.8566  -18.9783   19.7857 C.ar    1  UNL1        0.0392
     19 C          -2.7381  -18.4993   18.9086 C.ar    1  UNL1        0.0033
     20 C          -1.6520  -17.6379   19.4817 C.ar    1  UNL1        0.0025
     21 C          -1.6844  -17.2557   20.9318 C.ar    1  UNL1        0.0328
     22 C          -2.8029  -17.7347   21.8089 C.ar    1  UNL1        0.1738
     23 F          -2.8354  -17.3525   23.2590 F       1  UNL1       -0.2010
@<TRIPOS>BOND
     1    13    14    1
     2    14    12    1
     3    12     1    1
     4     1     2    1
     5     1     3    1
     6     3     4    1
     7     4     5   ar
     8     5     6   ar
     9     6     7   ar
    10     7     8   ar
    11     8     9   ar
    12     9    10    1
    13    10    16    1
    14    16    17    1
    15    17    18   ar
    16    18    19   ar
    17    19    20   ar
    18    20    21   ar
    19    21    22   ar
    20    22    23    1
    21    10     1    1
    22    22    17   ar
    23     9     4   ar
    24    14    15    1
    25     2    11    1
