@<TRIPOS>MOLECULE
*****
 26 28 0 0 0
SMALL
GASTEIGER

@<TRIPOS>ATOM
      1 C          -5.6789  -16.4406   23.5814 C.ar    1  UNL1        0.1389
      2 C          -7.1337  -16.2983   23.2448 C.ar    1  UNL1        0.0369
      3 C          -7.8146  -17.3384   22.4053 C.ar    1  UNL1        0.0074
      4 C          -7.0406  -18.5207   21.9023 C.ar    1  UNL1        0.0369
      5 C          -5.5858  -18.6630   22.2389 C.ar    1  UNL1        0.1389
      6 C          -4.9049  -17.6230   23.0783 C.ar    1  UNL1        0.0617
      7 C          -9.2694  -17.1960   22.0688 C.ar    1  UNL1        0.0177
      8 C          -9.6833  -16.4751   20.8202 C.ar    1  UNL1        0.0783
      9 N         -11.1382  -16.3328   20.4837 N.ar    1  UNL1       -0.2921
     10 C         -11.5521  -15.6118   19.2351 C.3     1  UNL1        0.1336
     11 C         -12.1790  -16.9114   21.3957 C.ar    1  UNL1        0.2624
     12 O         -13.6338  -16.7690   21.0592 O.2     1  UNL1       -0.2669
     13 C         -11.7651  -17.6323   22.6443 C.ar    1  UNL1        0.0753
     14 C         -12.8060  -18.2109   23.5563 C.ar    1  UNL1        0.1036
     15 N         -12.3920  -18.9319   24.8048 N.ar    1  UNL1       -0.2422
     16 C         -10.9372  -19.0742   25.1413 C.ar    1  UNL1        0.0989
     17 C          -9.8963  -18.4956   24.2293 C.ar    1  UNL1        0.0209
     18 C         -10.3103  -17.7747   22.9808 C.ar    1  UNL1        0.0091
     19 C          -5.3463  -15.2635   25.8734 C.3     1  UNL1        0.2525
     20 O          -4.9981  -15.4006   24.4209 O.3     1  UNL1       -0.4716
     21 O          -4.8118  -19.8454   21.7358 O.3     1  UNL1       -0.4716
     22 C          -4.7544  -20.1335   20.2649 C.3     1  UNL1        0.2525
     23 C          -3.4501  -17.7654   23.4149 C.3     1  UNL1        0.1054
     24 N          -2.4097  -17.5261   22.3611 N.3     1  UNL1       -0.2664
     25 C          -2.1432  -16.1331   21.8729 C.3     1  UNL1        0.0899
     26 C          -1.6358  -18.6799   21.7957 C.3     1  UNL1        0.0899
@<TRIPOS>BOND
     1    19    20    1
     2    20     1    1
     3     1     2   ar
     4     2     3   ar
     5     3     7    1
     6     7     8   ar
     7     8     9   ar
     8     9    10    1
     9     9    11   ar
    10    11    12    2
    11    11    13   ar
    12    13    14   ar
    13    14    15   ar
    14    15    16   ar
    15    16    17   ar
    16    17    18   ar
    17     3     4   ar
    18     4     5   ar
    19     5    21    1
    20    21    22    1
    21     5     6   ar
    22     6    23    1
    23    23    24    1
    24    24    25    1
    25    24    26    1
    26     6     1   ar
    27    18     7   ar
    28    18    13   ar
@<TRIPOS>MOLECULE
*****
 26 28 0 0 0
SMALL
GASTEIGER

@<TRIPOS>ATOM
      1 C         -10.1267  -19.4429   22.8087 C.ar    1  UNL1        0.1389
      2 C          -8.6440  -19.6404   22.6966 C.ar    1  UNL1        0.0369
      3 C          -7.9019  -19.0937   21.5131 C.ar    1  UNL1        0.0074
      4 C          -8.6426  -18.3497   20.4418 C.ar    1  UNL1        0.0369
      5 C         -10.1253  -18.1522   20.5539 C.ar    1  UNL1        0.1389
      6 C         -10.8674  -18.6988   21.7373 C.ar    1  UNL1        0.0617
      7 C          -6.4192  -19.2912   21.4010 C.ar    1  UNL1        0.0177
      8 C          -5.8701  -20.3464   20.4873 C.ar    1  UNL1        0.0783
      9 N          -4.3874  -20.5439   20.3752 N.ar    1  UNL1       -0.2921
     10 C          -3.8383  -21.5992   19.4614 C.3     1  UNL1        0.1336
     11 C          -3.4538  -19.6861   21.1767 C.ar    1  UNL1        0.2624
     12 O          -1.9711  -19.8836   21.0646 O.2     1  UNL1       -0.2669
     13 C          -4.0029  -18.6308   22.0905 C.ar    1  UNL1        0.0753
     14 C          -3.0693  -17.7730   22.8921 C.ar    1  UNL1        0.1036
     15 N          -3.6184  -16.7178   23.8058 N.ar    1  UNL1       -0.2422
     16 C          -5.1011  -16.5203   23.9179 C.ar    1  UNL1        0.0989
     17 C          -6.0347  -17.3781   23.1163 C.ar    1  UNL1        0.0209
     18 C          -5.4856  -18.4333   22.2026 C.ar    1  UNL1        0.0091
     19 C         -10.4495  -19.6092   25.3812 C.3     1  UNL1        0.2525
     20 O         -10.8687  -19.9895   23.9922 O.3     1  UNL1       -0.4716
     21 O         -10.8660  -17.4081   19.4825 O.3     1  UNL1       -0.4716
     22 C         -11.1084  -15.9345   19.6235 C.3     1  UNL1        0.2525
     23 C         -12.3501  -18.5013   21.8495 C.3     1  UNL1        0.1054
     24 N         -12.9037  -17.5275   22.8471 N.3     1  UNL1       -0.2664
     25 C         -12.5429  -16.0744   22.7566 C.3     1  UNL1        0.0899
     26 C         -13.8180  -18.0068   23.9353 C.3     1  UNL1        0.0899
@<TRIPOS>BOND
     1    19    20    1
     2    20     1    1
     3     1     2   ar
     4     2     3   ar
     5     3     7    1
     6     7     8   ar
     7     8     9   ar
     8     9    10    1
     9     9    11   ar
    10    11    12    2
    11    11    13   ar
    12    13    14   ar
    13    14    15   ar
    14    15    16   ar
    15    16    17   ar
    16    17    18   ar
    17     3     4   ar
    18     4     5   ar
    19     5    21    1
    20    21    22    1
    21     5     6   ar
    22     6    23    1
    23    23    24    1
    24    24    25    1
    25    24    26    1
    26     6     1   ar
    27    18     7   ar
    28    18    13   ar
@<TRIPOS>MOLECULE
*****
 26 28 0 0 0
SMALL
GASTEIGER

@<TRIPOS>ATOM
      1 C         -10.1252  -18.1426   20.5545 C.ar    1  UNL1        0.1389
      2 C          -8.6426  -18.3407   20.4431 C.ar    1  UNL1        0.0369
      3 C          -7.9017  -19.0793   21.5181 C.ar    1  UNL1        0.0074
      4 C          -8.6435  -19.6198   22.7045 C.ar    1  UNL1        0.0369
      5 C         -10.1262  -19.4217   22.8159 C.ar    1  UNL1        0.1389
      6 C         -10.8670  -18.6831   21.7410 C.ar    1  UNL1        0.0617
      7 C          -6.4190  -19.2774   21.4066 C.ar    1  UNL1        0.0177
      8 C          -5.8698  -20.3303   20.4903 C.ar    1  UNL1        0.0783
      9 N          -4.3871  -20.5284   20.3789 N.ar    1  UNL1       -0.2921
     10 C          -3.8380  -21.5814   19.4625 C.3     1  UNL1        0.1336
     11 C          -3.4537  -19.6736   21.1837 C.ar    1  UNL1        0.2624
     12 O          -1.9710  -19.8717   21.0723 O.2     1  UNL1       -0.2669
     13 C          -4.0028  -18.6206   22.1001 C.ar    1  UNL1        0.0753
     14 C          -3.0694  -17.7658   22.9050 C.ar    1  UNL1        0.1036
     15 N          -3.6186  -16.7129   23.8213 N.ar    1  UNL1       -0.2422
     16 C          -5.1012  -16.5148   23.9328 C.ar    1  UNL1        0.0989
     17 C          -6.0347  -17.3696   23.1279 C.ar    1  UNL1        0.0209
     18 C          -5.4855  -18.4225   22.2116 C.ar    1  UNL1        0.0091
     19 C         -11.1144  -15.9310   19.6163 C.3     1  UNL1        0.2525
     20 O         -10.8661  -17.4040   19.4796 O.3     1  UNL1       -0.4716
     21 O         -10.8680  -19.9622   24.0024 O.3     1  UNL1       -0.4716
     22 C         -10.4133  -19.6207   25.3905 C.3     1  UNL1        0.2525
     23 C         -12.3497  -18.4850   21.8525 C.3     1  UNL1        0.1054
     24 N         -12.9036  -17.5148   22.8536 N.3     1  UNL1       -0.2664
     25 C         -13.8154  -17.9988   23.9418 C.3     1  UNL1        0.0899
     26 C         -12.5456  -16.0608   22.7663 C.3     1  UNL1        0.0899
@<TRIPOS>BOND
     1    19    20    1
     2    20     1    1
     3     1     2   ar
     4     2     3   ar
     5     3     7    1
     6     7     8   ar
     7     8     9   ar
     8     9    10    1
     9     9    11   ar
    10    11    12    2
    11    11    13   ar
    12    13    14   ar
    13    14    15   ar
    14    15    16   ar
    15    16    17   ar
    16    17    18   ar
    17     3     4   ar
    18     4     5   ar
    19     5    21    1
    20    21    22    1
    21     5     6   ar
    22     6    23    1
    23    23    24    1
    24    24    25    1
    25    24    26    1
    26     6     1   ar
    27    18     7   ar
    28    18    13   ar
@<TRIPOS>MOLECULE
*****
 26 28 0 0 0
SMALL
GASTEIGER

@<TRIPOS>ATOM
      1 C          -9.5163  -16.3273   21.8399 C.ar    1  UNL1        0.1389
      2 C          -8.0917  -16.7469   21.6288 C.ar    1  UNL1        0.0369
      3 C          -7.4786  -17.7918   22.5134 C.ar    1  UNL1        0.0074
      4 C          -8.2902  -18.4171   23.6089 C.ar    1  UNL1        0.0369
      5 C          -9.7147  -17.9976   23.8201 C.ar    1  UNL1        0.1389
      6 C         -10.3278  -16.9527   22.9356 C.ar    1  UNL1        0.0617
      7 C          -6.0541  -18.2114   22.3023 C.ar    1  UNL1        0.0177
      8 C          -4.9487  -17.5058   23.0304 C.ar    1  UNL1        0.0783
      9 N          -3.5241  -17.9254   22.8193 N.ar    1  UNL1       -0.2921
     10 C          -2.4186  -17.2197   23.5474 C.3     1  UNL1        0.1336
     11 C          -3.2049  -19.0505   21.8800 C.ar    1  UNL1        0.2624
     12 O          -1.7804  -19.4700   21.6689 O.2     1  UNL1       -0.2669
     13 C          -4.3104  -19.7561   21.1519 C.ar    1  UNL1        0.0753
     14 C          -3.9912  -20.8813   20.2127 C.ar    1  UNL1        0.1036
     15 N          -5.0966  -21.5868   19.4846 N.ar    1  UNL1       -0.2422
     16 C          -6.5212  -21.1673   19.6957 C.ar    1  UNL1        0.0989
     17 C          -6.8403  -20.0421   20.6349 C.ar    1  UNL1        0.0209
     18 C          -5.7349  -19.3366   21.3630 C.ar    1  UNL1        0.0091
     19 C         -10.9417  -15.6920   19.7628 C.3     1  UNL1        0.2525
     20 O         -10.1293  -15.2825   20.9554 O.3     1  UNL1       -0.4716
     21 O         -10.5263  -18.6229   24.9157 O.3     1  UNL1       -0.4716
     22 C         -10.4571  -20.1031   25.1489 C.3     1  UNL1        0.2525
     23 C         -11.7524  -16.5331   23.1467 C.3     1  UNL1        0.1054
     24 N         -12.8671  -17.4983   22.8712 N.3     1  UNL1       -0.2664
     25 C         -13.8079  -17.8913   23.9714 C.3     1  UNL1        0.0899
     26 C         -13.0411  -18.0703   21.4955 C.3     1  UNL1        0.0899
@<TRIPOS>BOND
     1    19    20    1
     2    20     1    1
     3     1     2   ar
     4     2     3   ar
     5     3     7    1
     6     7     8   ar
     7     8     9   ar
     8     9    10    1
     9     9    11   ar
    10    11    12    2
    11    11    13   ar
    12    13    14   ar
    13    14    15   ar
    14    15    16   ar
    15    16    17   ar
    16    17    18   ar
    17     3     4   ar
    18     4     5   ar
    19     5    21    1
    20    21    22    1
    21     5     6   ar
    22     6    23    1
    23    23    24    1
    24    24    25    1
    25    24    26    1
    26     6     1   ar
    27    18     7   ar
    28    18    13   ar
@<TRIPOS>MOLECULE
*****
 26 28 0 0 0
SMALL
GASTEIGER

@<TRIPOS>ATOM
      1 C          -9.7169  -17.9873   23.8361 C.ar    1  UNL1        0.1389
      2 C          -8.2921  -18.4056   23.6242 C.ar    1  UNL1        0.0369
      3 C          -7.4863  -17.7904   22.5186 C.ar    1  UNL1        0.0074
      4 C          -8.1054  -16.7569   21.6250 C.ar    1  UNL1        0.0369
      5 C          -9.5302  -16.3385   21.8369 C.ar    1  UNL1        0.1389
      6 C         -10.3360  -16.9537   22.9424 C.ar    1  UNL1        0.0617
      7 C          -6.0615  -18.2088   22.3067 C.ar    1  UNL1        0.0177
      8 C          -4.9564  -17.5031   23.0352 C.ar    1  UNL1        0.0783
      9 N          -3.5316  -17.9215   22.8233 N.ar    1  UNL1       -0.2921
     10 C          -2.4265  -17.2158   23.5518 C.3     1  UNL1        0.1336
     11 C          -3.2119  -19.0455   21.8829 C.ar    1  UNL1        0.2624
     12 O          -1.7871  -19.4638   21.6710 O.2     1  UNL1       -0.2669
     13 C          -4.3171  -19.7512   21.1543 C.ar    1  UNL1        0.0753
     14 C          -3.9974  -20.8752   20.2140 C.ar    1  UNL1        0.1036
     15 N          -5.1025  -21.5808   19.4855 N.ar    1  UNL1       -0.2422
     16 C          -6.5273  -21.1625   19.6974 C.ar    1  UNL1        0.0989
     17 C          -6.8470  -20.0385   20.6378 C.ar    1  UNL1        0.0209
     18 C          -5.7419  -19.3328   21.3663 C.ar    1  UNL1        0.0091
     19 C         -10.5111  -20.0892   25.1404 C.3     1  UNL1        0.2525
     20 O         -10.5227  -18.6025   24.9416 O.3     1  UNL1       -0.4716
     21 O         -10.1492  -15.3049   20.9432 O.3     1  UNL1       -0.4716
     22 C         -11.0113  -15.7288   19.7912 C.3     1  UNL1        0.2525
     23 C         -11.7608  -16.5353   23.1543 C.3     1  UNL1        0.1054
     24 N         -12.8748  -17.5021   22.8816 N.3     1  UNL1       -0.2664
     25 C         -13.7922  -17.9218   23.9916 C.3     1  UNL1        0.0899
     26 C         -13.0713  -18.0492   21.4988 C.3     1  UNL1        0.0899
@<TRIPOS>BOND
     1    19    20    1
     2    20     1    1
     3     1     2   ar
     4     2     3   ar
     5     3     7    1
     6     7     8   ar
     7     8     9   ar
     8     9    10    1
     9     9    11   ar
    10    11    12    2
    11    11    13   ar
    12    13    14   ar
    13    14    15   ar
    14    15    16   ar
    15    16    17   ar
    16    17    18   ar
    17     3     4   ar
    18     4     5   ar
    19     5    21    1
    20    21    22    1
    21     5     6   ar
    22     6    23    1
    23    23    24    1
    24    24    25    1
    25    24    26    1
    26     6     1   ar
    27    18     7   ar
    28    18    13   ar
@<TRIPOS>MOLECULE
*****
 26 28 0 0 0
SMALL
GASTEIGER

@<TRIPOS>ATOM
      1 C           7.5998   -2.8021   20.1689 C.ar    1  UNL1        0.1389
      2 C           7.7690   -3.1056   21.6281 C.ar    1  UNL1        0.0369
      3 C           6.5875   -3.5343   22.4469 C.ar    1  UNL1        0.0074
      4 C           5.2369   -3.6596   21.8065 C.ar    1  UNL1        0.0369
      5 C           5.0677   -3.3562   20.3473 C.ar    1  UNL1        0.1389
      6 C           6.2491   -2.9275   19.5285 C.ar    1  UNL1        0.0617
      7 C           6.7567   -3.8377   23.9062 C.ar    1  UNL1        0.0177
      8 C           6.2287   -2.8841   24.9366 C.ar    1  UNL1        0.0783
      9 N           6.3979   -3.1875   26.3958 N.ar    1  UNL1       -0.2921
     10 C           5.8699   -2.2339   27.4263 C.3     1  UNL1        0.1336
     11 C           7.0951   -4.4445   26.8246 C.ar    1  UNL1        0.2624
     12 O           7.2643   -4.7479   28.2838 O.2     1  UNL1       -0.2669
     13 C           7.6231   -5.3982   25.7941 C.ar    1  UNL1        0.0753
     14 C           8.3203   -6.6552   26.2229 C.ar    1  UNL1        0.1036
     15 N           8.8482   -7.6088   25.1924 N.ar    1  UNL1       -0.2422
     16 C           8.6790   -7.3054   23.7332 C.ar    1  UNL1        0.0989
     17 C           7.9819   -6.0484   23.3044 C.ar    1  UNL1        0.0209
     18 C           7.4539   -5.0948   24.3349 C.ar    1  UNL1        0.0091
     19 C           9.5358   -1.1299   19.7161 C.3     1  UNL1        0.2525
     20 O           8.7811   -2.3734   19.3501 O.3     1  UNL1       -0.4716
     21 O           3.7170   -3.4815   19.7069 O.3     1  UNL1       -0.4716
     22 C           3.2485   -4.8128   19.1990 C.3     1  UNL1        0.2525
     23 C           6.0799   -2.6241   18.0693 C.3     1  UNL1        0.1054
     24 N           5.6296   -1.2610   17.6340 N.3     1  UNL1       -0.2664
     25 C           4.1881   -1.0196   17.2967 C.3     1  UNL1        0.0899
     26 C           6.6208   -0.1395   17.5359 C.3     1  UNL1        0.0899
@<TRIPOS>BOND
     1    19    20    1
     2    20     1    1
     3     1     2   ar
     4     2     3   ar
     5     3     7    1
     6     7     8   ar
     7     8     9   ar
     8     9    10    1
     9     9    11   ar
    10    11    12    2
    11    11    13   ar
    12    13    14   ar
    13    14    15   ar
    14    15    16   ar
    15    16    17   ar
    16    17    18   ar
    17     3     4   ar
    18     4     5   ar
    19     5    21    1
    20    21    22    1
    21     5     6   ar
    22     6    23    1
    23    23    24    1
    24    24    25    1
    25    24    26    1
    26     6     1   ar
    27    18     7   ar
    28    18    13   ar
@<TRIPOS>MOLECULE
*****
 26 28 0 0 0
SMALL
GASTEIGER

@<TRIPOS>ATOM
      1 C           6.0933   -2.5923   24.9943 C.ar    1  UNL1        0.1389
      2 C           5.3586   -1.9448   23.8582 C.ar    1  UNL1        0.0369
      3 C           5.3895   -2.5668   22.4935 C.ar    1  UNL1        0.0074
      4 C           6.1552   -3.8362   22.2650 C.ar    1  UNL1        0.0369
      5 C           6.8899   -4.4837   23.4012 C.ar    1  UNL1        0.1389
      6 C           6.8590   -3.8618   24.7658 C.ar    1  UNL1        0.0617
      7 C           4.6548   -1.9192   21.3573 C.ar    1  UNL1        0.0177
      8 C           3.2308   -1.4833   21.5365 C.ar    1  UNL1        0.0783
      9 N           2.4961   -0.8358   20.4003 N.ar    1  UNL1       -0.2921
     10 C           1.0720   -0.3998   20.5795 C.3     1  UNL1        0.1336
     11 C           3.1853   -0.6242   19.0850 C.ar    1  UNL1        0.2624
     12 O           2.4506    0.0234   17.9489 O.2     1  UNL1       -0.2669
     13 C           4.6094   -1.0601   18.9058 C.ar    1  UNL1        0.0753
     14 C           5.2987   -0.8485   17.5905 C.ar    1  UNL1        0.1036
     15 N           6.7227   -1.2844   17.4113 N.ar    1  UNL1       -0.2422
     16 C           7.4574   -1.9319   18.5475 C.ar    1  UNL1        0.0989
     17 C           6.7681   -2.1435   19.8628 C.ar    1  UNL1        0.0209
     18 C           5.3441   -1.7076   20.0420 C.ar    1  UNL1        0.0091
     19 C           4.7559   -1.5419   26.9584 C.3     1  UNL1        0.2525
     20 O           6.0624   -1.9704   26.3589 O.3     1  UNL1       -0.4716
     21 O           7.6556   -5.7533   23.1727 O.3     1  UNL1       -0.4716
     22 C           9.0212   -5.7044   22.5539 C.3     1  UNL1        0.2525
     23 C           7.5938   -4.5094   25.9020 C.3     1  UNL1        0.1054
     24 N           6.9072   -5.5397   26.7489 N.3     1  UNL1       -0.2664
     25 C           7.0178   -6.9938   26.3979 C.3     1  UNL1        0.0899
     26 C           6.1102   -5.1158   27.9468 C.3     1  UNL1        0.0899
@<TRIPOS>BOND
     1    19    20    1
     2    20     1    1
     3     1     2   ar
     4     2     3   ar
     5     3     7    1
     6     7     8   ar
     7     8     9   ar
     8     9    10    1
     9     9    11   ar
    10    11    12    2
    11    11    13   ar
    12    13    14   ar
    13    14    15   ar
    14    15    16   ar
    15    16    17   ar
    16    17    18   ar
    17     3     4   ar
    18     4     5   ar
    19     5    21    1
    20    21    22    1
    21     5     6   ar
    22     6    23    1
    23    23    24    1
    24    24    25    1
    25    24    26    1
    26     6     1   ar
    27    18     7   ar
    28    18    13   ar
@<TRIPOS>MOLECULE
*****
 26 28 0 0 0
SMALL
GASTEIGER

@<TRIPOS>ATOM
      1 C           5.0813   -3.3460   20.3904 C.ar    1  UNL1        0.1389
      2 C           5.3627   -3.9102   21.7515 C.ar    1  UNL1        0.0369
      3 C           6.7612   -3.8984   22.2939 C.ar    1  UNL1        0.0074
      4 C           7.8783   -3.3224   21.4752 C.ar    1  UNL1        0.0369
      5 C           7.5970   -2.7582   20.1141 C.ar    1  UNL1        0.1389
      6 C           6.1985   -2.7700   19.5717 C.ar    1  UNL1        0.0617
      7 C           7.0425   -4.4626   23.6550 C.ar    1  UNL1        0.0177
      8 C           7.7879   -5.7571   23.7908 C.ar    1  UNL1        0.0783
      9 N           8.0692   -6.3213   25.1519 N.ar    1  UNL1       -0.2921
     10 C           8.8147   -7.6159   25.2878 C.3     1  UNL1        0.1336
     11 C           7.6051   -5.5910   26.3771 C.ar    1  UNL1        0.2624
     12 O           7.8865   -6.1552   27.7382 O.2     1  UNL1       -0.2669
     13 C           6.8597   -4.2964   26.2413 C.ar    1  UNL1        0.0753
     14 C           6.3956   -3.5660   27.4665 C.ar    1  UNL1        0.1036
     15 N           5.6502   -2.2715   27.3306 N.ar    1  UNL1       -0.2422
     16 C           5.3689   -1.7073   25.9696 C.ar    1  UNL1        0.0989
     17 C           5.8330   -2.4376   24.7443 C.ar    1  UNL1        0.0209
     18 C           6.5784   -3.7322   24.8802 C.ar    1  UNL1        0.0091
     19 C           3.1797   -4.5551   19.0976 C.3     1  UNL1        0.2525
     20 O           3.6829   -3.3578   19.8480 O.3     1  UNL1       -0.4716
     21 O           8.7141   -2.1822   19.2954 O.3     1  UNL1       -0.4716
     22 C           9.1301   -0.7547   19.4933 C.3     1  UNL1        0.2525
     23 C           5.9172   -2.2058   18.2106 C.3     1  UNL1        0.1054
     24 N           5.1529   -0.9223   18.0741 N.3     1  UNL1       -0.2664
     25 C           5.5343    0.2693   18.9016 C.3     1  UNL1        0.0899
     26 C           4.0074   -0.8304   17.1101 C.3     1  UNL1        0.0899
@<TRIPOS>BOND
     1    19    20    1
     2    20     1    1
     3     1     2   ar
     4     2     3   ar
     5     3     7    1
     6     7     8   ar
     7     8     9   ar
     8     9    10    1
     9     9    11   ar
    10    11    12    2
    11    11    13   ar
    12    13    14   ar
    13    14    15   ar
    14    15    16   ar
    15    16    17   ar
    16    17    18   ar
    17     3     4   ar
    18     4     5   ar
    19     5    21    1
    20    21    22    1
    21     5     6   ar
    22     6    23    1
    23    23    24    1
    24    24    25    1
    25    24    26    1
    26     6     1   ar
    27    18     7   ar
    28    18    13   ar
@<TRIPOS>MOLECULE
*****
 26 28 0 0 0
SMALL
GASTEIGER

@<TRIPOS>ATOM
      1 C           3.1070    0.3673   25.9596 C.ar    1  UNL1        0.1389
      2 C           3.4515   -0.0392   24.5575 C.ar    1  UNL1        0.0369
      3 C           2.4481    0.1392   23.4568 C.ar    1  UNL1        0.0074
      4 C           1.1002    0.7240   23.7583 C.ar    1  UNL1        0.0369
      5 C           0.7556    1.1305   25.1605 C.ar    1  UNL1        0.1389
      6 C           1.7589    0.9522   26.2611 C.ar    1  UNL1        0.0617
      7 C           2.7927   -0.2673   22.0547 C.ar    1  UNL1        0.0177
      8 C           2.3554    0.5823   20.8985 C.ar    1  UNL1        0.0783
      9 N           2.7000    0.1759   19.4964 N.ar    1  UNL1       -0.2921
     10 C           2.2626    1.0256   18.3402 C.3     1  UNL1        0.1336
     11 C           3.4819   -1.0803   19.2504 C.ar    1  UNL1        0.2624
     12 O           3.8265   -1.4868   17.8482 O.2     1  UNL1       -0.2669
     13 C           3.9192   -1.9301   20.4066 C.ar    1  UNL1        0.0753
     14 C           4.7012   -3.1863   20.1606 C.ar    1  UNL1        0.1036
     15 N           5.1385   -4.0360   21.3167 N.ar    1  UNL1       -0.2422
     16 C           4.7939   -3.6295   22.7189 C.ar    1  UNL1        0.0989
     17 C           4.0120   -2.3733   22.9649 C.ar    1  UNL1        0.0209
     18 C           3.5747   -1.5236   21.8087 C.ar    1  UNL1        0.0091
     19 C           4.5498   -1.1888   27.4584 C.3     1  UNL1        0.2525
     20 O           4.1103    0.1889   27.0602 O.3     1  UNL1       -0.4716
     21 O          -0.5925    1.7154   25.4620 O.3     1  UNL1       -0.4716
     22 C          -0.9439    3.0858   24.9634 C.3     1  UNL1        0.2525
     23 C           1.4143    1.3587   27.6633 C.3     1  UNL1        0.1054
     24 N           0.8437    0.3515   28.6173 N.3     1  UNL1       -0.2664
     25 C          -0.6114   -0.0061   28.5487 C.3     1  UNL1        0.0899
     26 C           1.7282   -0.2979   29.6400 C.3     1  UNL1        0.0899
@<TRIPOS>BOND
     1    19    20    1
     2    20     1    1
     3     1     2   ar
     4     2     3   ar
     5     3     7    1
     6     7     8   ar
     7     8     9   ar
     8     9    10    1
     9     9    11   ar
    10    11    12    2
    11    11    13   ar
    12    13    14   ar
    13    14    15   ar
    14    15    16   ar
    15    16    17   ar
    16    17    18   ar
    17     3     4   ar
    18     4     5   ar
    19     5    21    1
    20    21    22    1
    21     5     6   ar
    22     6    23    1
    23    23    24    1
    24    24    25    1
    25    24    26    1
    26     6     1   ar
    27    18     7   ar
    28    18    13   ar
