@<TRIPOS>MOLECULE
*****
 35 39 0 0 0
SMALL
GASTEIGER

@<TRIPOS>ATOM
      1 N           1.3997    0.0821   29.1456 N.ar    1  UNL1       -0.2298
      2 N           1.8077    0.2124   30.5832 N.ar    1  UNL1       -0.1556
      3 C           3.2214   -0.2728   30.7095 C.ar    1  UNL1        0.1892
      4 C           3.6872   -0.7029   29.3501 C.ar    1  UNL1        0.1459
      5 N           4.9911   -1.2659   28.8675 N.ar    1  UNL1       -0.2355
      6 C           5.1690   -1.6095   27.4183 C.ar    1  UNL1        0.1332
      7 C           4.0431   -1.3902   26.4517 C.ar    1  UNL1        0.1527
      8 N           2.7393   -0.8272   26.9343 N.ar    1  UNL1       -0.2090
      9 C           2.5613   -0.4835   28.3835 C.ar    1  UNL1        0.1811
     10 N           4.2212   -1.7339   25.0025 N.pl3   1  UNL1       -0.2919
     11 C           5.1904   -2.5718   24.2224 C.3     1  UNL1        0.0939
     12 C           4.4729   -2.2199   22.9530 C.3     1  UNL1        0.0409
     13 C           3.5037   -1.3820   23.7331 C.3     1  UNL1        0.0939
     14 C           4.6508   -2.5636   21.5038 C.3     1  UNL1        0.0193
     15 C           4.5275   -3.9881   21.0501 C.3     1  UNL1        0.0029
     16 C           4.7055   -4.3318   19.6010 C.3     1  UNL1        0.0174
     17 C           5.0068   -3.2510   18.6054 C.3     1  UNL1        0.0722
     18 N           5.1301   -1.8266   19.0590 N.3     1  UNL1       -0.2706
     19 C           4.9522   -1.4829   20.5082 C.3     1  UNL1        0.0722
     20 C           5.4314   -0.7459   18.0634 C.3     1  UNL1        0.1042
     21 C           4.3755   -0.3032   17.0943 C.3     1  UNL1        0.1544
     22 O           3.7495   -1.2971   16.1616 O.3     1  UNL1       -0.3805
     23 H           4.4178   -1.6200   15.5371 H       1  UNL1        0.2105
     24 C          -1.1674   -0.2895   28.9975 C.3     1  UNL1        0.0313
     25 C           0.0646    0.4524   28.5709 C.3     1  UNL1        0.1299
     26 C          -0.0387    1.5646   27.5698 C.ar    1  UNL1        0.0106
     27 C          -0.3546    1.2563   26.1362 C.ar    1  UNL1       -0.0007
     28 C          -0.4579    2.3684   25.1349 C.ar    1  UNL1        0.0112
     29 C          -0.2453    3.7889   25.5673 C.ar    1  UNL1        0.0585
     30 CL         -0.3486    4.9010   24.5661 Cl      1  UNL1       -0.0822
     31 C           0.0705    4.0972   27.0009 C.ar    1  UNL1        0.0225
     32 C           0.1738    2.9851   28.0021 C.ar    1  UNL1        0.0563
     33 CL          0.4897    3.2935   29.4357 Cl      1  UNL1       -0.0825
     34 C           4.0278   -0.3196   31.9734 C.1     1  UNL1        0.1232
     35 N           4.8344   -0.3664   33.2373 N.1     1  UNL1       -0.1891
@<TRIPOS>BOND
     1    25    24    1
     2    25    26    1
     3    26    27   ar
     4    27    28   ar
     5    28    29   ar
     6    29    30    1
     7    29    31   ar
     8    31    32   ar
     9    32    33    1
    10    25     1    1
    11     1     2   ar
    12     2     3   ar
    13     3    34    1
    14    34    35    3
    15     3     4   ar
    16     4     5   ar
    17     5     6   ar
    18     6     7   ar
    19     7    10    1
    20    10    11    1
    21    11    12    1
    22    14    12    1
    23    14    15    1
    24    15    16    1
    25    16    17    1
    26    17    18    1
    27    18    20    1
    28    20    21    1
    29    21    22    1
    30    18    19    1
    31    12    13    1
    32     7     8   ar
    33     8     9   ar
    34    32    26   ar
    35     9     1   ar
    36     9     4   ar
    37    13    10    1
    38    19    14    1
    39    22    23    1
@<TRIPOS>MOLECULE
*****
 35 39 0 0 0
SMALL
GASTEIGER

@<TRIPOS>ATOM
      1 N           5.1932   -0.9878   19.3410 N.ar    1  UNL1       -0.2298
      2 N           5.6928    0.0275   18.3564 N.ar    1  UNL1       -0.1556
      3 C           7.1616    0.2188   18.5929 C.ar    1  UNL1        0.1892
      4 C           7.5698   -0.6783   19.7237 C.ar    1  UNL1        0.1459
      5 N           8.8920   -0.9124   20.3921 N.ar    1  UNL1       -0.2355
      6 C           8.9976   -1.8923   21.5229 C.ar    1  UNL1        0.1332
      7 C           7.7810   -2.6381   21.9852 C.ar    1  UNL1        0.1527
      8 N           6.4588   -2.4039   21.3168 N.ar    1  UNL1       -0.2090
      9 C           6.3532   -1.4240   20.1861 C.ar    1  UNL1        0.1811
     10 N           7.8867   -3.6180   23.1160 N.pl3   1  UNL1       -0.2919
     11 C           9.0192   -4.2441   23.8747 C.3     1  UNL1        0.0939
     12 C           8.0361   -5.0038   24.7151 C.3     1  UNL1        0.0409
     13 C           6.9037   -4.3778   23.9564 C.3     1  UNL1        0.0939
     14 C           8.1418   -5.9837   25.8459 C.3     1  UNL1        0.0193
     15 C           8.2662   -7.4506   25.5580 C.3     1  UNL1        0.0029
     16 C           8.3718   -8.4305   26.6887 C.3     1  UNL1        0.0174
     17 C           8.3531   -7.9436   28.1074 C.3     1  UNL1        0.0722
     18 N           8.2287   -6.4767   28.3953 N.3     1  UNL1       -0.2706
     19 C           8.1230   -5.4968   27.2645 C.3     1  UNL1        0.0722
     20 C           8.2099   -5.9898   29.8139 C.3     1  UNL1        0.1042
     21 C           6.9121   -5.5959   30.4546 C.3     1  UNL1        0.1544
     22 O           6.5361   -6.1570   31.7939 O.3     1  UNL1       -0.3805
     23 H           6.3947   -7.1134   31.7156 H       1  UNL1        0.2105
     24 C           3.4868   -2.9471   19.3477 C.3     1  UNL1        0.0313
     25 C           3.7814   -1.4805   19.4597 C.3     1  UNL1        0.1299
     26 C           2.6641   -0.5067   19.6905 C.ar    1  UNL1        0.0106
     27 C           2.0344    0.2016   18.5278 C.ar    1  UNL1       -0.0007
     28 C           0.9170    1.1755   18.7585 C.ar    1  UNL1        0.0112
     29 C           0.4293    1.4409   20.1520 C.ar    1  UNL1        0.0585
     30 CL         -0.6880    2.4147   20.3827 Cl      1  UNL1       -0.0822
     31 C           1.0590    0.7326   21.3146 C.ar    1  UNL1        0.0225
     32 C           2.1763   -0.2412   21.0839 C.ar    1  UNL1        0.0563
     33 CL          2.8059   -0.9495   22.2466 Cl      1  UNL1       -0.0825
     34 C           8.0639    1.1446   17.8322 C.1     1  UNL1        0.1232
     35 N           8.9664    2.0705   17.0716 N.1     1  UNL1       -0.1891
@<TRIPOS>BOND
     1    25    24    1
     2    25    26    1
     3    26    27   ar
     4    27    28   ar
     5    28    29   ar
     6    29    30    1
     7    29    31   ar
     8    31    32   ar
     9    32    33    1
    10    25     1    1
    11     1     2   ar
    12     2     3   ar
    13     3    34    1
    14    34    35    3
    15     3     4   ar
    16     4     5   ar
    17     5     6   ar
    18     6     7   ar
    19     7    10    1
    20    10    11    1
    21    11    12    1
    22    14    12    1
    23    14    15    1
    24    15    16    1
    25    16    17    1
    26    17    18    1
    27    18    20    1
    28    20    21    1
    29    21    22    1
    30    18    19    1
    31    12    13    1
    32     7     8   ar
    33     8     9   ar
    34    32    26   ar
    35     9     1   ar
    36     9     4   ar
    37    13    10    1
    38    19    14    1
    39    22    23    1
@<TRIPOS>MOLECULE
*****
 35 39 0 0 0
SMALL
GASTEIGER

@<TRIPOS>ATOM
      1 N           2.8505   -0.3349   19.5918 N.ar    1  UNL1       -0.2298
      2 N           1.6532    0.4675   19.1762 N.ar    1  UNL1       -0.1556
      3 C           0.9605    0.9438   20.4185 C.ar    1  UNL1        0.1892
      4 C           1.7296    0.4357   21.6019 C.ar    1  UNL1        0.1459
      5 N           1.5172    0.5905   23.0787 N.ar    1  UNL1       -0.2355
      6 C           2.4729   -0.0449   24.0445 C.ar    1  UNL1        0.1332
      7 C           3.6410   -0.8352   23.5335 C.ar    1  UNL1        0.1527
      8 N           3.8534   -0.9900   22.0568 N.ar    1  UNL1       -0.2090
      9 C           2.8977   -0.3546   21.0910 C.ar    1  UNL1        0.1811
     10 N           4.5967   -1.4706   24.4994 N.pl3   1  UNL1       -0.2919
     11 C           5.5614   -2.6176   24.4376 C.3     1  UNL1        0.0939
     12 C           5.9482   -2.3692   25.8655 C.3     1  UNL1        0.0409
     13 C           4.9834   -1.2223   25.9273 C.3     1  UNL1        0.0939
     14 C           6.9038   -3.0046   26.8313 C.3     1  UNL1        0.0193
     15 C           8.3478   -2.5983   26.8347 C.3     1  UNL1        0.0029
     16 C           9.3035   -3.2337   27.8006 C.3     1  UNL1        0.0174
     17 C           8.8152   -4.2754   28.7632 C.3     1  UNL1        0.0722
     18 N           7.3713   -4.6817   28.7598 N.3     1  UNL1       -0.2706
     19 C           6.4156   -4.0463   27.7939 C.3     1  UNL1        0.0722
     20 C           6.8831   -5.7234   29.7224 C.3     1  UNL1        0.1042
     21 C           7.3831   -5.7310   31.1365 C.3     1  UNL1        0.1544
     22 O           6.4676   -6.1359   32.2536 O.3     1  UNL1       -0.3805
     23 H           5.7529   -5.4856   32.3377 H       1  UNL1        0.2105
     24 C           3.7255   -0.7910   17.1884 C.3     1  UNL1        0.0313
     25 C           3.8287   -1.0008   18.6701 C.3     1  UNL1        0.1299
     26 C           4.9103   -1.8764   19.2300 C.ar    1  UNL1        0.0106
     27 C           6.2612   -1.2989   19.5329 C.ar    1  UNL1       -0.0007
     28 C           7.3428   -2.1745   20.0928 C.ar    1  UNL1        0.0112
     29 C           7.0735   -3.6276   20.3498 C.ar    1  UNL1        0.0585
     30 CL          8.1551   -4.5031   20.9096 Cl      1  UNL1       -0.0822
     31 C           5.7227   -4.2050   20.0469 C.ar    1  UNL1        0.0225
     32 C           4.6411   -3.3295   19.4870 C.ar    1  UNL1        0.0563
     33 CL          3.2903   -3.9070   19.1841 Cl      1  UNL1       -0.0825
     34 C          -0.2830    1.7811   20.4687 C.1     1  UNL1        0.1232
     35 N          -1.5265    2.6186   20.5189 N.1     1  UNL1       -0.1891
@<TRIPOS>BOND
     1    25    24    1
     2    25    26    1
     3    26    27   ar
     4    27    28   ar
     5    28    29   ar
     6    29    30    1
     7    29    31   ar
     8    31    32   ar
     9    32    33    1
    10    25     1    1
    11     1     2   ar
    12     2     3   ar
    13     3    34    1
    14    34    35    3
    15     3     4   ar
    16     4     5   ar
    17     5     6   ar
    18     6     7   ar
    19     7    10    1
    20    10    11    1
    21    11    12    1
    22    14    12    1
    23    14    15    1
    24    15    16    1
    25    16    17    1
    26    17    18    1
    27    18    20    1
    28    20    21    1
    29    21    22    1
    30    18    19    1
    31    12    13    1
    32     7     8   ar
    33     8     9   ar
    34    32    26   ar
    35     9     1   ar
    36     9     4   ar
    37    13    10    1
    38    19    14    1
    39    22    23    1
@<TRIPOS>MOLECULE
*****
 35 39 0 0 0
SMALL
GASTEIGER

@<TRIPOS>ATOM
      1 N           4.2741   -2.8736   21.4522 N.ar    1  UNL1       -0.2298
      2 N           5.3610   -3.8453   21.8047 N.ar    1  UNL1       -0.1556
      3 C           5.7227   -3.6336   23.2450 C.ar    1  UNL1        0.1892
      4 C           4.8593   -2.5311   23.7826 C.ar    1  UNL1        0.1459
      5 N           4.7726   -1.8943   25.1379 N.ar    1  UNL1       -0.2355
      6 C           3.7907   -0.7877   25.3851 C.ar    1  UNL1        0.1332
      7 C           2.8954   -0.3179   24.2771 C.ar    1  UNL1        0.1527
      8 N           2.9820   -0.9548   22.9218 N.ar    1  UNL1       -0.2090
      9 C           3.9640   -2.0614   22.6745 C.ar    1  UNL1        0.1811
     10 N           1.9134    0.7888   24.5244 N.pl3   1  UNL1       -0.2919
     11 C           1.4985    1.5907   25.7222 C.3     1  UNL1        0.0939
     12 C           0.5247    2.3538   24.8741 C.3     1  UNL1        0.0409
     13 C           0.9396    1.5519   23.6762 C.3     1  UNL1        0.0939
     14 C          -0.4572    3.4604   25.1213 C.3     1  UNL1        0.0193
     15 C          -0.0314    4.8901   24.9638 C.3     1  UNL1        0.0029
     16 C          -1.0133    5.9967   25.2110 C.3     1  UNL1        0.0174
     17 C          -2.4211    5.6737   25.6158 C.3     1  UNL1        0.0722
     18 N          -2.8469    4.2441   25.7734 N.3     1  UNL1       -0.2706
     19 C          -1.8650    3.1374   25.5261 C.3     1  UNL1        0.0722
     20 C          -4.2547    3.9211   26.1782 C.3     1  UNL1        0.1042
     21 C          -5.3180    3.7615   25.1323 C.3     1  UNL1        0.1544
     22 O          -5.0931    2.8426   23.9683 O.3     1  UNL1       -0.3805
     23 H          -4.3740    3.1891   23.4171 H       1  UNL1        0.2105
     24 C           3.5187   -3.9241   19.1991 C.3     1  UNL1        0.0313
     25 C           3.6132   -2.7378   20.1124 C.3     1  UNL1        0.1299
     26 C           3.0468   -1.4160   19.6859 C.ar    1  UNL1        0.0106
     27 C           1.5937   -1.1163   19.9068 C.ar    1  UNL1       -0.0007
     28 C           1.0273    0.2056   19.4803 C.ar    1  UNL1        0.0112
     29 C           1.9140    1.2277   18.8329 C.ar    1  UNL1        0.0585
     30 CL          1.3476    2.5495   18.4064 Cl      1  UNL1       -0.0822
     31 C           3.3670    0.9279   18.6121 C.ar    1  UNL1        0.0225
     32 C           3.9335   -0.3939   19.0385 C.ar    1  UNL1        0.0563
     33 CL          5.3865   -0.6935   18.8176 Cl      1  UNL1       -0.0825
     34 C           6.7648   -4.3914   24.0129 C.1     1  UNL1        0.1232
     35 N           7.8069   -5.1493   24.7808 N.1     1  UNL1       -0.1891
@<TRIPOS>BOND
     1    25    24    1
     2    25    26    1
     3    26    27   ar
     4    27    28   ar
     5    28    29   ar
     6    29    30    1
     7    29    31   ar
     8    31    32   ar
     9    32    33    1
    10    25     1    1
    11     1     2   ar
    12     2     3   ar
    13     3    34    1
    14    34    35    3
    15     3     4   ar
    16     4     5   ar
    17     5     6   ar
    18     6     7   ar
    19     7    10    1
    20    10    11    1
    21    11    12    1
    22    14    12    1
    23    14    15    1
    24    15    16    1
    25    16    17    1
    26    17    18    1
    27    18    20    1
    28    20    21    1
    29    21    22    1
    30    18    19    1
    31    12    13    1
    32     7     8   ar
    33     8     9   ar
    34    32    26   ar
    35     9     1   ar
    36     9     4   ar
    37    13    10    1
    38    19    14    1
    39    22    23    1
@<TRIPOS>MOLECULE
*****
 35 39 0 0 0
SMALL
GASTEIGER

@<TRIPOS>ATOM
      1 N           6.0111   -1.1851   29.9320 N.ar    1  UNL1       -0.2298
      2 N           5.3314   -0.5749   31.1219 N.ar    1  UNL1       -0.1556
      3 C           3.9943   -0.0598   30.6782 C.ar    1  UNL1        0.1892
      4 C           3.8476   -0.3516   29.2142 C.ar    1  UNL1        0.1459
      5 N           2.7401   -0.0739   28.2415 N.ar    1  UNL1       -0.2355
      6 C           2.8790   -0.4916   26.8076 C.ar    1  UNL1        0.1332
      7 C           4.1255   -1.1871   26.3464 C.ar    1  UNL1        0.1527
      8 N           5.2330   -1.4648   27.3191 N.ar    1  UNL1       -0.2090
      9 C           5.0940   -1.0471   28.7530 C.ar    1  UNL1        0.1811
     10 N           4.2643   -1.6049   24.9124 N.pl3   1  UNL1       -0.2919
     11 C           3.5159   -1.3136   23.6455 C.3     1  UNL1        0.0939
     12 C           4.4608   -2.1957   22.8845 C.3     1  UNL1        0.0409
     13 C           5.2093   -2.4869   24.1514 C.3     1  UNL1        0.0939
     14 C           4.5997   -2.6135   21.4506 C.3     1  UNL1        0.0193
     15 C           4.3310   -4.0350   21.0541 C.3     1  UNL1        0.0029
     16 C           4.4699   -4.4528   19.6202 C.3     1  UNL1        0.0174
     17 C           4.8776   -3.4491   18.5827 C.3     1  UNL1        0.0722
     18 N           5.1463   -2.0276   18.9791 N.3     1  UNL1       -0.2706
     19 C           5.0074   -1.6098   20.4131 C.3     1  UNL1        0.0722
     20 C           5.5540   -1.0239   17.9416 C.3     1  UNL1        0.1042
     21 C           4.5267   -0.4426   17.0161 C.3     1  UNL1        0.1544
     22 O           3.7114   -1.3454   16.1385 O.3     1  UNL1       -0.3805
     23 H           4.2904   -1.7745   15.4893 H       1  UNL1        0.2105
     24 C           8.5695   -1.0343   30.3588 C.3     1  UNL1        0.0313
     25 C           7.3693   -1.8215   29.9227 C.3     1  UNL1        0.1299
     26 C           7.5275   -3.2451   29.4775 C.ar    1  UNL1        0.0106
     27 C           8.0683   -3.5480   28.1114 C.ar    1  UNL1       -0.0007
     28 C           8.2266   -4.9715   27.6661 C.ar    1  UNL1        0.0112
     29 C           7.8440   -6.0923   28.5867 C.ar    1  UNL1        0.0585
     30 CL          8.0023   -7.5159   28.1413 Cl      1  UNL1       -0.0822
     31 C           7.3033   -5.7895   29.9527 C.ar    1  UNL1        0.0225
     32 C           7.1450   -4.3659   30.3980 C.ar    1  UNL1        0.0563
     33 CL          6.6043   -4.0631   31.7640 Cl      1  UNL1       -0.0825
     34 C           2.9817    0.6266   31.5462 C.1     1  UNL1        0.1232
     35 N           1.9690    1.3131   32.4141 N.1     1  UNL1       -0.1891
@<TRIPOS>BOND
     1    25    24    1
     2    25    26    1
     3    26    27   ar
     4    27    28   ar
     5    28    29   ar
     6    29    30    1
     7    29    31   ar
     8    31    32   ar
     9    32    33    1
    10    25     1    1
    11     1     2   ar
    12     2     3   ar
    13     3    34    1
    14    34    35    3
    15     3     4   ar
    16     4     5   ar
    17     5     6   ar
    18     6     7   ar
    19     7    10    1
    20    10    11    1
    21    11    12    1
    22    14    12    1
    23    14    15    1
    24    15    16    1
    25    16    17    1
    26    17    18    1
    27    18    20    1
    28    20    21    1
    29    21    22    1
    30    18    19    1
    31    12    13    1
    32     7     8   ar
    33     8     9   ar
    34    32    26   ar
    35     9     1   ar
    36     9     4   ar
    37    13    10    1
    38    19    14    1
    39    22    23    1
@<TRIPOS>MOLECULE
*****
 35 39 0 0 0
SMALL
GASTEIGER

@<TRIPOS>ATOM
      1 N           7.8706   -4.1070   27.2130 N.ar    1  UNL1       -0.2298
      2 N           8.2767   -5.4543   26.6937 N.ar    1  UNL1       -0.1556
      3 C           8.0987   -6.4507   27.8007 C.ar    1  UNL1        0.1892
      4 C           7.5826   -5.7192   29.0043 C.ar    1  UNL1        0.1459
      5 N           7.2228   -6.1849   30.3840 N.ar    1  UNL1       -0.2355
      6 C           6.7221   -5.2021   31.4005 C.ar    1  UNL1        0.1332
      7 C           6.5811   -3.7535   31.0372 C.ar    1  UNL1        0.1527
      8 N           6.9409   -3.2878   29.6575 N.ar    1  UNL1       -0.2090
      9 C           7.4416   -4.2706   28.6411 C.ar    1  UNL1        0.1811
     10 N           6.0803   -2.7707   32.0538 N.pl3   1  UNL1       -0.2919
     11 C           4.9119   -2.7186   32.9930 C.3     1  UNL1        0.0939
     12 C           5.3722   -1.3808   33.4914 C.3     1  UNL1        0.0409
     13 C           6.5406   -1.4329   32.5522 C.3     1  UNL1        0.0939
     14 C           4.8715   -0.3980   34.5079 C.3     1  UNL1        0.0193
     15 C           5.3399   -0.4857   35.9303 C.3     1  UNL1        0.0029
     16 C           4.8392    0.4971   36.9468 C.3     1  UNL1        0.0174
     17 C           3.8701    1.5677   36.5410 C.3     1  UNL1        0.0722
     18 N           3.4017    1.6555   35.1188 N.3     1  UNL1       -0.2706
     19 C           3.9024    0.6726   34.1022 C.3     1  UNL1        0.0722
     20 C           2.4326    2.7261   34.7130 C.3     1  UNL1        0.1042
     21 C           1.9252    2.7831   33.3026 C.3     1  UNL1        0.1544
     22 O           0.9381    1.7625   32.8189 O.3     1  UNL1       -0.3805
     23 H           1.3576    0.8880   32.8052 H       1  UNL1        0.2105
     24 C           9.1863   -2.1005   26.2163 C.3     1  UNL1        0.0313
     25 C           7.8900   -2.8216   26.4401 C.3     1  UNL1        0.1299
     26 C           6.6134   -2.2572   25.8910 C.ar    1  UNL1        0.0106
     27 C           5.9233   -1.1318   26.6033 C.ar    1  UNL1       -0.0007
     28 C           4.6467   -0.5673   26.0542 C.ar    1  UNL1        0.0112
     29 C           4.0601   -1.1283   24.7927 C.ar    1  UNL1        0.0585
     30 CL          2.7834   -0.5639   24.2436 Cl      1  UNL1       -0.0822
     31 C           4.7501   -2.2537   24.0804 C.ar    1  UNL1        0.0225
     32 C           6.0268   -2.8182   24.6295 C.ar    1  UNL1        0.0563
     33 CL          6.7167   -3.9435   23.9172 Cl      1  UNL1       -0.0825
     34 C           8.3863   -7.9206   27.7187 C.1     1  UNL1        0.1232
     35 N           8.6738   -9.3905   27.6367 N.1     1  UNL1       -0.1891
@<TRIPOS>BOND
     1    25    24    1
     2    25    26    1
     3    26    27   ar
     4    27    28   ar
     5    28    29   ar
     6    29    30    1
     7    29    31   ar
     8    31    32   ar
     9    32    33    1
    10    25     1    1
    11     1     2   ar
    12     2     3   ar
    13     3    34    1
    14    34    35    3
    15     3     4   ar
    16     4     5   ar
    17     5     6   ar
    18     6     7   ar
    19     7    10    1
    20    10    11    1
    21    11    12    1
    22    14    12    1
    23    14    15    1
    24    15    16    1
    25    16    17    1
    26    17    18    1
    27    18    20    1
    28    20    21    1
    29    21    22    1
    30    18    19    1
    31    12    13    1
    32     7     8   ar
    33     8     9   ar
    34    32    26   ar
    35     9     1   ar
    36     9     4   ar
    37    13    10    1
    38    19    14    1
    39    22    23    1
@<TRIPOS>MOLECULE
*****
 35 39 0 0 0
SMALL
GASTEIGER

@<TRIPOS>ATOM
      1 N           2.0916    0.9248   30.3843 N.ar    1  UNL1       -0.2298
      2 N           2.7723    0.4038   31.6152 N.ar    1  UNL1       -0.1556
      3 C           3.8326   -0.5654   31.1833 C.ar    1  UNL1        0.1892
      4 C           3.8071   -0.6434   29.6855 C.ar    1  UNL1        0.1459
      5 N           4.6246   -1.4340   28.7076 N.ar    1  UNL1       -0.2355
      6 C           4.3661   -1.3036   27.2358 C.ar    1  UNL1        0.1332
      7 C           3.2901   -0.3826   26.7420 C.ar    1  UNL1        0.1527
      8 N           2.4725    0.4081   27.7200 N.ar    1  UNL1       -0.2090
      9 C           2.7310    0.2777   29.1918 C.ar    1  UNL1        0.1811
     10 N           3.0316   -0.2522   25.2702 N.pl3   1  UNL1       -0.2919
     11 C           2.2420    0.6906   24.4113 C.3     1  UNL1        0.0939
     12 C           2.6661   -0.0679   23.1887 C.3     1  UNL1        0.0409
     13 C           3.4557   -1.0107   24.0476 C.3     1  UNL1        0.0939
     14 C           2.4077    0.0624   21.7169 C.3     1  UNL1        0.0193
     15 C           1.0051    0.2357   21.2142 C.3     1  UNL1        0.0029
     16 C           0.7466    0.3660   19.7424 C.3     1  UNL1        0.0174
     17 C           1.8908    0.3231   18.7733 C.3     1  UNL1        0.0722
     18 N           3.2933    0.1498   19.2760 N.3     1  UNL1       -0.2706
     19 C           3.5518    0.0195   20.7479 C.3     1  UNL1        0.0722
     20 C           4.4375    0.1069   18.3069 C.3     1  UNL1        0.1042
     21 C           4.6209   -1.0853   17.4154 C.3     1  UNL1        0.1544
     22 O           3.7282   -1.2762   16.2252 O.3     1  UNL1       -0.3805
     23 H           2.8196   -1.4359   16.5248 H       1  UNL1        0.2105
     24 C           0.4325    2.4870   31.6324 C.3     1  UNL1        0.0313
     25 C           0.9684    1.9186   30.3518 C.3     1  UNL1        0.1299
     26 C           0.3812    2.3440   29.0388 C.ar    1  UNL1        0.0106
     27 C           0.8339    3.6200   28.3929 C.ar    1  UNL1       -0.0007
     28 C           0.2467    4.0455   27.0798 C.ar    1  UNL1        0.0112
     29 C          -0.7932    3.1950   26.4126 C.ar    1  UNL1        0.0585
     30 CL         -1.3804    3.6205   25.0995 Cl      1  UNL1       -0.0822
     31 C          -1.2459    1.9191   27.0584 C.ar    1  UNL1        0.0225
     32 C          -0.6587    1.4936   28.3714 C.ar    1  UNL1        0.0563
     33 CL         -1.1115    0.2177   29.0172 Cl      1  UNL1       -0.0825
     34 C           4.7562   -1.3236   32.0900 C.1     1  UNL1        0.1232
     35 N           5.6799   -2.0817   32.9968 N.1     1  UNL1       -0.1891
@<TRIPOS>BOND
     1    25    24    1
     2    25    26    1
     3    26    27   ar
     4    27    28   ar
     5    28    29   ar
     6    29    30    1
     7    29    31   ar
     8    31    32   ar
     9    32    33    1
    10    25     1    1
    11     1     2   ar
    12     2     3   ar
    13     3    34    1
    14    34    35    3
    15     3     4   ar
    16     4     5   ar
    17     5     6   ar
    18     6     7   ar
    19     7    10    1
    20    10    11    1
    21    11    12    1
    22    14    12    1
    23    14    15    1
    24    15    16    1
    25    16    17    1
    26    17    18    1
    27    18    20    1
    28    20    21    1
    29    21    22    1
    30    18    19    1
    31    12    13    1
    32     7     8   ar
    33     8     9   ar
    34    32    26   ar
    35     9     1   ar
    36     9     4   ar
    37    13    10    1
    38    19    14    1
    39    22    23    1
@<TRIPOS>MOLECULE
*****
 35 39 0 0 0
SMALL
GASTEIGER

@<TRIPOS>ATOM
      1 N           4.7696   -3.2105   21.4465 N.ar    1  UNL1       -0.2298
      2 N           5.7604   -4.1705   22.0352 N.ar    1  UNL1       -0.1556
      3 C           5.8932   -3.8612   23.4970 C.ar    1  UNL1        0.1892
      4 C           4.9846   -2.7099   23.8116 C.ar    1  UNL1        0.1459
      5 N           4.6998   -1.9759   25.0883 N.ar    1  UNL1       -0.2355
      6 C           3.7206   -0.8397   25.0978 C.ar    1  UNL1        0.1332
      7 C           3.0262   -0.4375   23.8305 C.ar    1  UNL1        0.1527
      8 N           3.3109   -1.1715   22.5538 N.ar    1  UNL1       -0.2090
      9 C           4.2901   -2.3077   22.5443 C.ar    1  UNL1        0.1811
     10 N           2.0470    0.6988   23.8400 N.pl3   1  UNL1       -0.2919
     11 C           0.8571    1.0667   24.6760 C.3     1  UNL1        0.0939
     12 C           0.6622    2.3057   23.8533 C.3     1  UNL1        0.0409
     13 C           1.8520    1.9379   23.0173 C.3     1  UNL1        0.0939
     14 C          -0.3170    3.4420   23.8628 C.3     1  UNL1        0.0193
     15 C          -0.0919    4.6186   24.7656 C.3     1  UNL1        0.0029
     16 C          -1.0711    5.7548   24.7751 C.3     1  UNL1        0.0174
     17 C          -2.2753    5.7146   23.8817 C.3     1  UNL1        0.0722
     18 N          -2.5004    4.5381   22.9788 N.3     1  UNL1       -0.2706
     19 C          -1.5212    3.4018   22.9694 C.3     1  UNL1        0.0722
     20 C          -3.7047    4.4978   22.0854 C.3     1  UNL1        0.1042
     21 C          -4.6026    3.2964   22.0907 C.3     1  UNL1        0.1544
     22 O          -4.6024    2.3547   20.9231 O.3     1  UNL1       -0.3805
     23 H          -4.9466    2.8112   20.1395 H       1  UNL1        0.2105
     24 C           3.4048   -4.2087   19.4739 C.3     1  UNL1        0.0313
     25 C           4.3346   -3.1616   20.0118 C.3     1  UNL1        0.1299
     26 C           4.8294   -2.0659   19.1149 C.ar    1  UNL1        0.0106
     27 C           6.2309   -2.1082   18.5819 C.ar    1  UNL1       -0.0007
     28 C           6.7257   -1.0124   17.6850 C.ar    1  UNL1        0.0112
     29 C           5.8189    0.1257   17.3211 C.ar    1  UNL1        0.0585
     30 CL          6.3137    1.2215   16.4242 Cl      1  UNL1       -0.0822
     31 C           4.4175    0.1681   17.8540 C.ar    1  UNL1        0.0225
     32 C           3.9227   -0.9277   18.7509 C.ar    1  UNL1        0.0563
     33 CL          2.5212   -0.8853   19.2838 Cl      1  UNL1       -0.0825
     34 C           6.7792   -4.5773   24.4728 C.1     1  UNL1        0.1232
     35 N           7.6651   -5.2935   25.4487 N.1     1  UNL1       -0.1891
@<TRIPOS>BOND
     1    25    24    1
     2    25    26    1
     3    26    27   ar
     4    27    28   ar
     5    28    29   ar
     6    29    30    1
     7    29    31   ar
     8    31    32   ar
     9    32    33    1
    10    25     1    1
    11     1     2   ar
    12     2     3   ar
    13     3    34    1
    14    34    35    3
    15     3     4   ar
    16     4     5   ar
    17     5     6   ar
    18     6     7   ar
    19     7    10    1
    20    10    11    1
    21    11    12    1
    22    14    12    1
    23    14    15    1
    24    15    16    1
    25    16    17    1
    26    17    18    1
    27    18    20    1
    28    20    21    1
    29    21    22    1
    30    18    19    1
    31    12    13    1
    32     7     8   ar
    33     8     9   ar
    34    32    26   ar
    35     9     1   ar
    36     9     4   ar
    37    13    10    1
    38    19    14    1
    39    22    23    1
@<TRIPOS>MOLECULE
*****
 35 39 0 0 0
SMALL
GASTEIGER

@<TRIPOS>ATOM
      1 N           2.8843    0.5665   22.2417 N.ar    1  UNL1       -0.2298
      2 N           1.8979    1.1131   21.2526 N.ar    1  UNL1       -0.1556
      3 C           0.7132    1.6274   22.0155 C.ar    1  UNL1        0.1892
      4 C           0.9673    1.3987   23.4760 C.ar    1  UNL1        0.1459
      5 N           0.1503    1.7028   24.6966 N.ar    1  UNL1       -0.2355
      6 C           0.6752    1.3512   26.0571 C.ar    1  UNL1        0.1332
      7 C           2.0170    0.6955   26.1969 C.ar    1  UNL1        0.1527
      8 N           2.8340    0.3914   24.9763 N.ar    1  UNL1       -0.2090
      9 C           2.3092    0.7430   23.6158 C.ar    1  UNL1        0.1811
     10 N           2.5418    0.3438   27.5574 N.pl3   1  UNL1       -0.2919
     11 C           3.7652    0.7027   28.3478 C.3     1  UNL1        0.0939
     12 C           3.2839   -0.1535   29.4815 C.3     1  UNL1        0.0409
     13 C           2.0605   -0.5123   28.6912 C.3     1  UNL1        0.0939
     14 C           3.8086   -0.5051   30.8420 C.3     1  UNL1        0.0193
     15 C           3.3060    0.2258   32.0517 C.3     1  UNL1        0.0029
     16 C           3.8307   -0.1259   33.4122 C.3     1  UNL1        0.0174
     17 C           4.8581   -1.2083   33.5630 C.3     1  UNL1        0.0722
     18 N           5.3607   -1.9392   32.3534 N.3     1  UNL1       -0.2706
     19 C           4.8360   -1.5876   30.9929 C.3     1  UNL1        0.0722
     20 C           6.3881   -3.0217   32.5043 C.3     1  UNL1        0.1042
     21 C           6.6795   -3.9441   31.3580 C.3     1  UNL1        0.1544
     22 O           6.5949   -5.4293   31.5503 O.3     1  UNL1       -0.3805
     23 H           7.2857   -5.7152   32.1683 H       1  UNL1        0.2105
     24 C           5.4786    0.6117   22.3739 C.3     1  UNL1        0.0313
     25 C           4.2126   -0.0486   21.9142 C.3     1  UNL1        0.1299
     26 C           4.2749   -1.3239   21.1271 C.ar    1  UNL1        0.0106
     27 C           4.2095   -1.2846   19.6290 C.ar    1  UNL1       -0.0007
     28 C           4.2718   -2.5598   18.8417 C.ar    1  UNL1        0.0112
     29 C           4.3996   -3.8745   19.5526 C.ar    1  UNL1        0.0585
     30 CL          4.4620   -5.1498   18.7654 Cl      1  UNL1       -0.0822
     31 C           4.4650   -3.9139   21.0507 C.ar    1  UNL1        0.0225
     32 C           4.4027   -2.6386   21.8379 C.ar    1  UNL1        0.0563
     33 CL          4.4681   -2.6780   23.3359 Cl      1  UNL1       -0.0825
     34 C          -0.5109    2.2595   21.4220 C.1     1  UNL1        0.1232
     35 N          -1.7350    2.8916   20.8285 N.1     1  UNL1       -0.1891
@<TRIPOS>BOND
     1    25    24    1
     2    25    26    1
     3    26    27   ar
     4    27    28   ar
     5    28    29   ar
     6    29    30    1
     7    29    31   ar
     8    31    32   ar
     9    32    33    1
    10    25     1    1
    11     1     2   ar
    12     2     3   ar
    13     3    34    1
    14    34    35    3
    15     3     4   ar
    16     4     5   ar
    17     5     6   ar
    18     6     7   ar
    19     7    10    1
    20    10    11    1
    21    11    12    1
    22    14    12    1
    23    14    15    1
    24    15    16    1
    25    16    17    1
    26    17    18    1
    27    18    20    1
    28    20    21    1
    29    21    22    1
    30    18    19    1
    31    12    13    1
    32     7     8   ar
    33     8     9   ar
    34    32    26   ar
    35     9     1   ar
    36     9     4   ar
    37    13    10    1
    38    19    14    1
    39    22    23    1
