@<TRIPOS>MOLECULE
*****
 25 27 0 0 0
SMALL
GASTEIGER

@<TRIPOS>ATOM
      1 C          -3.4864  -18.4866   22.1270 C.3     1  UNL1        0.0302
      2 C          -3.9814  -17.4425   23.0833 C.3     1  UNL1        0.0736
      3 N          -5.4523  -17.1761   23.2074 N.3     1  UNL1       -0.2699
      4 C          -5.9474  -16.1319   24.1638 C.3     1  UNL1        0.0770
      5 C          -7.4183  -15.8655   24.2879 C.3     1  UNL1        0.0435
      6 C          -8.3942  -16.6433   23.4556 C.ar    1  UNL1       -0.0203
      7 C          -9.8652  -16.3769   23.5796 C.ar    1  UNL1        0.0356
      8 C         -10.8410  -17.1547   22.7474 C.ar    1  UNL1        0.1721
      9 C         -10.3460  -18.1989   21.7911 C.ar    1  UNL1        0.1721
     10 C          -8.8750  -18.4653   21.6670 C.ar    1  UNL1        0.0368
     11 C          -7.8992  -17.6875   22.4992 C.ar    1  UNL1       -0.0084
     12 C          -6.4282  -17.9539   22.3752 C.3     1  UNL1        0.0812
     13 C          -5.9332  -18.9980   21.4189 C.3     1  UNL1        0.0360
     14 C          -4.4622  -19.2644   21.2948 C.3     1  UNL1        0.0538
     15 N          -3.9672  -20.3087   20.3384 N.3     1  UNL1       -0.3221
     16 H          -4.7607  -20.7346   19.8595 H       1  UNL1        0.1188
     17 H          -3.4557  -21.0257   20.8528 H       1  UNL1        0.1188
     18 O         -12.3120  -16.8883   22.8715 O.3     1  UNL1       -0.4684
     19 C         -13.2002  -17.8870   23.5524 C.3     1  UNL1        0.2526
     20 O         -11.3219  -18.9767   20.9588 O.3     1  UNL1       -0.4684
     21 C         -10.9847  -19.3280   19.5400 C.3     1  UNL1        0.2526
     22 C          -2.0154  -18.7530   22.0030 C.3     1  UNL1        0.0027
     23 C          -1.1617  -17.8639   21.1482 C.3     1  UNL1        0.0001
     24 C          -1.9199  -17.8346   18.6634 C.3     1  UNL1        0.0000
     25 C          -0.9162  -18.2160   19.7110 C.3     1  UNL1        0.0000
@<TRIPOS>BOND
     1    24    25    1
     2    25    23    1
     3    23    22    1
     4     1    22    1
     5     1     2    1
     6     2     3    1
     7     3     4    1
     8     4     5    1
     9     5     6    1
    10     6     7   ar
    11     7     8   ar
    12     8    18    1
    13    18    19    1
    14     8     9   ar
    15     9    20    1
    16    20    21    1
    17     9    10   ar
    18    10    11   ar
    19    11    12    1
    20    12    13    1
    21    13    14    1
    22    14    15    1
    23    14     1    1
    24    12     3    1
    25    11     6   ar
    26    15    16    1
    27    15    17    1
@<TRIPOS>MOLECULE
*****
 25 27 0 0 0
SMALL
GASTEIGER

@<TRIPOS>ATOM
      1 C         -10.9495  -17.1401   21.9466 C.3     1  UNL1        0.0302
      2 C         -10.6380  -18.1178   20.8526 C.3     1  UNL1        0.0736
      3 N          -9.2385  -18.6289   20.6794 N.3     1  UNL1       -0.2699
      4 C          -8.9271  -19.6067   19.5853 C.3     1  UNL1        0.0770
      5 C          -7.5276  -20.1178   19.4122 C.3     1  UNL1        0.0435
      6 C          -6.4394  -19.6512   20.3332 C.ar    1  UNL1       -0.0203
      7 C          -5.0398  -20.1624   20.1601 C.ar    1  UNL1        0.0356
      8 C          -3.9517  -19.6958   21.0810 C.ar    1  UNL1        0.1721
      9 C          -4.2631  -18.7181   22.1751 C.ar    1  UNL1        0.1721
     10 C          -5.6627  -18.2070   22.3482 C.ar    1  UNL1        0.0368
     11 C          -6.7508  -18.6735   21.4273 C.ar    1  UNL1       -0.0084
     12 C          -8.1504  -18.1624   21.6004 C.3     1  UNL1        0.0812
     13 C          -8.4618  -17.1847   22.6945 C.3     1  UNL1        0.0360
     14 C          -9.8613  -16.6735   22.8676 C.3     1  UNL1        0.0538
     15 N         -10.1727  -15.6957   23.9618 N.3     1  UNL1       -0.3221
     16 H          -9.3225  -15.4906   24.4866 H       1  UNL1        0.1188
     17 H         -10.8704  -16.0973   24.5882 H       1  UNL1        0.1188
     18 O          -2.5521  -20.2070   20.9079 O.3     1  UNL1       -0.4684
     19 C          -1.5106  -19.3388   20.2665 C.3     1  UNL1        0.2526
     20 O          -3.1749  -18.2515   23.0962 O.3     1  UNL1       -0.4684
     21 C          -2.4670  -16.9571   22.8255 C.3     1  UNL1        0.2526
     22 C         -12.3490  -16.6289   22.1198 C.3     1  UNL1        0.0027
     23 C         -13.3723  -17.4686   22.8253 C.3     1  UNL1        0.0001
     24 C         -14.1157  -18.4471   25.1144 C.3     1  UNL1        0.0000
     25 C         -13.0312  -18.1295   24.1280 C.3     1  UNL1        0.0000
@<TRIPOS>BOND
     1    24    25    1
     2    25    23    1
     3    23    22    1
     4     1    22    1
     5     1     2    1
     6     2     3    1
     7     3     4    1
     8     4     5    1
     9     5     6    1
    10     6     7   ar
    11     7     8   ar
    12     8    18    1
    13    18    19    1
    14     8     9   ar
    15     9    20    1
    16    20    21    1
    17     9    10   ar
    18    10    11   ar
    19    11    12    1
    20    12    13    1
    21    13    14    1
    22    14    15    1
    23    14     1    1
    24    12     3    1
    25    11     6   ar
    26    15    16    1
    27    15    17    1
@<TRIPOS>MOLECULE
*****
 25 27 0 0 0
SMALL
GASTEIGER

@<TRIPOS>ATOM
      1 C          -5.7299  -15.7711   24.4676 C.3     1  UNL1        0.0302
      2 C          -4.9278  -16.9080   23.9071 C.3     1  UNL1        0.0736
      3 N          -5.5132  -17.7844   22.8398 N.3     1  UNL1       -0.2699
      4 C          -4.7110  -18.9213   22.2793 C.3     1  UNL1        0.0770
      5 C          -5.2964  -19.7977   21.2120 C.3     1  UNL1        0.0435
      6 C          -6.6840  -19.5372   20.7051 C.ar    1  UNL1       -0.0203
      7 C          -7.2694  -20.4136   19.6378 C.ar    1  UNL1        0.0356
      8 C          -8.6569  -20.1532   19.1309 C.ar    1  UNL1        0.1721
      9 C          -9.4590  -19.0163   19.6914 C.ar    1  UNL1        0.1721
     10 C          -8.8736  -18.1399   20.7587 C.ar    1  UNL1        0.0368
     11 C          -7.4861  -18.4004   21.2656 C.ar    1  UNL1       -0.0084
     12 C          -6.9007  -17.5239   22.3329 C.3     1  UNL1        0.0812
     13 C          -7.7028  -16.3871   22.8934 C.3     1  UNL1        0.0360
     14 C          -7.1174  -15.5107   23.9607 C.3     1  UNL1        0.0538
     15 N          -7.9195  -14.3738   24.5212 N.3     1  UNL1       -0.3221
     16 H          -8.8316  -14.3441   24.0656 H       1  UNL1        0.1188
     17 H          -7.4275  -13.4959   24.3547 H       1  UNL1        0.1188
     18 O          -9.2423  -21.0296   18.0636 O.3     1  UNL1       -0.4684
     19 C          -8.5327  -22.2852   17.6514 C.3     1  UNL1        0.2526
     20 O         -10.8465  -18.7558   19.1845 O.3     1  UNL1       -0.4684
     21 C         -11.6014  -17.5472   19.6527 C.3     1  UNL1        0.2526
     22 C          -5.1444  -14.8947   25.5349 C.3     1  UNL1        0.0027
     23 C          -5.8310  -14.7695   26.8627 C.3     1  UNL1        0.0001
     24 C          -8.0287  -15.9712   27.5528 C.3     1  UNL1        0.0000
     25 C          -6.5316  -15.9540   27.4594 C.3     1  UNL1        0.0000
@<TRIPOS>BOND
     1    24    25    1
     2    25    23    1
     3    23    22    1
     4     1    22    1
     5     1     2    1
     6     2     3    1
     7     3     4    1
     8     4     5    1
     9     5     6    1
    10     6     7   ar
    11     7     8   ar
    12     8    18    1
    13    18    19    1
    14     8     9   ar
    15     9    20    1
    16    20    21    1
    17     9    10   ar
    18    10    11   ar
    19    11    12    1
    20    12    13    1
    21    13    14    1
    22    14    15    1
    23    14     1    1
    24    12     3    1
    25    11     6   ar
    26    15    16    1
    27    15    17    1
@<TRIPOS>MOLECULE
*****
 25 27 0 0 0
SMALL
GASTEIGER

@<TRIPOS>ATOM
      1 C           6.7620   -3.5300   20.8790 C.3     1  UNL1        0.0302
      2 C           7.7401   -4.6663   20.9218 C.3     1  UNL1        0.0736
      3 N           8.0130   -5.3726   22.2167 N.3     1  UNL1       -0.2699
      4 C           8.9912   -6.5090   22.2595 C.3     1  UNL1        0.0770
      5 C           9.2641   -7.2153   23.5544 C.3     1  UNL1        0.0435
      6 C           8.5587   -6.7852   24.8064 C.ar    1  UNL1       -0.0203
      7 C           8.8316   -7.4916   26.1013 C.ar    1  UNL1        0.0356
      8 C           8.1263   -7.0615   27.3533 C.ar    1  UNL1        0.1721
      9 C           7.1482   -5.9252   27.3105 C.ar    1  UNL1        0.1721
     10 C           6.8753   -5.2189   26.0156 C.ar    1  UNL1        0.0368
     11 C           7.5806   -5.6489   24.7636 C.ar    1  UNL1       -0.0084
     12 C           7.3077   -4.9426   23.4687 C.3     1  UNL1        0.0812
     13 C           6.3295   -3.8062   23.4259 C.3     1  UNL1        0.0360
     14 C           6.0567   -3.0999   22.1310 C.3     1  UNL1        0.0538
     15 N           5.0785   -1.9635   22.0882 N.3     1  UNL1       -0.3221
     16 H           4.6967   -1.8082   23.0212 H       1  UNL1        0.1188
     17 H           4.3208   -2.1912   21.4444 H       1  UNL1        0.1188
     18 O           8.3992   -7.7678   28.6482 O.3     1  UNL1       -0.4684
     19 C           9.3352   -7.1608   29.6508 C.3     1  UNL1        0.2526
     20 O           6.4428   -5.4951   28.5625 O.3     1  UNL1       -0.4684
     21 C           6.6173   -4.0978   29.0794 C.3     1  UNL1        0.2526
     22 C           6.4891   -2.8237   19.5841 C.3     1  UNL1        0.0027
     23 C           5.2570   -3.1538   18.7949 C.3     1  UNL1        0.0001
     24 C           3.5264   -4.9331   19.5625 C.3     1  UNL1        0.0000
     25 C           4.7409   -4.5619   18.7641 C.3     1  UNL1        0.0000
@<TRIPOS>BOND
     1    24    25    1
     2    25    23    1
     3    23    22    1
     4     1    22    1
     5     1     2    1
     6     2     3    1
     7     3     4    1
     8     4     5    1
     9     5     6    1
    10     6     7   ar
    11     7     8   ar
    12     8    18    1
    13    18    19    1
    14     8     9   ar
    15     9    20    1
    16    20    21    1
    17     9    10   ar
    18    10    11   ar
    19    11    12    1
    20    12    13    1
    21    13    14    1
    22    14    15    1
    23    14     1    1
    24    12     3    1
    25    11     6   ar
    26    15    16    1
    27    15    17    1
@<TRIPOS>MOLECULE
*****
 25 27 0 0 0
SMALL
GASTEIGER

@<TRIPOS>ATOM
      1 C           4.4586   -1.6695   18.7891 C.3     1  UNL1        0.0302
      2 C           4.1915   -1.4787   20.2527 C.3     1  UNL1        0.0736
      3 N           3.1352   -0.5135   20.7028 N.3     1  UNL1       -0.2699
      4 C           2.8681   -0.3227   22.1665 C.3     1  UNL1        0.0770
      5 C           1.8118    0.6425   22.6166 C.3     1  UNL1        0.0435
      6 C           1.0226    1.4170   21.6029 C.ar    1  UNL1       -0.0203
      7 C          -0.0337    2.3822   22.0530 C.ar    1  UNL1        0.0356
      8 C          -0.8229    3.1566   21.0395 C.ar    1  UNL1        0.1721
      9 C          -0.5558    2.9659   19.5759 C.ar    1  UNL1        0.1721
     10 C           0.5005    2.0006   19.1258 C.ar    1  UNL1        0.0368
     11 C           1.2897    1.2262   20.1393 C.ar    1  UNL1       -0.0084
     12 C           2.3460    0.2610   19.6893 C.3     1  UNL1        0.0812
     13 C           2.6131    0.0702   18.2256 C.3     1  UNL1        0.0360
     14 C           3.6694   -0.8950   17.7756 C.3     1  UNL1        0.0538
     15 N           3.9365   -1.0858   16.3119 N.3     1  UNL1       -0.3221
     16 H           3.3139   -0.4851   15.7715 H       1  UNL1        0.1188
     17 H           3.7714   -2.0604   16.0603 H       1  UNL1        0.1188
     18 O          -1.8792    4.1218   21.4895 O.3     1  UNL1       -0.4684
     19 C          -3.2858    3.6475   21.7052 C.3     1  UNL1        0.2526
     20 O          -1.3451    3.7403   18.5622 O.3     1  UNL1       -0.4684
     21 C          -0.8627    3.8293   17.1447 C.3     1  UNL1        0.2526
     22 C           5.5149   -2.6347   18.3390 C.3     1  UNL1        0.0027
     23 C           5.6557   -3.9637   19.0200 C.3     1  UNL1        0.0001
     24 C           3.3525   -5.0459   19.5438 C.3     1  UNL1        0.0000
     25 C           4.6418   -5.0421   18.7770 C.3     1  UNL1        0.0000
@<TRIPOS>BOND
     1    24    25    1
     2    25    23    1
     3    23    22    1
     4     1    22    1
     5     1     2    1
     6     2     3    1
     7     3     4    1
     8     4     5    1
     9     5     6    1
    10     6     7   ar
    11     7     8   ar
    12     8    18    1
    13    18    19    1
    14     8     9   ar
    15     9    20    1
    16    20    21    1
    17     9    10   ar
    18    10    11   ar
    19    11    12    1
    20    12    13    1
    21    13    14    1
    22    14    15    1
    23    14     1    1
    24    12     3    1
    25    11     6   ar
    26    15    16    1
    27    15    17    1
@<TRIPOS>MOLECULE
*****
 25 27 0 0 0
SMALL
GASTEIGER

@<TRIPOS>ATOM
      1 C           6.8191   -3.8934   22.5101 C.3     1  UNL1        0.0302
      2 C           6.9596   -3.6224   21.0416 C.3     1  UNL1        0.0736
      3 N           5.9180   -2.8155   20.3247 N.3     1  UNL1       -0.2699
      4 C           6.0586   -2.5446   18.8560 C.3     1  UNL1        0.0770
      5 C           5.0169   -1.7377   18.1392 C.3     1  UNL1        0.0435
      6 C           3.8347   -1.2017   18.8910 C.ar    1  UNL1       -0.0203
      7 C           2.7930   -0.3948   18.1741 C.ar    1  UNL1        0.0356
      8 C           1.6109    0.1411   18.9259 C.ar    1  UNL1        0.1721
      9 C           1.4703   -0.1298   20.3944 C.ar    1  UNL1        0.1721
     10 C           2.5120   -0.9367   21.1113 C.ar    1  UNL1        0.0368
     11 C           3.6941   -1.4727   20.3596 C.ar    1  UNL1       -0.0084
     12 C           4.7358   -2.2796   21.0764 C.3     1  UNL1        0.0812
     13 C           4.5952   -2.5505   22.5450 C.3     1  UNL1        0.0360
     14 C           5.6369   -3.3574   23.2619 C.3     1  UNL1        0.0538
     15 N           5.4963   -3.6284   24.7305 N.3     1  UNL1       -0.3221
     16 H           4.6413   -3.1927   25.0763 H       1  UNL1        0.1188
     17 H           6.2995   -3.2414   25.2261 H       1  UNL1        0.1188
     18 O           0.5692    0.9480   18.2090 O.3     1  UNL1       -0.4684
     19 C           0.5826    2.4449   18.3051 C.3     1  UNL1        0.2526
     20 O           0.2881    0.4062   21.1462 O.3     1  UNL1       -0.4684
     21 C           0.4313    1.6384   21.9894 C.3     1  UNL1        0.2526
     22 C           7.8607   -4.7003   23.2270 C.3     1  UNL1        0.0027
     23 C           8.7030   -5.6820   22.4675 C.3     1  UNL1        0.0001
     24 C           8.4754   -7.4415   24.3655 C.3     1  UNL1        0.0000
     25 C           8.8188   -7.0989   22.9461 C.3     1  UNL1        0.0000
@<TRIPOS>BOND
     1    24    25    1
     2    25    23    1
     3    23    22    1
     4     1    22    1
     5     1     2    1
     6     2     3    1
     7     3     4    1
     8     4     5    1
     9     5     6    1
    10     6     7   ar
    11     7     8   ar
    12     8    18    1
    13    18    19    1
    14     8     9   ar
    15     9    20    1
    16    20    21    1
    17     9    10   ar
    18    10    11   ar
    19    11    12    1
    20    12    13    1
    21    13    14    1
    22    14    15    1
    23    14     1    1
    24    12     3    1
    25    11     6   ar
    26    15    16    1
    27    15    17    1
@<TRIPOS>MOLECULE
*****
 25 27 0 0 0
SMALL
GASTEIGER

@<TRIPOS>ATOM
      1 C           2.0923    0.9588   26.4295 C.3     1  UNL1        0.0302
      2 C           1.4965    1.2916   25.0938 C.3     1  UNL1        0.0736
      3 N           1.9250    0.5345   23.8718 N.3     1  UNL1       -0.2699
      4 C           1.3292    0.8674   22.5360 C.3     1  UNL1        0.0770
      5 C           1.7576    0.1102   21.3141 C.3     1  UNL1        0.0435
      6 C           2.7818   -0.9798   21.4279 C.ar    1  UNL1       -0.0203
      7 C           3.2102   -1.7370   20.2060 C.ar    1  UNL1        0.0356
      8 C           4.2343   -2.8270   20.3198 C.ar    1  UNL1        0.1721
      9 C           4.8301   -3.1598   21.6555 C.ar    1  UNL1        0.1721
     10 C           4.4017   -2.4027   22.8775 C.ar    1  UNL1        0.0368
     11 C           3.3775   -1.3127   22.7637 C.ar    1  UNL1       -0.0084
     12 C           2.9491   -0.5555   23.9856 C.3     1  UNL1        0.0812
     13 C           3.5448   -0.8883   25.3214 C.3     1  UNL1        0.0360
     14 C           3.1164   -0.1312   26.5433 C.3     1  UNL1        0.0538
     15 N           3.7122   -0.4641   27.8792 N.3     1  UNL1       -0.3221
     16 H           4.3849   -1.2232   27.7717 H       1  UNL1        0.1188
     17 H           2.9723   -0.7534   28.5189 H       1  UNL1        0.1188
     18 O           4.6628   -3.5842   19.0978 O.3     1  UNL1       -0.4684
     19 C           4.2757   -5.0240   18.9337 C.3     1  UNL1        0.2526
     20 O           5.8543   -4.2499   21.7694 O.3     1  UNL1       -0.4684
     21 C           7.2970   -3.9563   21.4828 C.3     1  UNL1        0.2526
     22 C           1.6638    1.7160   27.6515 C.3     1  UNL1        0.0027
     23 C           0.3715    1.3732   28.3315 C.3     1  UNL1        0.0001
     24 C          -1.3640   -0.5030   28.7981 C.3     1  UNL1        0.0000
     25 C           0.0619   -0.0528   28.6786 C.3     1  UNL1        0.0000
@<TRIPOS>BOND
     1    24    25    1
     2    25    23    1
     3    23    22    1
     4     1    22    1
     5     1     2    1
     6     2     3    1
     7     3     4    1
     8     4     5    1
     9     5     6    1
    10     6     7   ar
    11     7     8   ar
    12     8    18    1
    13    18    19    1
    14     8     9   ar
    15     9    20    1
    16    20    21    1
    17     9    10   ar
    18    10    11   ar
    19    11    12    1
    20    12    13    1
    21    13    14    1
    22    14    15    1
    23    14     1    1
    24    12     3    1
    25    11     6   ar
    26    15    16    1
    27    15    17    1
@<TRIPOS>MOLECULE
*****
 25 27 0 0 0
SMALL
GASTEIGER

@<TRIPOS>ATOM
      1 C           5.9287   -1.7690   32.7627 C.3     1  UNL1        0.0302
      2 C           6.9165   -0.6933   33.1049 C.3     1  UNL1        0.0736
      3 N           6.7301    0.1291   34.3454 N.3     1  UNL1       -0.2699
      4 C           7.7179    1.2048   34.6876 C.3     1  UNL1        0.0770
      5 C           7.5316    2.0272   35.9282 C.3     1  UNL1        0.0435
      6 C           6.3573    1.7738   36.8266 C.ar    1  UNL1       -0.0203
      7 C           6.1709    2.5962   38.0671 C.ar    1  UNL1        0.0356
      8 C           4.9967    2.3428   38.9655 C.ar    1  UNL1        0.1721
      9 C           4.0089    1.2672   38.6233 C.ar    1  UNL1        0.1721
     10 C           4.1953    0.4448   37.3827 C.ar    1  UNL1        0.0368
     11 C           5.3695    0.6981   36.4844 C.ar    1  UNL1       -0.0084
     12 C           5.5559   -0.1242   35.2438 C.3     1  UNL1        0.0812
     13 C           4.5681   -1.1999   34.9016 C.3     1  UNL1        0.0360
     14 C           4.7545   -2.0223   33.6610 C.3     1  UNL1        0.0538
     15 N           3.7666   -3.0980   33.3189 N.3     1  UNL1       -0.3221
     16 H           3.0391   -3.1312   34.0330 H       1  UNL1        0.1188
     17 H           4.2446   -3.9982   33.2783 H       1  UNL1        0.1188
     18 O           4.8103    3.1652   40.2060 O.3     1  UNL1       -0.4684
     19 C           6.0051    3.6247   40.9878 C.3     1  UNL1        0.2526
     20 O           2.8347    1.0138   39.5216 O.3     1  UNL1       -0.4684
     21 C           1.4813    0.7505   38.9308 C.3     1  UNL1        0.2526
     22 C           6.1151   -2.5913   31.5221 C.3     1  UNL1        0.0027
     23 C           7.3008   -3.5013   31.3967 C.3     1  UNL1        0.0001
     24 C           7.0006   -5.7626   30.1531 C.3     1  UNL1        0.0000
     25 C           7.1119   -4.9889   31.4334 C.3     1  UNL1        0.0000
@<TRIPOS>BOND
     1    24    25    1
     2    25    23    1
     3    23    22    1
     4     1    22    1
     5     1     2    1
     6     2     3    1
     7     3     4    1
     8     4     5    1
     9     5     6    1
    10     6     7   ar
    11     7     8   ar
    12     8    18    1
    13    18    19    1
    14     8     9   ar
    15     9    20    1
    16    20    21    1
    17     9    10   ar
    18    10    11   ar
    19    11    12    1
    20    12    13    1
    21    13    14    1
    22    14    15    1
    23    14     1    1
    24    12     3    1
    25    11     6   ar
    26    15    16    1
    27    15    17    1
@<TRIPOS>MOLECULE
*****
 25 27 0 0 0
SMALL
GASTEIGER

@<TRIPOS>ATOM
      1 C           2.0287    1.1239   26.8661 C.3     1  UNL1        0.0302
      2 C           3.0694    0.0446   26.8214 C.3     1  UNL1        0.0736
      3 N           3.4165   -0.6089   25.5166 N.3     1  UNL1       -0.2699
      4 C           4.4572   -1.6883   25.4719 C.3     1  UNL1        0.0770
      5 C           4.8043   -2.3419   24.1672 C.3     1  UNL1        0.0435
      6 C           4.1107   -1.9161   22.9071 C.ar    1  UNL1       -0.0203
      7 C           4.4577   -2.5697   21.6024 C.ar    1  UNL1        0.0356
      8 C           3.7642   -2.1439   20.3424 C.ar    1  UNL1        0.1721
      9 C           2.7235   -1.0646   20.3871 C.ar    1  UNL1        0.1721
     10 C           2.3764   -0.4110   21.6919 C.ar    1  UNL1        0.0368
     11 C           3.0700   -0.8368   22.9519 C.ar    1  UNL1       -0.0084
     12 C           2.7229   -0.1832   24.2566 C.3     1  UNL1        0.0812
     13 C           1.6822    0.8961   24.3014 C.3     1  UNL1        0.0360
     14 C           1.3351    1.5497   25.6062 C.3     1  UNL1        0.0538
     15 N           0.2944    2.6291   25.6509 N.3     1  UNL1       -0.3221
     16 H          -0.0697    2.7894   24.7117 H       1  UNL1        0.1188
     17 H           0.7120    3.4896   26.0051 H       1  UNL1        0.1188
     18 O           4.1112   -2.7975   19.0376 O.3     1  UNL1       -0.4684
     19 C           4.1836   -4.2928   18.9437 C.3     1  UNL1        0.2526
     20 O           2.0298   -0.6388   19.1271 O.3     1  UNL1       -0.4684
     21 C           1.0344    0.4827   19.1612 C.3     1  UNL1        0.2526
     22 C           1.6816    1.7775   28.1709 C.3     1  UNL1        0.0027
     23 C           0.6801    1.1387   29.0867 C.3     1  UNL1        0.0001
     24 C          -1.2956   -0.5251   28.8064 C.3     1  UNL1        0.0000
     25 C          -0.7031    0.8361   28.5914 C.3     1  UNL1        0.0000
@<TRIPOS>BOND
     1    24    25    1
     2    25    23    1
     3    23    22    1
     4     1    22    1
     5     1     2    1
     6     2     3    1
     7     3     4    1
     8     4     5    1
     9     5     6    1
    10     6     7   ar
    11     7     8   ar
    12     8    18    1
    13    18    19    1
    14     8     9   ar
    15     9    20    1
    16    20    21    1
    17     9    10   ar
    18    10    11   ar
    19    11    12    1
    20    12    13    1
    21    13    14    1
    22    14    15    1
    23    14     1    1
    24    12     3    1
    25    11     6   ar
    26    15    16    1
    27    15    17    1
