@<TRIPOS>MOLECULE
*****
 29 32 0 0 0
SMALL
GASTEIGER

@<TRIPOS>ATOM
      1 C          -6.6585  -16.4996   23.9456 C.3     1  UNL1        0.0844
      2 C          -7.7763  -15.9623   24.7893 C.3     1  UNL1        0.0243
      3 C          -9.2013  -16.2287   24.4042 C.3     1  UNL1        0.0450
      4 C          -9.5085  -17.0323   23.1755 C.ar    1  UNL1        0.0350
      5 C          -8.3907  -17.5696   22.3318 C.ar    1  UNL1        0.0099
      6 C          -8.9964  -18.3232   21.1849 C.ar    1  UNL1        0.0942
      7 N          -8.3820  -19.0653   20.0353 N.ar    1  UNL1       -0.2427
      8 C          -9.2597  -19.7358   19.0205 C.ar    1  UNL1        0.0989
      9 C         -10.7520  -19.6643   19.1554 C.ar    1  UNL1        0.0222
     10 C         -11.3664  -18.9222   20.3050 C.ar    1  UNL1        0.0203
     11 C         -10.4886  -18.2517   21.3198 C.ar    1  UNL1        0.0775
     12 N         -10.8051  -17.4539   22.5500 N.ar    1  UNL1       -0.3244
     13 C          -6.9657  -17.3032   22.7169 C.3     1  UNL1        0.0468
     14 C          -4.9227  -15.5477   25.6282 C.3     1  UNL1        0.1149
     15 N          -5.2333  -16.2332   24.3307 N.3     1  UNL1       -0.1551
     16 S          -4.1190  -16.6524   23.4182 S.O2    1  UNL1        0.0633
     17 O          -4.1151  -18.0136   24.0483 O.2     1  UNL1       -0.1528
     18 O          -4.1229  -15.2910   22.7882 O.2     1  UNL1       -0.1528
     19 C          -3.0047  -17.0714   22.5058 C.ar    1  UNL1        0.1223
     20 C          -2.1621  -16.0337   21.8253 C.ar    1  UNL1        0.0222
     21 C          -1.0478  -16.4529   20.9128 C.ar    1  UNL1        0.0310
     22 C          -0.7760  -17.9097   20.6808 C.ar    1  UNL1        0.1402
     23 F           0.3383  -18.3289   19.7683 F       1  UNL1       -0.2042
     24 C          -1.6187  -18.9474   21.3614 C.ar    1  UNL1        0.0310
     25 C          -2.7330  -18.5283   22.2738 C.ar    1  UNL1        0.0222
     26 C         -12.1773  -17.1338   23.0644 C.3     1  UNL1        0.1475
     27 C         -12.8540  -18.0652   24.0258 C.2     1  UNL1        0.0732
     28 O         -12.0358  -19.0021   24.8643 O.co2   1  UNL1       -0.5472
     29 O         -14.3490  -18.0599   24.1490 O.co2   1  UNL1       -0.5472
@<TRIPOS>UNITY_ATOM_ATTR
28 1
charge -1
@<TRIPOS>BOND
     1    14    15    1
     2     1    15    1
     3     1     2    1
     4     2     3    1
     5     3     4    1
     6     4     5   ar
     7     5     6   ar
     8     6     7   ar
     9     7     8   ar
    10     8     9   ar
    11     9    10   ar
    12    10    11   ar
    13    11    12   ar
    14    12    26    1
    15    26    27    1
    16    27    28   ar
    17    27    29   ar
    18     5    13    1
    19    15    16    1
    20    16    17    2
    21    16    18    2
    22    16    19    1
    23    19    20   ar
    24    20    21   ar
    25    21    22   ar
    26    22    23    1
    27    22    24   ar
    28    24    25   ar
    29    13     1    1
    30    25    19   ar
    31    12     4   ar
    32    11     6   ar
@<TRIPOS>MOLECULE
*****
 29 32 0 0 0
SMALL
GASTEIGER

@<TRIPOS>ATOM
      1 C          -6.7700  -19.2047   20.9761 C.3     1  UNL1        0.0844
      2 C          -8.1179  -19.1869   20.3180 C.3     1  UNL1        0.0243
      3 C          -9.2372  -18.3922   20.9225 C.3     1  UNL1        0.0450
      4 C          -9.0087  -17.6152   22.1851 C.ar    1  UNL1        0.0350
      5 C          -7.6609  -17.6329   22.8432 C.ar    1  UNL1        0.0099
      6 C          -7.7335  -16.7754   24.0718 C.ar    1  UNL1        0.0942
      7 N          -6.7113  -16.4226   25.1113 N.ar    1  UNL1       -0.2427
      8 C          -7.0820  -15.5220   26.2521 C.ar    1  UNL1        0.0989
      9 C          -8.4747  -14.9742   26.3534 C.ar    1  UNL1        0.0222
     10 C          -9.4968  -15.3271   25.3138 C.ar    1  UNL1        0.0203
     11 C          -9.1262  -16.2277   24.1730 C.ar    1  UNL1        0.0775
     12 N          -9.9143  -16.7467   23.0070 N.ar    1  UNL1       -0.3244
     13 C          -6.5415  -18.4277   22.2386 C.3     1  UNL1        0.0468
     14 C          -5.9044  -21.3897   19.8687 C.3     1  UNL1        0.1149
     15 N          -5.6506  -19.9994   20.3715 N.3     1  UNL1       -0.1551
     16 S          -4.2777  -19.4039   20.2698 S.O2    1  UNL1        0.0633
     17 O          -3.7730  -20.3957   21.2756 O.2     1  UNL1       -0.1528
     18 O          -4.7825  -18.4121   19.2639 O.2     1  UNL1       -0.1528
     19 C          -2.9048  -18.8083   20.1681 C.ar    1  UNL1        0.1223
     20 C          -2.3742  -18.3703   18.8352 C.ar    1  UNL1        0.0222
     21 C          -1.0012  -17.7748   18.7336 C.ar    1  UNL1        0.0310
     22 C          -0.1589  -17.6171   19.9647 C.ar    1  UNL1        0.1402
     23 F           1.2140  -17.0216   19.8630 F       1  UNL1       -0.2042
     24 C          -0.6896  -18.0552   21.2976 C.ar    1  UNL1        0.0310
     25 C          -2.0626  -18.6508   21.3993 C.ar    1  UNL1        0.0222
     26 C         -11.3551  -16.4494   22.7143 C.3     1  UNL1        0.1475
     27 C         -12.3364  -17.5731   22.5594 C.2     1  UNL1        0.0732
     28 O         -13.0100  -17.8039   21.2391 O.co2   1  UNL1       -0.5472
     29 O         -12.6442  -18.4662   23.7245 O.co2   1  UNL1       -0.5472
@<TRIPOS>UNITY_ATOM_ATTR
28 1
charge -1
@<TRIPOS>BOND
     1    14    15    1
     2     1    15    1
     3     1     2    1
     4     2     3    1
     5     3     4    1
     6     4     5   ar
     7     5     6   ar
     8     6     7   ar
     9     7     8   ar
    10     8     9   ar
    11     9    10   ar
    12    10    11   ar
    13    11    12   ar
    14    12    26    1
    15    26    27    1
    16    27    28   ar
    17    27    29   ar
    18     5    13    1
    19    15    16    1
    20    16    17    2
    21    16    18    2
    22    16    19    1
    23    19    20   ar
    24    20    21   ar
    25    21    22   ar
    26    22    23    1
    27    22    24   ar
    28    24    25   ar
    29    13     1    1
    30    25    19   ar
    31    12     4   ar
    32    11     6   ar
@<TRIPOS>MOLECULE
*****
 29 32 0 0 0
SMALL
GASTEIGER

@<TRIPOS>ATOM
      1 C          -7.2112  -19.6893   21.3391 C.3     1  UNL1        0.0844
      2 C          -7.4802  -19.1831   19.9529 C.3     1  UNL1        0.0243
      3 C          -8.8106  -18.5745   19.6218 C.3     1  UNL1        0.0450
      4 C          -9.8720  -18.4721   20.6768 C.ar    1  UNL1        0.0350
      5 C          -9.6030  -18.9783   22.0629 C.ar    1  UNL1        0.0099
      6 C         -10.8331  -18.7443   22.8888 C.ar    1  UNL1        0.0942
      7 N         -11.1490  -19.0397   24.3250 N.ar    1  UNL1       -0.2427
      8 C         -12.4941  -18.6844   24.8856 C.ar    1  UNL1        0.0989
      9 C         -13.5234  -18.0335   24.0098 C.ar    1  UNL1        0.0222
     10 C         -13.2076  -17.7381   22.5735 C.ar    1  UNL1        0.0203
     11 C         -11.8624  -18.0934   22.0130 C.ar    1  UNL1        0.0775
     12 N         -11.2684  -17.9252   20.6460 N.ar    1  UNL1       -0.3244
     13 C          -8.2726  -19.5869   22.3941 C.3     1  UNL1        0.0468
     14 C          -5.8158  -21.6144   22.3864 C.3     1  UNL1        0.1149
     15 N          -5.8808  -20.2980   21.6702 N.3     1  UNL1       -0.1551
     16 S          -4.6155  -19.5903   21.2852 S.O2    1  UNL1        0.0633
     17 O          -4.2739  -20.7107   20.3483 O.2     1  UNL1       -0.1528
     18 O          -4.9572  -18.4698   22.2222 O.2     1  UNL1       -0.1528
     19 C          -3.3504  -18.8825   20.9003 C.ar    1  UNL1        0.1223
     20 C          -2.9164  -18.8495   19.4648 C.ar    1  UNL1        0.0222
     21 C          -1.6512  -18.1417   19.0799 C.ar    1  UNL1        0.0310
     22 C          -0.8198  -17.4669   20.1304 C.ar    1  UNL1        0.1402
     23 F           0.4454  -16.7591   19.7455 F       1  UNL1       -0.2042
     24 C          -1.2538  -17.4999   21.5659 C.ar    1  UNL1        0.0310
     25 C          -2.5191  -18.2077   21.9508 C.ar    1  UNL1        0.0222
     26 C         -11.9510  -17.3169   19.4568 C.3     1  UNL1        0.1475
     27 C         -11.9459  -15.8288   19.2690 C.2     1  UNL1        0.0732
     28 O         -10.6484  -15.1020   19.0728 O.co2   1  UNL1       -0.5472
     29 O         -13.2382  -15.0673   19.2775 O.co2   1  UNL1       -0.5472
@<TRIPOS>UNITY_ATOM_ATTR
28 1
charge -1
@<TRIPOS>BOND
     1    14    15    1
     2     1    15    1
     3     1     2    1
     4     2     3    1
     5     3     4    1
     6     4     5   ar
     7     5     6   ar
     8     6     7   ar
     9     7     8   ar
    10     8     9   ar
    11     9    10   ar
    12    10    11   ar
    13    11    12   ar
    14    12    26    1
    15    26    27    1
    16    27    28   ar
    17    27    29   ar
    18     5    13    1
    19    15    16    1
    20    16    17    2
    21    16    18    2
    22    16    19    1
    23    19    20   ar
    24    20    21   ar
    25    21    22   ar
    26    22    23    1
    27    22    24   ar
    28    24    25   ar
    29    13     1    1
    30    25    19   ar
    31    12     4   ar
    32    11     6   ar
@<TRIPOS>MOLECULE
*****
 29 32 0 0 0
SMALL
GASTEIGER

@<TRIPOS>ATOM
      1 C           0.7723    2.2987   20.1131 C.3     1  UNL1        0.0844
      2 C           0.9496    1.7620   18.7236 C.3     1  UNL1        0.0243
      3 C           1.7658    0.5243   18.4963 C.3     1  UNL1        0.0450
      4 C           2.4047   -0.1768   19.6583 C.ar    1  UNL1        0.0350
      5 C           2.2274    0.3599   21.0477 C.ar    1  UNL1        0.0099
      6 C           2.9716   -0.5389   21.9903 C.ar    1  UNL1        0.0942
      7 N           3.1513   -0.5038   23.4791 N.ar    1  UNL1       -0.2427
      8 C           3.9682   -1.5610   24.1609 C.ar    1  UNL1        0.0989
      9 C           4.6055   -2.6532   23.3541 C.ar    1  UNL1        0.0222
     10 C           4.4258   -2.6882   21.8653 C.ar    1  UNL1        0.0203
     11 C           3.6088   -1.6310   21.1834 C.ar    1  UNL1        0.0775
     12 N           3.2585   -1.4073   19.7422 N.ar    1  UNL1       -0.3244
     13 C           1.4112    1.5976   21.2751 C.3     1  UNL1        0.0468
     14 C           0.5956    4.7588   20.9297 C.3     1  UNL1        0.1149
     15 N          -0.0439    3.5366   20.3405 N.3     1  UNL1       -0.1551
     16 S          -1.4995    3.5521   19.9787 S.O2    1  UNL1        0.0633
     17 O          -1.7803    2.5572   21.0655 O.2     1  UNL1       -0.1528
     18 O          -1.2187    4.5470   18.8918 O.2     1  UNL1       -0.1528
     19 C          -2.9551    3.5676   19.6168 C.ar    1  UNL1        0.1223
     20 C          -3.9923    3.3082   20.6689 C.ar    1  UNL1        0.0222
     21 C          -5.4479    3.3238   20.3069 C.ar    1  UNL1        0.0310
     22 C          -5.8663    3.5988   18.8929 C.ar    1  UNL1        0.1402
     23 F          -7.3219    3.6144   18.5310 F       1  UNL1       -0.2042
     24 C          -4.8290    3.8582   17.8409 C.ar    1  UNL1        0.0310
     25 C          -3.3734    3.8427   18.2028 C.ar    1  UNL1        0.0222
     26 C           3.6868   -2.2637   18.5875 C.3     1  UNL1        0.1475
     27 C           4.5681   -1.6927   17.5166 C.2     1  UNL1        0.0732
     28 O           3.9578   -1.0287   16.3179 O.co2   1  UNL1       -0.5472
     29 O           6.0598   -1.7855   17.6441 O.co2   1  UNL1       -0.5472
@<TRIPOS>UNITY_ATOM_ATTR
28 1
charge -1
@<TRIPOS>BOND
     1    14    15    1
     2     1    15    1
     3     1     2    1
     4     2     3    1
     5     3     4    1
     6     4     5   ar
     7     5     6   ar
     8     6     7   ar
     9     7     8   ar
    10     8     9   ar
    11     9    10   ar
    12    10    11   ar
    13    11    12   ar
    14    12    26    1
    15    26    27    1
    16    27    28   ar
    17    27    29   ar
    18     5    13    1
    19    15    16    1
    20    16    17    2
    21    16    18    2
    22    16    19    1
    23    19    20   ar
    24    20    21   ar
    25    21    22   ar
    26    22    23    1
    27    22    24   ar
    28    24    25   ar
    29    13     1    1
    30    25    19   ar
    31    12     4   ar
    32    11     6   ar
@<TRIPOS>MOLECULE
*****
 29 32 0 0 0
SMALL
GASTEIGER

@<TRIPOS>ATOM
      1 C           0.6159    2.2485   20.0459 C.3     1  UNL1        0.0844
      2 C           0.8075    1.6694   18.6755 C.3     1  UNL1        0.0243
      3 C           1.6487    0.4412   18.4913 C.3     1  UNL1        0.0450
      4 C           2.2983   -0.2078   19.6774 C.ar    1  UNL1        0.0350
      5 C           2.1067    0.3713   21.0477 C.ar    1  UNL1        0.0099
      6 C           2.8660   -0.4805   22.0213 C.ar    1  UNL1        0.0942
      7 N           3.0410   -0.3922   23.5084 N.ar    1  UNL1       -0.2427
      8 C           3.8770   -1.4095   24.2269 C.ar    1  UNL1        0.0989
      9 C           4.5379   -2.5151   23.4583 C.ar    1  UNL1        0.0222
     10 C           4.3629   -2.6034   21.9712 C.ar    1  UNL1        0.0203
     11 C           3.5270   -1.5861   21.2527 C.ar    1  UNL1        0.0775
     12 N           3.1761   -1.4176   19.8041 N.ar    1  UNL1       -0.3244
     13 C           1.2655    1.5995   21.2320 C.3     1  UNL1        0.0468
     14 C           0.0141    4.6850   19.3742 C.3     1  UNL1        0.1149
     15 N          -0.2253    3.4767   20.2302 N.3     1  UNL1       -0.1551
     16 S          -1.3059    3.4966   21.2704 S.O2    1  UNL1        0.0633
     17 O          -2.0874    2.4911   20.4777 O.2     1  UNL1       -0.1528
     18 O          -0.5243    4.5020   22.0630 O.2     1  UNL1       -0.1528
     19 C          -2.3863    3.5164   22.3106 C.ar    1  UNL1        0.1223
     20 C          -2.0292    3.6597   23.7603 C.ar    1  UNL1        0.0222
     21 C          -3.1097    3.6796   24.8005 C.ar    1  UNL1        0.0310
     22 C          -4.5475    3.5562   24.3910 C.ar    1  UNL1        0.1402
     23 F          -5.6280    3.5761   25.4312 F       1  UNL1       -0.2042
     24 C          -4.9046    3.4129   22.9412 C.ar    1  UNL1        0.0310
     25 C          -3.8240    3.3930   21.9010 C.ar    1  UNL1        0.0222
     26 C           3.6243   -2.3033   18.6796 C.3     1  UNL1        0.1475
     27 C           4.6400   -1.8075   17.6934 C.2     1  UNL1        0.0732
     28 O           4.2338   -0.8419   16.6198 O.co2   1  UNL1       -0.5472
     29 O           6.0618   -2.2774   17.7807 O.co2   1  UNL1       -0.5472
@<TRIPOS>UNITY_ATOM_ATTR
28 1
charge -1
@<TRIPOS>BOND
     1    14    15    1
     2     1    15    1
     3     1     2    1
     4     2     3    1
     5     3     4    1
     6     4     5   ar
     7     5     6   ar
     8     6     7   ar
     9     7     8   ar
    10     8     9   ar
    11     9    10   ar
    12    10    11   ar
    13    11    12   ar
    14    12    26    1
    15    26    27    1
    16    27    28   ar
    17    27    29   ar
    18     5    13    1
    19    15    16    1
    20    16    17    2
    21    16    18    2
    22    16    19    1
    23    19    20   ar
    24    20    21   ar
    25    21    22   ar
    26    22    23    1
    27    22    24   ar
    28    24    25   ar
    29    13     1    1
    30    25    19   ar
    31    12     4   ar
    32    11     6   ar
@<TRIPOS>MOLECULE
*****
 29 32 0 0 0
SMALL
GASTEIGER

@<TRIPOS>ATOM
      1 C           0.5199    1.9343   19.8316 C.3     1  UNL1        0.0844
      2 C           0.1598    0.5632   20.3218 C.3     1  UNL1        0.0243
      3 C           1.1124   -0.5784   20.1232 C.3     1  UNL1        0.0450
      4 C           2.4250   -0.3488   19.4345 C.ar    1  UNL1        0.0350
      5 C           2.7850    1.0223   18.9443 C.ar    1  UNL1        0.0099
      6 C           4.1401    0.9453   18.3056 C.ar    1  UNL1        0.0942
      7 N           5.0009    1.9838   17.6495 N.ar    1  UNL1       -0.2427
      8 C           6.3391    1.6035   17.0888 C.ar    1  UNL1        0.0989
      9 C           6.8166    0.1847   17.1842 C.ar    1  UNL1        0.0222
     10 C           5.9558   -0.8538   17.8404 C.ar    1  UNL1        0.0203
     11 C           4.6175   -0.4734   18.4011 C.ar    1  UNL1        0.0775
     12 N           3.5575   -1.2732   19.0988 N.ar    1  UNL1       -0.3244
     13 C           1.8325    2.1639   19.1429 C.3     1  UNL1        0.0468
     14 C          -0.6427    4.0769   18.9329 C.3     1  UNL1        0.1149
     15 N          -0.4327    3.0759   20.0301 N.3     1  UNL1       -0.1551
     16 S          -1.1752    3.2165   21.3259 S.O2    1  UNL1        0.0633
     17 O           0.0901    3.6516   22.0038 O.2     1  UNL1       -0.1528
     18 O          -2.4406    2.7814   20.6479 O.2     1  UNL1       -0.1528
     19 C          -1.9178    3.3571   22.6215 C.ar    1  UNL1        0.1223
     20 C          -1.1752    3.2873   23.9229 C.ar    1  UNL1        0.0222
     21 C          -1.9178    3.4279   25.2186 C.ar    1  UNL1        0.0310
     22 C          -3.4030    3.6382   25.2129 C.ar    1  UNL1        0.1402
     23 F          -4.1456    3.7788   26.5086 F       1  UNL1       -0.2042
     24 C          -4.1456    3.7080   23.9114 C.ar    1  UNL1        0.0310
     25 C          -3.4030    3.5674   22.6158 C.ar    1  UNL1        0.0222
     26 C           3.6193   -2.7400   19.4066 C.3     1  UNL1        0.1475
     27 C           4.3826   -3.2236   20.6038 C.2     1  UNL1        0.0732
     28 O           4.3050   -4.6654   21.0106 O.co2   1  UNL1       -0.5472
     29 O           5.2236   -2.2656   21.3943 O.co2   1  UNL1       -0.5472
@<TRIPOS>UNITY_ATOM_ATTR
28 1
charge -1
@<TRIPOS>BOND
     1    14    15    1
     2     1    15    1
     3     1     2    1
     4     2     3    1
     5     3     4    1
     6     4     5   ar
     7     5     6   ar
     8     6     7   ar
     9     7     8   ar
    10     8     9   ar
    11     9    10   ar
    12    10    11   ar
    13    11    12   ar
    14    12    26    1
    15    26    27    1
    16    27    28   ar
    17    27    29   ar
    18     5    13    1
    19    15    16    1
    20    16    17    2
    21    16    18    2
    22    16    19    1
    23    19    20   ar
    24    20    21   ar
    25    21    22   ar
    26    22    23    1
    27    22    24   ar
    28    24    25   ar
    29    13     1    1
    30    25    19   ar
    31    12     4   ar
    32    11     6   ar
@<TRIPOS>MOLECULE
*****
 29 32 0 0 0
SMALL
GASTEIGER

@<TRIPOS>ATOM
      1 C          -8.7626  -19.0770   20.5133 C.3     1  UNL1        0.0844
      2 C          -7.9799  -19.9285   19.5583 C.3     1  UNL1        0.0243
      3 C          -6.4915  -20.0446   19.7038 C.3     1  UNL1        0.0450
      4 C          -5.7859  -19.3090   20.8043 C.ar    1  UNL1        0.0350
      5 C          -6.5686  -18.4575   21.7593 C.ar    1  UNL1        0.0099
      6 C          -5.6058  -17.8541   22.7386 C.ar    1  UNL1        0.0942
      7 N          -5.8057  -16.9307   23.9036 N.ar    1  UNL1       -0.2427
      8 C          -4.6278  -16.4860   24.7188 C.ar    1  UNL1        0.0989
      9 C          -3.2499  -16.9647   24.3691 C.ar    1  UNL1        0.0222
     10 C          -3.0500  -17.8882   23.2040 C.ar    1  UNL1        0.0203
     11 C          -4.2280  -18.3328   22.3888 C.ar    1  UNL1        0.0775
     12 N          -4.3392  -19.2320   21.1933 N.ar    1  UNL1       -0.3244
     13 C          -8.0570  -18.3414   21.6138 C.3     1  UNL1        0.0468
     14 C         -10.8756  -18.9872   19.0043 C.3     1  UNL1        0.1149
     15 N         -10.2511  -18.9609   20.3678 N.3     1  UNL1       -0.1551
     16 S         -11.1149  -18.8186   21.5859 S.O2    1  UNL1        0.0633
     17 O         -10.8888  -20.2644   21.9152 O.2     1  UNL1       -0.1528
     18 O         -11.3410  -17.3726   21.2565 O.2     1  UNL1       -0.1528
     19 C         -11.9787  -18.6762   22.8039 C.ar    1  UNL1        0.1223
     20 C         -13.3638  -18.1142   22.6795 C.ar    1  UNL1        0.0222
     21 C         -14.2276  -17.9719   23.8976 C.ar    1  UNL1        0.0310
     22 C         -13.7062  -18.3914   25.2400 C.ar    1  UNL1        0.1402
     23 F         -14.5699  -18.2490   26.4581 F       1  UNL1       -0.2042
     24 C         -12.3209  -18.9533   25.3644 C.ar    1  UNL1        0.0310
     25 C         -11.4572  -19.0957   24.1463 C.ar    1  UNL1        0.0222
     26 C          -3.2033  -19.9314   20.5074 C.3     1  UNL1        0.1475
     27 C          -2.0525  -19.1377   19.9639 C.2     1  UNL1        0.0732
     28 O          -2.1076  -18.5980   18.5653 O.co2   1  UNL1       -0.5472
     29 O          -0.8464  -18.8836   20.8187 O.co2   1  UNL1       -0.5472
@<TRIPOS>UNITY_ATOM_ATTR
28 1
charge -1
@<TRIPOS>BOND
     1    14    15    1
     2     1    15    1
     3     1     2    1
     4     2     3    1
     5     3     4    1
     6     4     5   ar
     7     5     6   ar
     8     6     7   ar
     9     7     8   ar
    10     8     9   ar
    11     9    10   ar
    12    10    11   ar
    13    11    12   ar
    14    12    26    1
    15    26    27    1
    16    27    28   ar
    17    27    29   ar
    18     5    13    1
    19    15    16    1
    20    16    17    2
    21    16    18    2
    22    16    19    1
    23    19    20   ar
    24    20    21   ar
    25    21    22   ar
    26    22    23    1
    27    22    24   ar
    28    24    25   ar
    29    13     1    1
    30    25    19   ar
    31    12     4   ar
    32    11     6   ar
@<TRIPOS>MOLECULE
*****
 29 32 0 0 0
SMALL
GASTEIGER

@<TRIPOS>ATOM
      1 C           0.0073    2.5668   21.6953 C.3     1  UNL1        0.0844
      2 C           0.9966    2.1741   22.7522 C.3     1  UNL1        0.0243
      3 C           0.6414    2.3173   24.2024 C.3     1  UNL1        0.0450
      4 C          -0.7032    2.8533   24.5958 C.ar    1  UNL1        0.0350
      5 C          -1.6926    3.2461   23.5390 C.ar    1  UNL1        0.0099
      6 C          -2.9317    3.7404   24.2247 C.ar    1  UNL1        0.0942
      7 N          -4.2347    4.2586   23.6922 N.ar    1  UNL1       -0.2427
      8 C          -5.3141    4.6897   24.6403 C.ar    1  UNL1        0.0989
      9 C          -5.0906    4.6025   26.1210 C.ar    1  UNL1        0.0222
     10 C          -3.7876    4.0842   26.6535 C.ar    1  UNL1        0.0203
     11 C          -2.7082    3.6532   25.7054 C.ar    1  UNL1        0.0775
     12 N          -1.3309    3.1049   25.9347 N.ar    1  UNL1       -0.3244
     13 C          -1.3373    3.1028   22.0888 C.3     1  UNL1        0.0468
     14 C          -0.1870    3.3913   19.2392 C.3     1  UNL1        0.1149
     15 N           0.3625    2.4236   20.2450 N.3     1  UNL1       -0.1551
     16 S           1.2672    1.3127   19.8006 S.O2    1  UNL1        0.0633
     17 O           0.1792    0.3171   20.0747 O.2     1  UNL1       -0.1528
     18 O           2.3551    2.3084   19.5264 O.2     1  UNL1       -0.1528
     19 C           2.1718    0.2019   19.3562 C.ar    1  UNL1        0.1223
     20 C           2.9324    0.3235   18.0691 C.ar    1  UNL1        0.0222
     21 C           3.8371   -0.7874   17.6247 C.ar    1  UNL1        0.0310
     22 C           3.9812   -2.0199   18.4674 C.ar    1  UNL1        0.1402
     23 F           4.8859   -3.1308   18.0230 F       1  UNL1       -0.2042
     24 C           3.2206   -2.1415   19.7545 C.ar    1  UNL1        0.0310
     25 C           2.3159   -1.0307   20.1989 C.ar    1  UNL1        0.0222
     26 C          -0.6933    2.8526   27.2688 C.3     1  UNL1        0.1475
     27 C          -0.4983    1.4465   27.7530 C.2     1  UNL1        0.0732
     28 O           0.7829    0.7233   27.4604 O.co2   1  UNL1       -0.5472
     29 O          -1.5845    0.7633   28.5299 O.co2   1  UNL1       -0.5472
@<TRIPOS>UNITY_ATOM_ATTR
28 1
charge -1
@<TRIPOS>BOND
     1    14    15    1
     2     1    15    1
     3     1     2    1
     4     2     3    1
     5     3     4    1
     6     4     5   ar
     7     5     6   ar
     8     6     7   ar
     9     7     8   ar
    10     8     9   ar
    11     9    10   ar
    12    10    11   ar
    13    11    12   ar
    14    12    26    1
    15    26    27    1
    16    27    28   ar
    17    27    29   ar
    18     5    13    1
    19    15    16    1
    20    16    17    2
    21    16    18    2
    22    16    19    1
    23    19    20   ar
    24    20    21   ar
    25    21    22   ar
    26    22    23    1
    27    22    24   ar
    28    24    25   ar
    29    13     1    1
    30    25    19   ar
    31    12     4   ar
    32    11     6   ar
@<TRIPOS>MOLECULE
*****
 29 32 0 0 0
SMALL
GASTEIGER

@<TRIPOS>ATOM
      1 C           1.4169    1.8231   20.0569 C.3     1  UNL1        0.0844
      2 C           0.6055    0.5673   20.1775 C.3     1  UNL1        0.0243
      3 C           1.2522   -0.7677   19.9548 C.3     1  UNL1        0.0450
      4 C           2.7102   -0.8468   19.6114 C.ar    1  UNL1        0.0350
      5 C           3.5216    0.4090   19.4908 C.ar    1  UNL1        0.0099
      6 C           4.9280    0.0206   19.1427 C.ar    1  UNL1        0.0942
      7 N           6.1634    0.8359   18.8997 N.ar    1  UNL1       -0.2427
      8 C           7.4567    0.1552   18.5620 C.ar    1  UNL1        0.0989
      9 C           7.5146   -1.3407   18.4675 C.ar    1  UNL1        0.0222
     10 C           6.2792   -2.1559   18.7106 C.ar    1  UNL1        0.0203
     11 C           4.9859   -1.4752   19.0482 C.ar    1  UNL1        0.0775
     12 N           3.6152   -2.0114   19.3379 N.ar    1  UNL1       -0.3244
     13 C           2.8749    1.7440   19.7136 C.3     1  UNL1        0.0468
     14 C           1.5226    4.4175   19.9665 C.3     1  UNL1        0.1149
     15 N           0.7702    3.1582   20.2797 N.3     1  UNL1       -0.1551
     16 S          -0.6288    3.2338   20.8156 S.O2    1  UNL1        0.0633
     17 O          -0.1004    3.1025   22.2133 O.2     1  UNL1       -0.1528
     18 O          -1.1571    3.3651   19.4178 O.2     1  UNL1       -0.1528
     19 C          -2.0277    3.3095   21.3515 C.ar    1  UNL1        0.1223
     20 C          -3.1953    3.1174   20.4297 C.ar    1  UNL1        0.0222
     21 C          -4.5943    3.1931   20.9656 C.ar    1  UNL1        0.0310
     22 C          -4.8257    3.4608   22.4233 C.ar    1  UNL1        0.1402
     23 F          -6.2246    3.5365   22.9592 F       1  UNL1       -0.2042
     24 C          -3.6579    3.6528   23.3451 C.ar    1  UNL1        0.0310
     25 C          -2.2590    3.5772   22.8092 C.ar    1  UNL1        0.0222
     26 C           3.2191   -3.4580   19.3516 C.3     1  UNL1        0.1475
     27 C           4.1192   -4.4762   19.9864 C.2     1  UNL1        0.0732
     28 O           4.4188   -4.4009   21.4543 O.co2   1  UNL1       -0.5472
     29 O           4.7198   -5.5696   19.1536 O.co2   1  UNL1       -0.5472
@<TRIPOS>UNITY_ATOM_ATTR
28 1
charge -1
@<TRIPOS>BOND
     1    14    15    1
     2     1    15    1
     3     1     2    1
     4     2     3    1
     5     3     4    1
     6     4     5   ar
     7     5     6   ar
     8     6     7   ar
     9     7     8   ar
    10     8     9   ar
    11     9    10   ar
    12    10    11   ar
    13    11    12   ar
    14    12    26    1
    15    26    27    1
    16    27    28   ar
    17    27    29   ar
    18     5    13    1
    19    15    16    1
    20    16    17    2
    21    16    18    2
    22    16    19    1
    23    19    20   ar
    24    20    21   ar
    25    21    22   ar
    26    22    23    1
    27    22    24   ar
    28    24    25   ar
    29    13     1    1
    30    25    19   ar
    31    12     4   ar
    32    11     6   ar
