@<TRIPOS>MOLECULE
*****
 17 18 0 0 0
SMALL
GASTEIGER

@<TRIPOS>ATOM
      1 C          -9.0197  -16.2485   23.7179 C.ar    1  UNL1        0.0304
      2 C          -8.9001  -15.5762   25.0535 C.ar    1  UNL1        0.0067
      3 C          -7.4550  -15.2418   25.2763 C.ar    1  UNL1        0.0040
      4 C          -6.6814  -15.7074   24.0784 C.ar    1  UNL1        0.0230
      5 S          -7.6485  -16.3296   23.1153 S.2     1  UNL1       -0.0899
      6 C         -10.9462  -17.9894   23.6274 C.ar    1  UNL1       -0.0187
      7 C         -12.2143  -18.4923   23.0038 C.ar    1  UNL1        0.0164
      8 C         -12.8243  -17.7571   21.8473 C.ar    1  UNL1        0.0986
      9 N         -12.1661  -16.5191   21.3144 N.ar    1  UNL1       -0.2423
     10 C         -10.8980  -16.0163   21.9379 C.ar    1  UNL1        0.0990
     11 C         -10.2880  -16.7514   23.0944 C.ar    1  UNL1        0.0212
     12 C          -9.9723  -20.1730   24.6440 C.3     1  UNL1        0.0050
     13 C         -10.3362  -18.7246   24.7838 C.3     1  UNL1        0.0265
     14 C          -5.2007  -15.5742   23.8788 C.3     1  UNL1        0.0987
     15 N          -4.6635  -14.5819   22.8906 N.3     1  UNL1       -0.3170
     16 H          -4.9387  -14.8576   21.9479 H       1  UNL1        0.1192
     17 H          -3.6458  -14.5560   22.9537 H       1  UNL1        0.1192
@<TRIPOS>BOND
     1    12    13    1
     2    13     6    1
     3     6     7   ar
     4     7     8   ar
     5     8     9   ar
     6     9    10   ar
     7    10    11   ar
     8    11     1    1
     9     1     2   ar
    10     2     3   ar
    11     3     4   ar
    12     4    14    1
    13    14    15    1
    14     4     5   ar
    15    11     6   ar
    16     5     1   ar
    17    15    16    1
    18    15    17    1
@<TRIPOS>MOLECULE
*****
 17 18 0 0 0
SMALL
GASTEIGER

@<TRIPOS>ATOM
      1 C          -9.3014  -17.3334   23.5536 C.ar    1  UNL1        0.0304
      2 C         -10.0736  -18.1682   24.5318 C.ar    1  UNL1        0.0067
      3 C         -11.4573  -18.3609   23.9857 C.ar    1  UNL1        0.0040
      4 C         -11.5403  -17.6451   22.6701 C.ar    1  UNL1        0.0230
      5 S         -10.2079  -17.0101   22.4031 S.2     1  UNL1       -0.0899
      6 C          -7.4978  -15.9009   24.7558 C.ar    1  UNL1       -0.0187
      7 C          -6.0699  -15.4658   24.9024 C.ar    1  UNL1        0.0164
      8 C          -5.0174  -16.0281   23.9935 C.ar    1  UNL1        0.0986
      9 N          -5.3929  -17.0255   22.9380 N.ar    1  UNL1       -0.2423
     10 C          -6.8209  -17.4606   22.7914 C.ar    1  UNL1        0.0990
     11 C          -7.8733  -16.8983   23.7003 C.ar    1  UNL1        0.0212
     12 C          -8.3699  -15.4048   27.1523 C.3     1  UNL1        0.0050
     13 C          -8.5503  -15.3386   25.6647 C.3     1  UNL1        0.0265
     14 C         -12.7444  -17.5764   21.7782 C.3     1  UNL1        0.0987
     15 N         -12.7136  -16.7292   20.5407 N.3     1  UNL1       -0.3170
     16 H         -12.6394  -15.7464   20.8033 H       1  UNL1        0.1192
     17 H         -13.5709  -16.8749   20.0076 H       1  UNL1        0.1192
@<TRIPOS>BOND
     1    12    13    1
     2    13     6    1
     3     6     7   ar
     4     7     8   ar
     5     8     9   ar
     6     9    10   ar
     7    10    11   ar
     8    11     1    1
     9     1     2   ar
    10     2     3   ar
    11     3     4   ar
    12     4    14    1
    13    14    15    1
    14     4     5   ar
    15    11     6   ar
    16     5     1   ar
    17    15    16    1
    18    15    17    1
@<TRIPOS>MOLECULE
*****
 17 18 0 0 0
SMALL
GASTEIGER

@<TRIPOS>ATOM
      1 C          -9.3550  -18.9634   21.1576 C.ar    1  UNL1        0.0304
      2 C          -9.3466  -19.5665   19.7842 C.ar    1  UNL1        0.0067
      3 C          -7.9180  -19.7150   19.3519 C.ar    1  UNL1        0.0040
      4 C          -7.0434  -19.2037   20.4581 C.ar    1  UNL1        0.0230
      5 S          -7.9315  -18.7392   21.5741 S.2     1  UNL1       -0.0899
      6 C         -11.6870  -17.8376   21.3689 C.ar    1  UNL1       -0.0187
      7 C         -12.9049  -17.5154   22.1830 C.ar    1  UNL1        0.0164
      8 C         -13.0089  -17.9967   23.5999 C.ar    1  UNL1        0.0986
      9 N         -11.8949  -18.8002   24.2027 N.ar    1  UNL1       -0.2423
     10 C         -10.6770  -19.1224   23.3886 C.ar    1  UNL1        0.0990
     11 C         -10.5730  -18.6412   21.9717 C.ar    1  UNL1        0.0212
     12 C         -11.4944  -15.8870   19.6636 C.3     1  UNL1        0.0050
     13 C         -11.5830  -17.3563   19.9520 C.3     1  UNL1        0.0265
     14 C          -5.5439  -19.1638   20.4497 C.3     1  UNL1        0.0987
     15 N          -4.8192  -18.4334   19.3582 N.3     1  UNL1       -0.3170
     16 H          -4.9824  -18.9037   18.4679 H       1  UNL1        0.1192
     17 H          -3.8194  -18.4254   19.5602 H       1  UNL1        0.1192
@<TRIPOS>BOND
     1    12    13    1
     2    13     6    1
     3     6     7   ar
     4     7     8   ar
     5     8     9   ar
     6     9    10   ar
     7    10    11   ar
     8    11     1    1
     9     1     2   ar
    10     2     3   ar
    11     3     4   ar
    12     4    14    1
    13    14    15    1
    14     4     5   ar
    15    11     6   ar
    16     5     1   ar
    17    15    16    1
    18    15    17    1
@<TRIPOS>MOLECULE
*****
 17 18 0 0 0
SMALL
GASTEIGER

@<TRIPOS>ATOM
      1 C          -8.6762  -18.4320   21.5808 C.ar    1  UNL1        0.0304
      2 C          -8.3843  -19.3058   20.3970 C.ar    1  UNL1        0.0067
      3 C          -6.9161  -19.6131   20.3986 C.ar    1  UNL1        0.0040
      4 C          -6.3006  -18.9293   21.5834 C.ar    1  UNL1        0.0230
      5 S          -7.3885  -18.1994   22.3140 S.2     1  UNL1       -0.0899
      6 C         -10.9761  -18.7330   22.7513 C.ar    1  UNL1       -0.0187
      7 C         -12.3198  -18.1876   23.1346 C.ar    1  UNL1        0.0164
      8 C         -12.7075  -16.7960   22.7307 C.ar    1  UNL1        0.0986
      9 N         -11.7514  -15.9498   21.9435 N.ar    1  UNL1       -0.2423
     10 C         -10.4077  -16.4951   21.5602 C.ar    1  UNL1        0.0990
     11 C         -10.0200  -17.8867   21.9641 C.ar    1  UNL1        0.0212
     12 C          -9.9308  -20.3647   24.4818 C.3     1  UNL1        0.0050
     13 C         -10.5884  -20.1246   23.1553 C.3     1  UNL1        0.0265
     14 C          -4.8518  -18.9685   21.9697 C.3     1  UNL1        0.0987
     15 N          -4.2192  -17.7795   22.6301 N.3     1  UNL1       -0.3170
     16 H          -4.2003  -16.9972   21.9758 H       1  UNL1        0.1192
     17 H          -3.2662  -18.0125   22.9091 H       1  UNL1        0.1192
@<TRIPOS>BOND
     1    12    13    1
     2    13     6    1
     3     6     7   ar
     4     7     8   ar
     5     8     9   ar
     6     9    10   ar
     7    10    11   ar
     8    11     1    1
     9     1     2   ar
    10     2     3   ar
    11     3     4   ar
    12     4    14    1
    13    14    15    1
    14     4     5   ar
    15    11     6   ar
    16     5     1   ar
    17    15    16    1
    18    15    17    1
@<TRIPOS>MOLECULE
*****
 17 18 0 0 0
SMALL
GASTEIGER

@<TRIPOS>ATOM
      1 C          -9.2008  -17.2883   23.3594 C.ar    1  UNL1        0.0304
      2 C          -8.2609  -18.0263   22.4527 C.ar    1  UNL1        0.0067
      3 C          -6.8955  -17.4265   22.6131 C.ar    1  UNL1        0.0040
      4 C          -6.9914  -16.3177   23.6188 C.ar    1  UNL1        0.0230
      5 S          -8.4162  -16.2324   24.0801 S.2     1  UNL1       -0.0899
      6 C         -11.6546  -16.9041   22.5971 C.ar    1  UNL1       -0.0187
      7 C         -13.1215  -17.1746   22.7554 C.ar    1  UNL1        0.0164
      8 C         -13.6015  -18.0997   23.8341 C.ar    1  UNL1        0.0986
      9 N         -12.6146  -18.7544   24.7546 N.ar    1  UNL1       -0.2423
     10 C         -11.1477  -18.4840   24.5964 C.ar    1  UNL1        0.0990
     11 C         -10.6677  -17.5588   23.5176 C.ar    1  UNL1        0.0212
     12 C         -11.3635  -16.3463   20.0764 C.3     1  UNL1        0.0050
     13 C         -11.1747  -15.9789   21.5184 C.3     1  UNL1        0.0265
     14 C          -5.8611  -15.4472   24.0820 C.3     1  UNL1        0.0987
     15 N          -5.0089  -14.7277   23.0790 N.3     1  UNL1       -0.3170
     16 H          -4.4858  -15.4076   22.5272 H       1  UNL1        0.1192
     17 H          -4.3578  -14.1116   23.5656 H       1  UNL1        0.1192
@<TRIPOS>BOND
     1    12    13    1
     2    13     6    1
     3     6     7   ar
     4     7     8   ar
     5     8     9   ar
     6     9    10   ar
     7    10    11   ar
     8    11     1    1
     9     1     2   ar
    10     2     3   ar
    11     3     4   ar
    12     4    14    1
    13    14    15    1
    14     4     5   ar
    15    11     6   ar
    16     5     1   ar
    17    15    16    1
    18    15    17    1
@<TRIPOS>MOLECULE
*****
 17 18 0 0 0
SMALL
GASTEIGER

@<TRIPOS>ATOM
      1 C          -9.0453  -18.1013   22.7884 C.ar    1  UNL1        0.0304
      2 C          -9.6925  -18.6269   24.0354 C.ar    1  UNL1        0.0067
      3 C          -9.4482  -17.6382   25.1365 C.ar    1  UNL1        0.0040
      4 C          -8.6500  -16.5014   24.5702 C.ar    1  UNL1        0.0230
      5 S          -8.4010  -16.7877   23.1190 S.2     1  UNL1       -0.0899
      6 C         -10.3328  -18.9809   20.7102 C.ar    1  UNL1       -0.0187
      7 C         -10.3302  -19.6512   19.3684 C.ar    1  UNL1        0.0164
      8 C          -9.0377  -20.1123   18.7628 C.ar    1  UNL1        0.0986
      9 N          -7.7477  -19.9031   19.4990 N.ar    1  UNL1       -0.2423
     10 C          -7.7503  -19.2328   20.8409 C.ar    1  UNL1        0.0990
     11 C          -9.0428  -18.7717   21.4465 C.ar    1  UNL1        0.0212
     12 C         -12.1601  -17.1560   20.9938 C.3     1  UNL1        0.0050
     13 C         -11.6253  -18.5199   21.3159 C.3     1  UNL1        0.0265
     14 C          -8.1829  -15.2909   25.3229 C.3     1  UNL1        0.0987
     15 N          -7.1829  -14.3613   24.7018 N.3     1  UNL1       -0.3170
     16 H          -6.2926  -14.8460   24.5885 H       1  UNL1        0.1192
     17 H          -7.0534  -13.5490   25.3049 H       1  UNL1        0.1192
@<TRIPOS>BOND
     1    12    13    1
     2    13     6    1
     3     6     7   ar
     4     7     8   ar
     5     8     9   ar
     6     9    10   ar
     7    10    11   ar
     8    11     1    1
     9     1     2   ar
    10     2     3   ar
    11     3     4   ar
    12     4    14    1
    13    14    15    1
    14     4     5   ar
    15    11     6   ar
    16     5     1   ar
    17    15    16    1
    18    15    17    1
@<TRIPOS>MOLECULE
*****
 17 18 0 0 0
SMALL
GASTEIGER

@<TRIPOS>ATOM
      1 C          -8.7647  -16.7214   23.1707 C.ar    1  UNL1        0.0304
      2 C          -9.3794  -16.4296   24.5074 C.ar    1  UNL1        0.0067
      3 C          -8.3216  -15.8243   25.3818 C.ar    1  UNL1        0.0040
      4 C          -7.0531  -15.7420   24.5854 C.ar    1  UNL1        0.0230
      5 S          -7.3270  -16.2964   23.2188 S.2     1  UNL1       -0.0899
      6 C          -9.3042  -18.7933   21.6989 C.ar    1  UNL1       -0.0187
      7 C         -10.0044  -19.4030   20.5207 C.ar    1  UNL1        0.0164
      8 C         -10.8651  -18.5505   19.6362 C.ar    1  UNL1        0.0986
      9 N         -11.0257  -17.0884   19.9298 N.ar    1  UNL1       -0.2423
     10 C         -10.3256  -16.4787   21.1079 C.ar    1  UNL1        0.0990
     11 C          -9.4649  -17.3312   21.9925 C.ar    1  UNL1        0.0212
     12 C          -7.0550  -20.0126   22.1506 C.3     1  UNL1        0.0050
     13 C          -8.4435  -19.6458   22.5834 C.3     1  UNL1        0.0265
     14 C          -5.7411  -15.2003   25.0704 C.3     1  UNL1        0.0987
     15 N          -5.6815  -14.4060   26.3414 N.3     1  UNL1       -0.3170
     16 H          -6.1928  -13.5317   26.2203 H       1  UNL1        0.1192
     17 H          -4.7085  -14.2019   26.5696 H       1  UNL1        0.1192
@<TRIPOS>BOND
     1    12    13    1
     2    13     6    1
     3     6     7   ar
     4     7     8   ar
     5     8     9   ar
     6     9    10   ar
     7    10    11   ar
     8    11     1    1
     9     1     2   ar
    10     2     3   ar
    11     3     4   ar
    12     4    14    1
    13    14    15    1
    14     4     5   ar
    15    11     6   ar
    16     5     1   ar
    17    15    16    1
    18    15    17    1
@<TRIPOS>MOLECULE
*****
 17 18 0 0 0
SMALL
GASTEIGER

@<TRIPOS>ATOM
      1 C          -8.4493  -18.5830   22.4832 C.ar    1  UNL1        0.0304
      2 C          -9.1894  -19.6755   23.1965 C.ar    1  UNL1        0.0067
      3 C         -10.6189  -19.6391   22.7437 C.ar    1  UNL1        0.0040
      4 C         -10.7624  -18.5242   21.7505 C.ar    1  UNL1        0.0230
      5 S          -9.4215  -17.8715   21.5895 S.2     1  UNL1       -0.0899
      6 C          -5.9541  -19.2195   22.1380 C.ar    1  UNL1       -0.0187
      7 C          -4.4977  -18.8954   22.2914 C.ar    1  UNL1        0.0164
      8 C          -4.0798  -17.6107   22.9434 C.ar    1  UNL1        0.0986
      9 N          -5.1184  -16.6502   23.4419 N.ar    1  UNL1       -0.2423
     10 C          -6.5749  -16.9743   23.2885 C.ar    1  UNL1        0.0990
     11 C          -6.9927  -18.2589   22.6366 C.ar    1  UNL1        0.0212
     12 C          -5.6579  -20.9898   20.2597 C.3     1  UNL1        0.0050
     13 C          -6.3720  -20.5042   21.4861 C.3     1  UNL1        0.0265
     14 C         -12.0251  -18.1310   21.0426 C.3     1  UNL1        0.0987
     15 N         -12.0026  -17.0285   20.0258 N.3     1  UNL1       -0.3170
     16 H         -11.7832  -16.1454   20.4866 H       1  UNL1        0.1192
     17 H         -12.9165  -16.9604   19.5779 H       1  UNL1        0.1192
@<TRIPOS>BOND
     1    12    13    1
     2    13     6    1
     3     6     7   ar
     4     7     8   ar
     5     8     9   ar
     6     9    10   ar
     7    10    11   ar
     8    11     1    1
     9     1     2   ar
    10     2     3   ar
    11     3     4   ar
    12     4    14    1
    13    14    15    1
    14     4     5   ar
    15    11     6   ar
    16     5     1   ar
    17    15    16    1
    18    15    17    1
@<TRIPOS>MOLECULE
*****
 17 18 0 0 0
SMALL
GASTEIGER

@<TRIPOS>ATOM
      1 C          -9.3449  -17.0080   23.3143 C.ar    1  UNL1        0.0304
      2 C         -10.1800  -17.8706   24.2135 C.ar    1  UNL1        0.0067
      3 C         -11.4913  -18.1204   23.5293 C.ar    1  UNL1        0.0040
      4 C         -11.4666  -17.4122   22.2072 C.ar    1  UNL1        0.0230
      5 S         -10.1401  -16.7247   22.0744 S.2     1  UNL1       -0.0899
      6 C          -6.7704  -17.2647   23.0773 C.ar    1  UNL1       -0.0187
      7 C          -5.3837  -16.7719   23.3671 C.ar    1  UNL1        0.0164
      8 C          -5.1846  -15.5296   24.1839 C.ar    1  UNL1        0.0986
      9 N          -6.3723  -14.7801   24.7108 N.ar    1  UNL1       -0.2423
     10 C          -7.7590  -15.2729   24.4209 C.ar    1  UNL1        0.0990
     11 C          -7.9581  -16.5152   23.6042 C.ar    1  UNL1        0.0212
     12 C          -5.8152  -19.4306   22.0066 C.3     1  UNL1        0.0050
     13 C          -6.9695  -18.5070   22.2605 C.3     1  UNL1        0.0265
     14 C         -12.5740  -17.3945   21.1956 C.3     1  UNL1        0.0987
     15 N         -12.6540  -16.2840   20.1905 N.3     1  UNL1       -0.3170
     16 H         -12.8468  -15.4046   20.6700 H       1  UNL1        0.1192
     17 H         -13.4026  -16.4801   19.5259 H       1  UNL1        0.1192
@<TRIPOS>BOND
     1    12    13    1
     2    13     6    1
     3     6     7   ar
     4     7     8   ar
     5     8     9   ar
     6     9    10   ar
     7    10    11   ar
     8    11     1    1
     9     1     2   ar
    10     2     3   ar
    11     3     4   ar
    12     4    14    1
    13    14    15    1
    14     4     5   ar
    15    11     6   ar
    16     5     1   ar
    17    15    16    1
    18    15    17    1
