@<TRIPOS>MOLECULE
*****
 22 24 0 0 0
SMALL
GASTEIGER

@<TRIPOS>ATOM
      1 N         -14.0531  -17.8005   24.2498 N.pl3   1  UNL1       -0.3375
      2 C         -12.8591  -18.0997   23.3925 C.ar    1  UNL1        0.1567
      3 N         -12.8021  -18.0062   21.8965 N.ar    1  UNL1       -0.2245
      4 C         -11.4202  -18.3935   21.4602 C.ar    1  UNL1        0.0893
      5 C         -10.7847  -18.4862   20.1046 C.ar    1  UNL1        0.0210
      6 C          -9.3522  -18.9117   19.9754 C.ar    1  UNL1        0.0199
      7 C          -8.5551  -19.2446   21.2017 C.ar    1  UNL1        0.1066
      8 C          -9.1906  -19.1519   22.5573 C.ar    1  UNL1        0.0264
      9 C         -10.6232  -18.7264   22.6865 C.ar    1  UNL1        0.0510
     10 S         -11.5124  -18.5448   23.8807 S.2     1  UNL1       -0.0519
     11 H         -14.8980  -17.5131   23.8340 H       1  UNL1        0.1442
     12 H         -13.9919  -17.8916   25.2281 H       1  UNL1        0.1442
     13 S          -7.1225  -19.6701   21.0725 S.O2    1  UNL1        0.0129
     14 O          -7.0201  -18.9299   19.7718 O.2     1  UNL1       -0.1683
     15 O          -7.2250  -20.4102   22.3731 O.2     1  UNL1       -0.1683
     16 C          -5.6900  -20.0955   20.9431 C.3     1  UNL1        0.1822
     17 C          -4.5889  -19.1368   21.2871 C.ar    1  UNL1        0.0017
     18 C          -4.5661  -18.4718   22.6315 C.ar    1  UNL1       -0.0026
     19 C          -3.4650  -17.5130   22.9754 C.ar    1  UNL1       -0.0003
     20 C          -2.3866  -17.2193   21.9749 C.ar    1  UNL1       -0.0000
     21 C          -2.4094  -17.8842   20.6306 C.ar    1  UNL1       -0.0003
     22 C          -3.5105  -18.8430   20.2867 C.ar    1  UNL1       -0.0026
@<TRIPOS>BOND
     1     1     2    1
     2     2     3   ar
     3     3     4   ar
     4     4     5   ar
     5     5     6   ar
     6     6     7   ar
     7     7    13    1
     8    13    14    2
     9    13    15    2
    10    13    16    1
    11    16    17    1
    12    17    18   ar
    13    18    19   ar
    14    19    20   ar
    15    20    21   ar
    16    21    22   ar
    17     7     8   ar
    18     8     9   ar
    19     9    10   ar
    20    10     2   ar
    21     9     4   ar
    22    22    17   ar
    23     1    11    1
    24     1    12    1
@<TRIPOS>MOLECULE
*****
 22 24 0 0 0
SMALL
GASTEIGER

@<TRIPOS>ATOM
      1 N         -13.2653  -17.5492   23.4780 N.pl3   1  UNL1       -0.3375
      2 C         -12.0572  -18.0014   22.7125 C.ar    1  UNL1        0.1567
      3 N         -12.0334  -18.4288   21.2749 N.ar    1  UNL1       -0.2245
      4 C         -10.6223  -18.7972   20.9240 C.ar    1  UNL1        0.0893
      5 C         -10.0003  -19.2887   19.6507 C.ar    1  UNL1        0.0210
      6 C          -8.5299  -19.5805   19.5982 C.ar    1  UNL1        0.0199
      7 C          -7.6815  -19.3807   20.8190 C.ar    1  UNL1        0.1066
      8 C          -8.3035  -18.8892   22.0923 C.ar    1  UNL1        0.0264
      9 C          -9.7739  -18.5974   22.1448 C.ar    1  UNL1        0.0510
     10 S         -10.6608  -18.1056   23.2501 S.2     1  UNL1       -0.0519
     11 H         -14.1439  -17.5143   23.0353 H       1  UNL1        0.1442
     12 H         -13.1795  -17.2872   24.4231 H       1  UNL1        0.1442
     13 S          -6.2111  -19.6724   20.7664 S.O2    1  UNL1        0.0129
     14 O          -6.3862  -20.7418   21.8036 O.2     1  UNL1       -0.1683
     15 O          -6.0359  -18.6031   19.7292 O.2     1  UNL1       -0.1683
     16 C          -4.7407  -19.9642   20.7138 C.3     1  UNL1        0.1822
     17 C          -3.7487  -18.8596   20.9279 C.ar    1  UNL1        0.0017
     18 C          -2.8180  -18.4624   19.8205 C.ar    1  UNL1       -0.0026
     19 C          -1.8260  -17.3578   20.0346 C.ar    1  UNL1       -0.0003
     20 C          -1.7648  -16.6504   21.3559 C.ar    1  UNL1       -0.0000
     21 C          -2.6955  -17.0476   22.4631 C.ar    1  UNL1       -0.0003
     22 C          -3.6874  -18.1522   22.2491 C.ar    1  UNL1       -0.0026
@<TRIPOS>BOND
     1     1     2    1
     2     2     3   ar
     3     3     4   ar
     4     4     5   ar
     5     5     6   ar
     6     6     7   ar
     7     7    13    1
     8    13    14    2
     9    13    15    2
    10    13    16    1
    11    16    17    1
    12    17    18   ar
    13    18    19   ar
    14    19    20   ar
    15    20    21   ar
    16    21    22   ar
    17     7     8   ar
    18     8     9   ar
    19     9    10   ar
    20    10     2   ar
    21     9     4   ar
    22    22    17   ar
    23     1    11    1
    24     1    12    1
@<TRIPOS>MOLECULE
*****
 22 24 0 0 0
SMALL
GASTEIGER

@<TRIPOS>ATOM
      1 N         -12.7360  -15.9140   22.4792 N.pl3   1  UNL1       -0.3375
      2 C         -11.5884  -16.7328   21.9668 C.ar    1  UNL1        0.1567
      3 N         -11.6023  -17.6029   20.7450 N.ar    1  UNL1       -0.2245
      4 C         -10.2479  -18.2332   20.6094 C.ar    1  UNL1        0.0893
      5 C          -9.6796  -19.1826   19.5967 C.ar    1  UNL1        0.0210
      6 C          -8.2603  -19.6514   19.7219 C.ar    1  UNL1        0.0199
      7 C          -7.4093  -19.1708   20.8598 C.ar    1  UNL1        0.1066
      8 C          -7.9776  -18.2215   21.8725 C.ar    1  UNL1        0.0264
      9 C          -9.3969  -17.7526   21.7473 C.ar    1  UNL1        0.0510
     10 S         -10.2254  -16.8254   22.5862 S.2     1  UNL1       -0.0519
     11 H         -13.5963  -15.9184   22.0006 H       1  UNL1        0.1442
     12 H         -12.6289  -15.3721   23.2942 H       1  UNL1        0.1442
     13 S          -5.9899  -19.6397   20.9850 S.O2    1  UNL1        0.0129
     14 O          -6.2901  -20.7918   20.0725 O.2     1  UNL1       -0.1683
     15 O          -5.6898  -18.4877   21.8975 O.2     1  UNL1       -0.1683
     16 C          -4.5706  -20.1086   21.1102 C.3     1  UNL1        0.1822
     17 C          -3.4517  -19.2626   20.5790 C.ar    1  UNL1        0.0017
     18 C          -2.1828  -19.1172   21.3658 C.ar    1  UNL1       -0.0026
     19 C          -1.0638  -18.2712   20.8346 C.ar    1  UNL1       -0.0003
     20 C          -1.2137  -17.5706   19.5167 C.ar    1  UNL1       -0.0000
     21 C          -2.4825  -17.7161   18.7300 C.ar    1  UNL1       -0.0003
     22 C          -3.6015  -18.5621   19.2612 C.ar    1  UNL1       -0.0026
@<TRIPOS>BOND
     1     1     2    1
     2     2     3   ar
     3     3     4   ar
     4     4     5   ar
     5     5     6   ar
     6     6     7   ar
     7     7    13    1
     8    13    14    2
     9    13    15    2
    10    13    16    1
    11    16    17    1
    12    17    18   ar
    13    18    19   ar
    14    19    20   ar
    15    20    21   ar
    16    21    22   ar
    17     7     8   ar
    18     8     9   ar
    19     9    10   ar
    20    10     2   ar
    21     9     4   ar
    22    22    17   ar
    23     1    11    1
    24     1    12    1
@<TRIPOS>MOLECULE
*****
 22 24 0 0 0
SMALL
GASTEIGER

@<TRIPOS>ATOM
      1 N         -19.0071  -11.0380   18.1538 N.pl3   1  UNL1       -0.3375
      2 C         -17.9984   -9.9509   18.3793 C.ar    1  UNL1        0.1567
      3 N         -18.3015   -8.5321   18.7601 N.ar    1  UNL1       -0.2245
      4 C         -16.9999   -7.7961   18.8799 C.ar    1  UNL1        0.0893
      5 C         -16.6801   -6.3727   19.2286 C.ar    1  UNL1        0.0210
      6 C         -15.2529   -5.9134   19.2705 C.ar    1  UNL1        0.0199
      7 C         -14.1454   -6.8774   18.9637 C.ar    1  UNL1        0.1066
      8 C         -14.4651   -8.3008   18.6150 C.ar    1  UNL1        0.0264
      9 C         -15.8924   -8.7601   18.5730 C.ar    1  UNL1        0.0510
     10 S         -16.5095  -10.0919   18.2637 S.2     1  UNL1       -0.0519
     11 H         -19.9676  -10.8468   18.2541 H       1  UNL1        0.1442
     12 H         -18.7086  -11.9426   17.9054 H       1  UNL1        0.1442
     13 S         -12.7180   -6.4179   19.0057 S.O2    1  UNL1        0.0129
     14 O         -13.0314   -5.5526   20.1901 O.2     1  UNL1       -0.1683
     15 O         -12.4046   -7.2833   17.8213 O.2     1  UNL1       -0.1683
     16 C         -11.2908   -5.9585   19.0477 C.3     1  UNL1        0.1822
     17 C         -10.8113   -4.9115   18.0865 C.ar    1  UNL1        0.0017
     18 C         -11.6410   -3.6871   17.8359 C.ar    1  UNL1       -0.0026
     19 C         -11.1615   -2.6401   16.8747 C.ar    1  UNL1       -0.0003
     20 C          -9.8524   -2.8175   16.1641 C.ar    1  UNL1       -0.0000
     21 C          -9.0228   -4.0418   16.4147 C.ar    1  UNL1       -0.0003
     22 C          -9.5023   -5.0888   17.3759 C.ar    1  UNL1       -0.0026
@<TRIPOS>BOND
     1     1     2    1
     2     2     3   ar
     3     3     4   ar
     4     4     5   ar
     5     5     6   ar
     6     6     7   ar
     7     7    13    1
     8    13    14    2
     9    13    15    2
    10    13    16    1
    11    16    17    1
    12    17    18   ar
    13    18    19   ar
    14    19    20   ar
    15    20    21   ar
    16    21    22   ar
    17     7     8   ar
    18     8     9   ar
    19     9    10   ar
    20    10     2   ar
    21     9     4   ar
    22    22    17   ar
    23     1    11    1
    24     1    12    1
@<TRIPOS>MOLECULE
*****
 22 24 0 0 0
SMALL
GASTEIGER

@<TRIPOS>ATOM
      1 N          -8.4756  -14.6147   27.1656 N.pl3   1  UNL1       -0.3375
      2 C          -8.2567  -15.5212   25.9906 C.ar    1  UNL1        0.1567
      3 N          -9.3223  -16.2598   25.2364 N.ar    1  UNL1       -0.2245
      4 C          -8.6581  -17.0432   24.1432 C.ar    1  UNL1        0.0893
      5 C          -9.2067  -17.9554   23.0864 C.ar    1  UNL1        0.0210
      6 C          -8.2791  -18.6132   22.1082 C.ar    1  UNL1        0.0199
      7 C          -6.8029  -18.3588   22.1869 C.ar    1  UNL1        0.1066
      8 C          -6.2543  -17.4467   23.2438 C.ar    1  UNL1        0.0264
      9 C          -7.1819  -16.7889   24.2219 C.ar    1  UNL1        0.0510
     10 S          -6.9339  -15.8482   25.3637 S.2     1  UNL1       -0.0519
     11 H          -9.3864  -14.4618   27.5064 H       1  UNL1        0.1442
     12 H          -7.7083  -14.1727   27.5959 H       1  UNL1        0.1442
     13 S          -5.8753  -19.0167   21.2087 S.O2    1  UNL1        0.0129
     14 O          -6.6586  -18.4305   20.0718 O.2     1  UNL1       -0.1683
     15 O          -5.0920  -19.6029   22.3456 O.2     1  UNL1       -0.1683
     16 C          -4.9478  -19.6745   20.2305 C.3     1  UNL1        0.1822
     17 C          -3.5844  -19.0988   19.9861 C.ar    1  UNL1        0.0017
     18 C          -2.4336  -19.4984   20.8613 C.ar    1  UNL1       -0.0026
     19 C          -1.0702  -18.9227   20.6169 C.ar    1  UNL1       -0.0003
     20 C          -0.8576  -17.9474   19.4972 C.ar    1  UNL1       -0.0000
     21 C          -2.0084  -17.5479   18.6220 C.ar    1  UNL1       -0.0003
     22 C          -3.3718  -18.1235   18.8664 C.ar    1  UNL1       -0.0026
@<TRIPOS>BOND
     1     1     2    1
     2     2     3   ar
     3     3     4   ar
     4     4     5   ar
     5     5     6   ar
     6     6     7   ar
     7     7    13    1
     8    13    14    2
     9    13    15    2
    10    13    16    1
    11    16    17    1
    12    17    18   ar
    13    18    19   ar
    14    19    20   ar
    15    20    21   ar
    16    21    22   ar
    17     7     8   ar
    18     8     9   ar
    19     9    10   ar
    20    10     2   ar
    21     9     4   ar
    22    22    17   ar
    23     1    11    1
    24     1    12    1
@<TRIPOS>MOLECULE
*****
 22 24 0 0 0
SMALL
GASTEIGER

@<TRIPOS>ATOM
      1 N         -12.4320    3.7308   16.3742 N.pl3   1  UNL1       -0.3375
      2 C         -12.8908    2.4751   17.0545 C.ar    1  UNL1        0.1567
      3 N         -14.1471    2.3164   17.8584 N.ar    1  UNL1       -0.2245
      4 C         -14.2066    0.9008   18.3510 C.ar    1  UNL1        0.0893
      5 C         -15.2137    0.1715   19.1899 C.ar    1  UNL1        0.0210
      6 C         -15.0011   -1.2741   19.5292 C.ar    1  UNL1        0.0199
      7 C         -13.7815   -1.9903   19.0297 C.ar    1  UNL1        0.1066
      8 C         -12.7744   -1.2609   18.1909 C.ar    1  UNL1        0.0264
      9 C         -12.9869    0.1846   17.8515 C.ar    1  UNL1        0.0510
     10 S         -12.1737    1.1576   17.0502 S.2     1  UNL1       -0.0519
     11 H         -12.9747    4.5500   16.4349 H       1  UNL1        0.1442
     12 H         -11.5882    3.7358   15.8671 H       1  UNL1        0.1442
     13 S         -13.5690   -3.4359   19.3691 S.O2    1  UNL1        0.0129
     14 O         -13.4115   -3.0730   20.8160 O.2     1  UNL1       -0.1683
     15 O         -13.7264   -3.7988   17.9222 O.2     1  UNL1       -0.1683
     16 C         -13.3564   -4.8814   19.7085 C.3     1  UNL1        0.1822
     17 C         -12.1455   -5.6023   19.1947 C.ar    1  UNL1        0.0017
     18 C         -10.8021   -4.9363   19.2370 C.ar    1  UNL1       -0.0026
     19 C          -9.5911   -5.6572   18.7232 C.ar    1  UNL1       -0.0003
     20 C          -9.7236   -7.0440   18.1672 C.ar    1  UNL1       -0.0000
     21 C         -11.0670   -7.7100   18.1250 C.ar    1  UNL1       -0.0003
     22 C         -12.2779   -6.9891   18.6387 C.ar    1  UNL1       -0.0026
@<TRIPOS>BOND
     1     1     2    1
     2     2     3   ar
     3     3     4   ar
     4     4     5   ar
     5     5     6   ar
     6     6     7   ar
     7     7    13    1
     8    13    14    2
     9    13    15    2
    10    13    16    1
    11    16    17    1
    12    17    18   ar
    13    18    19   ar
    14    19    20   ar
    15    20    21   ar
    16    21    22   ar
    17     7     8   ar
    18     8     9   ar
    19     9    10   ar
    20    10     2   ar
    21     9     4   ar
    22    22    17   ar
    23     1    11    1
    24     1    12    1
@<TRIPOS>MOLECULE
*****
 22 24 0 0 0
SMALL
GASTEIGER

@<TRIPOS>ATOM
      1 N         -16.7472    3.7071   18.8540 N.pl3   1  UNL1       -0.3375
      2 C         -15.8892    2.4769   18.8381 C.ar    1  UNL1        0.1567
      3 N         -14.4676    2.3994   18.3657 N.ar    1  UNL1       -0.2245
      4 C         -14.0019    0.9828   18.5274 C.ar    1  UNL1        0.0893
      5 C         -12.6919    0.3164   18.2275 C.ar    1  UNL1        0.0210
      6 C         -12.5157   -1.1480   18.4998 C.ar    1  UNL1        0.0199
      7 C         -13.6495   -1.9462   19.0721 C.ar    1  UNL1        0.1066
      8 C         -14.9595   -1.2799   19.3720 C.ar    1  UNL1        0.0264
      9 C         -15.1356    0.1846   19.0997 C.ar    1  UNL1        0.0510
     10 S         -16.3020    1.1080   19.2917 S.2     1  UNL1       -0.0519
     11 H         -16.3843    4.5645   18.5339 H       1  UNL1        0.1442
     12 H         -17.6732    3.6572   19.1845 H       1  UNL1        0.1442
     13 S         -13.4733   -3.4107   19.3444 S.O2    1  UNL1        0.0129
     14 O         -13.6133   -3.7000   17.8793 O.2     1  UNL1       -0.1683
     15 O         -13.3332   -3.1215   20.8096 O.2     1  UNL1       -0.1683
     16 C         -13.2971   -4.8752   19.6167 C.3     1  UNL1        0.1822
     17 C         -12.0814   -5.5917   19.1079 C.ar    1  UNL1        0.0017
     18 C         -10.7307   -4.9488   19.2186 C.ar    1  UNL1       -0.0026
     19 C          -9.5151   -5.6653   18.7099 C.ar    1  UNL1       -0.0003
     20 C          -9.6502   -7.0247   18.0904 C.ar    1  UNL1       -0.0000
     21 C         -11.0008   -7.6676   17.9797 C.ar    1  UNL1       -0.0003
     22 C         -12.2165   -6.9511   18.4885 C.ar    1  UNL1       -0.0026
@<TRIPOS>BOND
     1     1     2    1
     2     2     3   ar
     3     3     4   ar
     4     4     5   ar
     5     5     6   ar
     6     6     7   ar
     7     7    13    1
     8    13    14    2
     9    13    15    2
    10    13    16    1
    11    16    17    1
    12    17    18   ar
    13    18    19   ar
    14    19    20   ar
    15    20    21   ar
    16    21    22   ar
    17     7     8   ar
    18     8     9   ar
    19     9    10   ar
    20    10     2   ar
    21     9     4   ar
    22    22    17   ar
    23     1    11    1
    24     1    12    1
@<TRIPOS>MOLECULE
*****
 22 24 0 0 0
SMALL
GASTEIGER

@<TRIPOS>ATOM
      1 N         -18.7876   -0.4270   19.8934 N.pl3   1  UNL1       -0.3375
      2 C         -17.3348   -0.6095   19.5676 C.ar    1  UNL1        0.1567
      3 N         -16.4056    0.4515   19.0570 N.ar    1  UNL1       -0.2245
      4 C         -15.0527   -0.1684   18.8690 C.ar    1  UNL1        0.0893
      5 C         -13.7481    0.3956   18.3897 C.ar    1  UNL1        0.0210
      6 C         -12.5365   -0.4846   18.3047 C.ar    1  UNL1        0.0199
      7 C         -12.6296   -1.9288   18.6991 C.ar    1  UNL1        0.1066
      8 C         -13.9342   -2.4928   19.1785 C.ar    1  UNL1        0.0264
      9 C         -15.1458   -1.6126   19.2634 C.ar    1  UNL1        0.0510
     10 S         -16.5562   -1.8852   19.6952 S.2     1  UNL1       -0.0519
     11 H         -19.2115    0.4539   19.7762 H       1  UNL1        0.1442
     12 H         -19.3172   -1.1879   20.2245 H       1  UNL1        0.1442
     13 S         -11.4179   -2.8090   18.6141 S.O2    1  UNL1        0.0129
     14 O         -12.0297   -3.7473   19.6117 O.2     1  UNL1       -0.1683
     15 O         -10.8062   -1.8707   17.6165 O.2     1  UNL1       -0.1683
     16 C         -10.2063   -3.6892   18.5292 C.3     1  UNL1        0.1822
     17 C         -10.3506   -5.1272   18.1273 C.ar    1  UNL1        0.0017
     18 C          -9.6391   -6.1972   18.9012 C.ar    1  UNL1       -0.0026
     19 C          -9.7834   -7.6352   18.4994 C.ar    1  UNL1       -0.0003
     20 C         -10.6392   -8.0031   17.3236 C.ar    1  UNL1       -0.0000
     21 C         -11.3507   -6.9331   16.5498 C.ar    1  UNL1       -0.0003
     22 C         -11.2064   -5.4951   16.9517 C.ar    1  UNL1       -0.0026
@<TRIPOS>BOND
     1     1     2    1
     2     2     3   ar
     3     3     4   ar
     4     4     5   ar
     5     5     6   ar
     6     6     7   ar
     7     7    13    1
     8    13    14    2
     9    13    15    2
    10    13    16    1
    11    16    17    1
    12    17    18   ar
    13    18    19   ar
    14    19    20   ar
    15    20    21   ar
    16    21    22   ar
    17     7     8   ar
    18     8     9   ar
    19     9    10   ar
    20    10     2   ar
    21     9     4   ar
    22    22    17   ar
    23     1    11    1
    24     1    12    1
@<TRIPOS>MOLECULE
*****
 22 24 0 0 0
SMALL
GASTEIGER

@<TRIPOS>ATOM
      1 N           8.1426   -5.0042   27.1602 N.pl3   1  UNL1       -0.3375
      2 C           7.9766   -4.7963   25.6840 C.ar    1  UNL1        0.1567
      3 N           9.0108   -5.0716   24.6330 N.ar    1  UNL1       -0.2245
      4 C           8.4205   -4.7220   23.2990 C.ar    1  UNL1        0.0893
      5 C           8.9763   -4.7876   21.9073 C.ar    1  UNL1        0.0210
      6 C           8.1330   -4.3619   20.7422 C.ar    1  UNL1        0.0199
      7 C           6.7339   -3.8705   20.9688 C.ar    1  UNL1        0.1066
      8 C           6.1782   -3.8049   22.3605 C.ar    1  UNL1        0.0264
      9 C           7.0215   -4.2306   23.5256 C.ar    1  UNL1        0.0510
     10 S           6.7472   -4.2765   24.9996 S.2     1  UNL1       -0.0519
     11 H           8.9923   -5.3518   27.5159 H       1  UNL1        0.1442
     12 H           7.4019   -4.7932   27.7734 H       1  UNL1        0.1442
     13 S           5.8906   -3.4447   19.8036 S.O2    1  UNL1        0.0129
     14 O           6.5497   -2.0974   19.8190 O.2     1  UNL1       -0.1683
     15 O           5.2316   -4.7920   19.7882 O.2     1  UNL1       -0.1683
     16 C           5.0474   -3.0189   18.6385 C.3     1  UNL1        0.1822
     17 C           3.9884   -1.9725   18.8217 C.ar    1  UNL1        0.0017
     18 C           3.0754   -2.0296   20.0105 C.ar    1  UNL1       -0.0026
     19 C           2.0164   -0.9831   20.1938 C.ar    1  UNL1       -0.0003
     20 C           1.8705    0.1204   19.1882 C.ar    1  UNL1       -0.0000
     21 C           2.7836    0.1774   17.9995 C.ar    1  UNL1       -0.0003
     22 C           3.8425   -0.8690   17.8163 C.ar    1  UNL1       -0.0026
@<TRIPOS>BOND
     1     1     2    1
     2     2     3   ar
     3     3     4   ar
     4     4     5   ar
     5     5     6   ar
     6     6     7   ar
     7     7    13    1
     8    13    14    2
     9    13    15    2
    10    13    16    1
    11    16    17    1
    12    17    18   ar
    13    18    19   ar
    14    19    20   ar
    15    20    21   ar
    16    21    22   ar
    17     7     8   ar
    18     8     9   ar
    19     9    10   ar
    20    10     2   ar
    21     9     4   ar
    22    22    17   ar
    23     1    11    1
    24     1    12    1
