@<TRIPOS>MOLECULE
*****
 30 33 0 0 0
SMALL
GASTEIGER

@<TRIPOS>ATOM
      1 O          -9.3439  -18.5741   21.4949 O.2     1  UNL1       -0.2734
      2 C          -7.8825  -18.2603   21.6218 C.2     1  UNL1        0.2420
      3 N          -7.3807  -17.4921   22.8084 N.am    1  UNL1       -0.2760
      4 C          -5.9194  -17.1783   22.9353 C.3     1  UNL1        0.0983
      5 C          -5.4175  -16.4101   24.1219 C.3     1  UNL1        0.0476
      6 C          -6.3770  -15.9557   25.1817 C.ar    1  UNL1       -0.0229
      7 C          -5.8751  -15.1875   26.3682 C.ar    1  UNL1       -0.0045
      8 C          -6.8345  -14.7331   27.4279 C.ar    1  UNL1       -0.0003
      9 C          -8.2958  -15.0469   27.3010 C.ar    1  UNL1       -0.0003
     10 C          -8.7977  -15.8151   26.1144 C.ar    1  UNL1       -0.0030
     11 C          -7.8383  -16.2695   25.0548 C.ar    1  UNL1       -0.0082
     12 C          -8.3401  -17.0377   23.8681 C.3     1  UNL1        0.0975
     13 C          -9.8014  -17.3515   23.7412 C.3     1  UNL1        0.0224
     14 C         -10.3667  -18.5723   24.4047 C.3     1  UNL1        0.0020
     15 C         -11.8281  -18.8861   24.2778 C.3     1  UNL1        0.0001
     16 C         -12.7241  -17.9791   23.4875 C.3     1  UNL1        0.0000
     17 C         -12.1587  -16.7583   22.8241 C.3     1  UNL1        0.0001
     18 C         -10.6974  -16.4445   22.9510 C.3     1  UNL1        0.0020
     19 C          -6.9231  -18.7147   20.5621 C.3     1  UNL1        0.1552
     20 N          -6.1492  -19.9863   20.7465 N.3     1  UNL1       -0.2879
     21 H          -6.6910  -20.7277   20.3024 H       1  UNL1        0.1238
     22 C          -4.7499  -20.0962   20.2173 C.3     1  UNL1        0.0961
     23 C          -3.6501  -19.2811   20.8305 C.3     1  UNL1        0.1027
     24 O          -4.1912  -19.9533   22.0575 O.3     1  UNL1       -0.3854
     25 C          -3.4909  -18.8921   19.3906 C.3     1  UNL1        0.0283
     26 C          -2.4199  -17.9214   18.9899 C.3     1  UNL1        0.0024
     27 C          -1.5079  -17.3398   20.0292 C.3     1  UNL1        0.0002
     28 C          -1.6670  -17.7288   21.4691 C.3     1  UNL1        0.0024
     29 C          -2.7381  -18.6995   21.8697 C.3     1  UNL1        0.0283
     30 H          -4.9306  -20.5305   21.8105 H       1  UNL1        0.2103
@<TRIPOS>BOND
     1     1     2    2
     2     2    19    1
     3    19    20    1
     4    20    22    1
     5    22    23    1
     6    23    24    1
     7    23    25    1
     8    25    26    1
     9    26    27    1
    10    27    28    1
    11    28    29    1
    12     2     3   am
    13     3     4    1
    14     4     5    1
    15     5     6    1
    16     6     7   ar
    17     7     8   ar
    18     8     9   ar
    19     9    10   ar
    20    10    11   ar
    21    11    12    1
    22    12    13    1
    23    13    14    1
    24    14    15    1
    25    15    16    1
    26    16    17    1
    27    17    18    1
    28    29    23    1
    29    12     3    1
    30    18    13    1
    31    11     6   ar
    32    20    21    1
    33    24    30    1
@<TRIPOS>MOLECULE
*****
 30 33 0 0 0
SMALL
GASTEIGER

@<TRIPOS>ATOM
      1 O          -5.8445  -17.7759   23.3796 O.2     1  UNL1       -0.2734
      2 C          -6.3714  -18.5243   22.1912 C.2     1  UNL1        0.2420
      3 N          -7.7969  -18.3417   21.7616 N.am    1  UNL1       -0.2760
      4 C          -8.3238  -19.0902   20.5732 C.3     1  UNL1        0.0983
      5 C          -9.7493  -18.9076   20.1435 C.3     1  UNL1        0.0476
      6 C         -10.6480  -17.9765   20.9022 C.ar    1  UNL1       -0.0229
      7 C         -12.0734  -17.7940   20.4725 C.ar    1  UNL1       -0.0045
      8 C         -12.9720  -16.8630   21.2313 C.ar    1  UNL1       -0.0003
      9 C         -12.4452  -16.1145   22.4196 C.ar    1  UNL1       -0.0003
     10 C         -11.0197  -16.2971   22.8493 C.ar    1  UNL1       -0.0030
     11 C         -10.1211  -17.2281   22.0906 C.ar    1  UNL1       -0.0082
     12 C          -8.6955  -17.4107   22.5203 C.3     1  UNL1        0.0975
     13 C          -8.1687  -16.6623   23.7086 C.3     1  UNL1        0.0224
     14 C          -7.1955  -15.5373   23.5153 C.3     1  UNL1        0.0020
     15 C          -6.6686  -14.7888   24.7037 C.3     1  UNL1        0.0001
     16 C          -7.1149  -15.1654   26.0854 C.3     1  UNL1        0.0000
     17 C          -8.0881  -16.2904   26.2787 C.3     1  UNL1        0.0001
     18 C          -8.6150  -17.0388   25.0903 C.3     1  UNL1        0.0020
     19 C          -5.4728  -19.4554   21.4325 C.3     1  UNL1        0.1552
     20 N          -4.3377  -20.1400   22.1344 N.3     1  UNL1       -0.2879
     21 H          -4.0141  -20.8833   21.5153 H       1  UNL1        0.1238
     22 C          -3.1250  -19.3562   22.5407 C.3     1  UNL1        0.0961
     23 C          -2.1585  -18.8762   21.4988 C.3     1  UNL1        0.1027
     24 O          -2.1077  -20.3529   21.2406 O.3     1  UNL1       -0.3854
     25 C          -2.5449  -17.5662   22.1189 C.3     1  UNL1        0.0283
     26 C          -1.9472  -16.2890   21.6075 C.3     1  UNL1        0.0024
     27 C          -0.9631  -16.3219   20.4759 C.3     1  UNL1        0.0002
     28 C          -0.5767  -17.6318   19.8558 C.3     1  UNL1        0.0024
     29 C          -1.1743  -18.9090   20.3672 C.3     1  UNL1        0.0283
     30 H          -2.7006  -20.8097   21.8577 H       1  UNL1        0.2103
@<TRIPOS>BOND
     1     1     2    2
     2     2    19    1
     3    19    20    1
     4    20    22    1
     5    22    23    1
     6    23    24    1
     7    23    25    1
     8    25    26    1
     9    26    27    1
    10    27    28    1
    11    28    29    1
    12     2     3   am
    13     3     4    1
    14     4     5    1
    15     5     6    1
    16     6     7   ar
    17     7     8   ar
    18     8     9   ar
    19     9    10   ar
    20    10    11   ar
    21    11    12    1
    22    12    13    1
    23    13    14    1
    24    14    15    1
    25    15    16    1
    26    16    17    1
    27    17    18    1
    28    29    23    1
    29    12     3    1
    30    18    13    1
    31    11     6   ar
    32    20    21    1
    33    24    30    1
@<TRIPOS>MOLECULE
*****
 30 33 0 0 0
SMALL
GASTEIGER

@<TRIPOS>ATOM
      1 O          -5.3942  -18.6382   21.0602 O.2     1  UNL1       -0.2734
      2 C          -6.8267  -18.6092   21.5042 C.2     1  UNL1        0.2420
      3 N          -7.2137  -17.8518   22.7399 N.am    1  UNL1       -0.2760
      4 C          -8.6462  -17.8228   23.1839 C.3     1  UNL1        0.0983
      5 C          -9.0333  -17.0655   24.4194 C.3     1  UNL1        0.0476
      6 C          -7.9878  -16.3372   25.2111 C.ar    1  UNL1       -0.0229
      7 C          -8.3748  -15.5799   26.4467 C.ar    1  UNL1       -0.0045
      8 C          -7.3294  -14.8517   27.2382 C.ar    1  UNL1       -0.0003
      9 C          -5.8969  -14.8807   26.7942 C.ar    1  UNL1       -0.0003
     10 C          -5.5099  -15.6380   25.5586 C.ar    1  UNL1       -0.0030
     11 C          -6.5553  -16.3662   24.7671 C.ar    1  UNL1       -0.0082
     12 C          -6.1683  -17.1236   23.5314 C.3     1  UNL1        0.0975
     13 C          -4.7358  -17.1526   23.0874 C.3     1  UNL1        0.0224
     14 C          -4.1112  -15.9272   22.4888 C.3     1  UNL1        0.0020
     15 C          -2.6787  -15.9562   22.0448 C.3     1  UNL1        0.0001
     16 C          -1.8708  -17.2106   22.1994 C.3     1  UNL1        0.0000
     17 C          -2.4955  -18.4360   22.7980 C.3     1  UNL1        0.0001
     18 C          -3.9280  -18.4069   23.2420 C.3     1  UNL1        0.0020
     19 C          -7.8722  -19.3374   20.7126 C.3     1  UNL1        0.1552
     20 N          -8.8784  -18.5662   19.9110 N.3     1  UNL1       -0.2879
     21 H          -8.5679  -18.5979   18.9399 H       1  UNL1        0.1238
     22 C         -10.3200  -18.9807   19.9184 C.3     1  UNL1        0.0961
     23 C         -11.1981  -18.6204   21.0799 C.3     1  UNL1        0.1027
     24 O         -11.1372  -20.1093   21.2514 O.3     1  UNL1       -0.3854
     25 C         -10.9540  -17.2567   20.5050 C.3     1  UNL1        0.0283
     26 C         -11.5668  -16.0496   21.1511 C.3     1  UNL1        0.0024
     27 C         -12.4237  -16.2064   22.3723 C.3     1  UNL1        0.0002
     28 C         -12.6678  -17.5701   22.9472 C.3     1  UNL1        0.0024
     29 C         -12.0550  -18.7772   22.3010 C.3     1  UNL1        0.0283
     30 H         -10.5870  -20.4933   20.5509 H       1  UNL1        0.2103
@<TRIPOS>BOND
     1     1     2    2
     2     2    19    1
     3    19    20    1
     4    20    22    1
     5    22    23    1
     6    23    24    1
     7    23    25    1
     8    25    26    1
     9    26    27    1
    10    27    28    1
    11    28    29    1
    12     2     3   am
    13     3     4    1
    14     4     5    1
    15     5     6    1
    16     6     7   ar
    17     7     8   ar
    18     8     9   ar
    19     9    10   ar
    20    10    11   ar
    21    11    12    1
    22    12    13    1
    23    13    14    1
    24    14    15    1
    25    15    16    1
    26    16    17    1
    27    17    18    1
    28    29    23    1
    29    12     3    1
    30    18    13    1
    31    11     6   ar
    32    20    21    1
    33    24    30    1
@<TRIPOS>MOLECULE
*****
 30 33 0 0 0
SMALL
GASTEIGER

@<TRIPOS>ATOM
      1 O          -6.0104  -19.7525   20.0778 O.2     1  UNL1       -0.2734
      2 C          -7.3129  -19.2667   20.6412 C.2     1  UNL1        0.2420
      3 N          -7.3204  -18.3288   21.8119 N.am    1  UNL1       -0.2760
      4 C          -8.6228  -17.8429   22.3754 C.3     1  UNL1        0.0983
      5 C          -8.6303  -16.9051   23.5460 C.3     1  UNL1        0.0476
      6 C          -7.3353  -16.4532   24.1533 C.ar    1  UNL1       -0.0229
      7 C          -7.3428  -15.5154   25.3239 C.ar    1  UNL1       -0.0045
      8 C          -6.0478  -15.0635   25.9312 C.ar    1  UNL1       -0.0003
      9 C          -4.7454  -15.5494   25.3677 C.ar    1  UNL1       -0.0003
     10 C          -4.7378  -16.4872   24.1971 C.ar    1  UNL1       -0.0030
     11 C          -6.0328  -16.9391   23.5899 C.ar    1  UNL1       -0.0082
     12 C          -6.0254  -17.8769   22.4192 C.3     1  UNL1        0.0975
     13 C          -4.7229  -18.3628   21.8557 C.3     1  UNL1        0.0224
     14 C          -4.0208  -19.5283   22.4872 C.3     1  UNL1        0.0020
     15 C          -2.7183  -20.0142   21.9238 C.3     1  UNL1        0.0001
     16 C          -2.1179  -19.3346   20.7289 C.3     1  UNL1        0.0000
     17 C          -2.8200  -18.1692   20.0975 C.3     1  UNL1        0.0001
     18 C          -4.1225  -17.6833   20.6609 C.3     1  UNL1        0.0020
     19 C          -8.6079  -19.7185   20.0340 C.3     1  UNL1        0.1552
     20 N          -9.4733  -18.7390   19.2981 N.3     1  UNL1       -0.2879
     21 H          -9.4330  -18.9940   18.3113 H       1  UNL1        0.1238
     22 C         -10.9249  -18.6068   19.6523 C.3     1  UNL1        0.0961
     23 C         -11.3783  -17.4993   20.5566 C.3     1  UNL1        0.1027
     24 O         -10.7649  -16.6959   19.4482 O.3     1  UNL1       -0.3854
     25 C         -11.8342  -18.6872   21.3508 C.3     1  UNL1        0.0283
     26 C         -12.5306  -18.4887   22.6645 C.3     1  UNL1        0.0024
     27 C         -12.7710  -17.1022   23.1839 C.3     1  UNL1        0.0002
     28 C         -12.3151  -15.9142   22.3896 C.3     1  UNL1        0.0024
     29 C         -11.6188  -16.1127   21.0760 C.3     1  UNL1        0.0283
     30 H         -10.4179  -17.2948   18.7686 H       1  UNL1        0.2103
@<TRIPOS>BOND
     1     1     2    2
     2     2    19    1
     3    19    20    1
     4    20    22    1
     5    22    23    1
     6    23    24    1
     7    23    25    1
     8    25    26    1
     9    26    27    1
    10    27    28    1
    11    28    29    1
    12     2     3   am
    13     3     4    1
    14     4     5    1
    15     5     6    1
    16     6     7   ar
    17     7     8   ar
    18     8     9   ar
    19     9    10   ar
    20    10    11   ar
    21    11    12    1
    22    12    13    1
    23    13    14    1
    24    14    15    1
    25    15    16    1
    26    16    17    1
    27    17    18    1
    28    29    23    1
    29    12     3    1
    30    18    13    1
    31    11     6   ar
    32    20    21    1
    33    24    30    1
@<TRIPOS>MOLECULE
*****
 30 33 0 0 0
SMALL
GASTEIGER

@<TRIPOS>ATOM
      1 O          -7.2023  -18.0873   23.5003 O.2     1  UNL1       -0.2734
      2 C          -6.9436  -18.8722   22.2485 C.2     1  UNL1        0.2420
      3 N          -5.6266  -18.7446   21.5419 N.am    1  UNL1       -0.2760
      4 C          -5.3680  -19.5294   20.2901 C.3     1  UNL1        0.0983
      5 C          -4.0510  -19.4019   19.5835 C.3     1  UNL1        0.0476
      6 C          -2.9926  -18.4894   20.1287 C.ar    1  UNL1       -0.0229
      7 C          -1.6756  -18.3619   19.4221 C.ar    1  UNL1       -0.0045
      8 C          -0.6173  -17.4494   19.9674 C.ar    1  UNL1       -0.0003
      9 C          -0.8759  -16.6646   21.2192 C.ar    1  UNL1       -0.0003
     10 C          -2.1929  -16.7921   21.9258 C.ar    1  UNL1       -0.0030
     11 C          -3.2512  -17.7045   21.3806 C.ar    1  UNL1       -0.0082
     12 C          -4.5683  -17.8321   22.0871 C.3     1  UNL1        0.0975
     13 C          -4.8269  -17.0473   23.3390 C.3     1  UNL1        0.0224
     14 C          -5.6639  -15.8036   23.2850 C.3     1  UNL1        0.0020
     15 C          -5.9225  -15.0187   24.5368 C.3     1  UNL1        0.0001
     16 C          -5.3441  -15.4775   25.8426 C.3     1  UNL1        0.0000
     17 C          -4.5071  -16.7211   25.8966 C.3     1  UNL1        0.0001
     18 C          -4.2485  -17.5059   24.6447 C.3     1  UNL1        0.0020
     19 C          -8.0020  -19.7846   21.7032 C.3     1  UNL1        0.1552
     20 N          -8.9166  -19.3062   20.6148 N.3     1  UNL1       -0.2879
     21 H          -8.5865  -19.7275   19.7465 H       1  UNL1        0.1238
     22 C         -10.3889  -19.5814   20.6974 C.3     1  UNL1        0.0961
     23 C         -11.2367  -18.8369   21.6858 C.3     1  UNL1        0.1027
     24 O         -11.1956  -20.1854   22.3415 O.3     1  UNL1       -0.3854
     25 C         -10.9833  -17.7471   20.6868 C.3     1  UNL1        0.0283
     26 C         -11.5636  -16.3810   20.9039 C.3     1  UNL1        0.0024
     27 C         -12.3972  -16.1048   22.1200 C.3     1  UNL1        0.0002
     28 C         -12.6505  -17.1947   23.1190 C.3     1  UNL1        0.0024
     29 C         -12.0703  -18.5607   22.9019 C.3     1  UNL1        0.0283
     30 H         -10.6663  -20.7920   21.8005 H       1  UNL1        0.2103
@<TRIPOS>BOND
     1     1     2    2
     2     2    19    1
     3    19    20    1
     4    20    22    1
     5    22    23    1
     6    23    24    1
     7    23    25    1
     8    25    26    1
     9    26    27    1
    10    27    28    1
    11    28    29    1
    12     2     3   am
    13     3     4    1
    14     4     5    1
    15     5     6    1
    16     6     7   ar
    17     7     8   ar
    18     8     9   ar
    19     9    10   ar
    20    10    11   ar
    21    11    12    1
    22    12    13    1
    23    13    14    1
    24    14    15    1
    25    15    16    1
    26    16    17    1
    27    17    18    1
    28    29    23    1
    29    12     3    1
    30    18    13    1
    31    11     6   ar
    32    20    21    1
    33    24    30    1
@<TRIPOS>MOLECULE
*****
 30 33 0 0 0
SMALL
GASTEIGER

@<TRIPOS>ATOM
      1 O           6.2449   -4.3759   22.2021 O.2     1  UNL1       -0.2734
      2 C           6.0152   -3.6197   23.4769 C.2     1  UNL1        0.2420
      3 N           4.9752   -2.5400   23.5315 N.am    1  UNL1       -0.2760
      4 C           4.7455   -1.7837   24.8064 C.3     1  UNL1        0.0983
      5 C           3.7056   -0.7041   24.8610 C.3     1  UNL1        0.0476
      6 C           2.8954   -0.3807   23.6407 C.ar    1  UNL1       -0.0229
      7 C           1.8555    0.6989   23.6953 C.ar    1  UNL1       -0.0045
      8 C           1.0454    1.0222   22.4751 C.ar    1  UNL1       -0.0003
      9 C           1.2751    0.2660   21.2002 C.ar    1  UNL1       -0.0003
     10 C           2.3150   -0.8136   21.1456 C.ar    1  UNL1       -0.0030
     11 C           3.1251   -1.1370   22.3658 C.ar    1  UNL1       -0.0082
     12 C           4.1651   -2.2167   22.3113 C.3     1  UNL1        0.0975
     13 C           4.3948   -2.9729   21.0364 C.3     1  UNL1        0.0224
     14 C           3.6881   -4.2745   20.7987 C.3     1  UNL1        0.0020
     15 C           3.9178   -5.0308   19.5239 C.3     1  UNL1        0.0001
     16 C           4.8543   -4.4854   18.4867 C.3     1  UNL1        0.0000
     17 C           5.5609   -3.1839   18.7243 C.3     1  UNL1        0.0001
     18 C           5.3312   -2.4276   19.9992 C.3     1  UNL1        0.0020
     19 C           6.8253   -3.9430   24.6972 C.3     1  UNL1        0.1552
     20 N           6.1805   -4.6275   25.8658 N.3     1  UNL1       -0.2879
     21 H           5.3301   -5.0688   25.5159 H       1  UNL1        0.1238
     22 C           6.9321   -5.6788   26.6274 C.3     1  UNL1        0.0961
     23 C           7.0460   -5.5861   28.1201 C.3     1  UNL1        0.1027
     24 O           5.5623   -5.7581   27.9824 O.3     1  UNL1       -0.3854
     25 C           8.4901   -5.4463   27.7395 C.3     1  UNL1        0.0283
     26 C           9.5330   -5.2735   28.8037 C.3     1  UNL1        0.0024
     27 C           9.1316   -5.2405   30.2487 C.3     1  UNL1        0.0002
     28 C           7.6875   -5.3803   30.6294 C.3     1  UNL1        0.0024
     29 C           6.6447   -5.5531   29.5651 C.3     1  UNL1        0.0283
     30 H           5.3314   -5.8341   27.0433 H       1  UNL1        0.2103
@<TRIPOS>BOND
     1     1     2    2
     2     2    19    1
     3    19    20    1
     4    20    22    1
     5    22    23    1
     6    23    24    1
     7    23    25    1
     8    25    26    1
     9    26    27    1
    10    27    28    1
    11    28    29    1
    12     2     3   am
    13     3     4    1
    14     4     5    1
    15     5     6    1
    16     6     7   ar
    17     7     8   ar
    18     8     9   ar
    19     9    10   ar
    20    10    11   ar
    21    11    12    1
    22    12    13    1
    23    13    14    1
    24    14    15    1
    25    15    16    1
    26    16    17    1
    27    17    18    1
    28    29    23    1
    29    12     3    1
    30    18    13    1
    31    11     6   ar
    32    20    21    1
    33    24    30    1
@<TRIPOS>MOLECULE
*****
 30 33 0 0 0
SMALL
GASTEIGER

@<TRIPOS>ATOM
      1 O          -5.5017  -18.1314   22.2410 O.2     1  UNL1       -0.2734
      2 C          -6.2009  -17.0651   23.0310 C.2     1  UNL1        0.2420
      3 N          -7.6997  -17.0286   23.0793 N.am    1  UNL1       -0.2760
      4 C          -8.3989  -15.9623   23.8693 C.3     1  UNL1        0.0983
      5 C          -9.8977  -15.9258   23.9176 C.3     1  UNL1        0.0476
      6 C         -10.6973  -16.9557   23.1760 C.ar    1  UNL1       -0.0229
      7 C         -12.1960  -16.9192   23.2243 C.ar    1  UNL1       -0.0045
      8 C         -12.9956  -17.9491   22.4826 C.ar    1  UNL1       -0.0003
      9 C         -12.2964  -19.0154   21.6926 C.ar    1  UNL1       -0.0003
     10 C         -10.7976  -19.0519   21.6443 C.ar    1  UNL1       -0.0030
     11 C          -9.9981  -18.0220   22.3860 C.ar    1  UNL1       -0.0082
     12 C          -8.4993  -18.0585   22.3377 C.3     1  UNL1        0.0975
     13 C          -7.8001  -19.1248   21.5477 C.3     1  UNL1        0.0224
     14 C          -7.8177  -19.0806   20.0484 C.3     1  UNL1        0.0020
     15 C          -7.1185  -20.1470   19.2584 C.3     1  UNL1        0.0001
     16 C          -6.4017  -21.2574   19.9677 C.3     1  UNL1        0.0000
     17 C          -6.3840  -21.3015   21.4669 C.3     1  UNL1        0.0001
     18 C          -7.0832  -20.2352   22.2569 C.3     1  UNL1        0.0020
     19 C          -5.4014  -16.0352   23.7727 C.3     1  UNL1        0.1552
     20 N          -4.0431  -15.6389   23.2748 N.3     1  UNL1       -0.2879
     21 H          -3.6936  -14.9226   23.9113 H       1  UNL1        0.1238
     22 C          -2.9609  -16.6698   23.1468 C.3     1  UNL1        0.0961
     23 C          -2.4148  -17.0200   21.7944 C.3     1  UNL1        0.1027
     24 O          -2.4024  -15.5229   21.7006 O.3     1  UNL1       -0.3854
     25 C          -2.6169  -18.3953   22.3579 C.3     1  UNL1        0.0283
     26 C          -2.2686  -19.6010   21.5364 C.3     1  UNL1        0.0024
     27 C          -1.7182  -19.4314   20.1513 C.3     1  UNL1        0.0002
     28 C          -1.5161  -18.0560   19.5878 C.3     1  UNL1        0.0024
     29 C          -1.8644  -16.8503   20.4094 C.3     1  UNL1        0.0283
     30 H          -2.7391  -15.1443   22.5278 H       1  UNL1        0.2103
@<TRIPOS>BOND
     1     1     2    2
     2     2    19    1
     3    19    20    1
     4    20    22    1
     5    22    23    1
     6    23    24    1
     7    23    25    1
     8    25    26    1
     9    26    27    1
    10    27    28    1
    11    28    29    1
    12     2     3   am
    13     3     4    1
    14     4     5    1
    15     5     6    1
    16     6     7   ar
    17     7     8   ar
    18     8     9   ar
    19     9    10   ar
    20    10    11   ar
    21    11    12    1
    22    12    13    1
    23    13    14    1
    24    14    15    1
    25    15    16    1
    26    16    17    1
    27    17    18    1
    28    29    23    1
    29    12     3    1
    30    18    13    1
    31    11     6   ar
    32    20    21    1
    33    24    30    1
@<TRIPOS>MOLECULE
*****
 30 33 0 0 0
SMALL
GASTEIGER

@<TRIPOS>ATOM
      1 O         -12.4543   -3.1269   18.9683 O.2     1  UNL1       -0.2734
      2 C         -13.8802   -3.2100   19.4265 C.2     1  UNL1        0.2420
      3 N         -14.6369   -4.4984   19.2933 N.am    1  UNL1       -0.2760
      4 C         -16.0628   -4.5815   19.7515 C.3     1  UNL1        0.0983
      5 C         -16.8194   -5.8698   19.6184 C.3     1  UNL1        0.0476
      6 C         -16.1502   -7.0750   19.0271 C.ar    1  UNL1       -0.0229
      7 C         -16.9069   -8.3633   18.8940 C.ar    1  UNL1       -0.0045
      8 C         -16.2376   -9.5685   18.3027 C.ar    1  UNL1       -0.0003
      9 C         -14.8117   -9.4854   17.8446 C.ar    1  UNL1       -0.0003
     10 C         -14.0551   -8.1971   17.9777 C.ar    1  UNL1       -0.0030
     11 C         -14.7243   -6.9919   18.5689 C.ar    1  UNL1       -0.0082
     12 C         -13.9676   -5.7036   18.7021 C.3     1  UNL1        0.0975
     13 C         -12.5417   -5.6205   18.2439 C.3     1  UNL1        0.0224
     14 C         -11.4276   -5.9277   19.2002 C.3     1  UNL1        0.0020
     15 C         -10.0017   -5.8446   18.7420 C.3     1  UNL1        0.0001
     16 C          -9.6900   -5.4542   17.3276 C.3     1  UNL1        0.0000
     17 C         -10.8041   -5.1470   16.3714 C.3     1  UNL1        0.0001
     18 C         -12.2300   -5.2301   16.8296 C.3     1  UNL1        0.0020
     19 C         -14.5495   -2.0049   20.0177 C.3     1  UNL1        0.1552
     20 N         -15.0794   -0.9257   19.1208 N.3     1  UNL1       -0.2879
     21 H         -15.0082   -1.2756   18.1654 H       1  UNL1        0.1238
     22 C         -16.4833   -0.4271   19.2959 C.3     1  UNL1        0.0961
     23 C         -16.7715    0.6755   20.2711 C.3     1  UNL1        0.1027
     24 O         -17.6261   -0.4133   20.8490 O.3     1  UNL1       -0.3854
     25 C         -15.8167    1.3814   19.3544 C.3     1  UNL1        0.0283
     26 C         -15.4470    2.8118   19.6137 C.3     1  UNL1        0.0024
     27 C         -16.0320    3.5363   20.7897 C.3     1  UNL1        0.0002
     28 C         -16.9867    2.8305   21.7063 C.3     1  UNL1        0.0024
     29 C         -17.3565    1.4001   21.4470 C.3     1  UNL1        0.0283
     30 H         -17.5401   -1.2136   20.3077 H       1  UNL1        0.2103
@<TRIPOS>BOND
     1     1     2    2
     2     2    19    1
     3    19    20    1
     4    20    22    1
     5    22    23    1
     6    23    24    1
     7    23    25    1
     8    25    26    1
     9    26    27    1
    10    27    28    1
    11    28    29    1
    12     2     3   am
    13     3     4    1
    14     4     5    1
    15     5     6    1
    16     6     7   ar
    17     7     8   ar
    18     8     9   ar
    19     9    10   ar
    20    10    11   ar
    21    11    12    1
    22    12    13    1
    23    13    14    1
    24    14    15    1
    25    15    16    1
    26    16    17    1
    27    17    18    1
    28    29    23    1
    29    12     3    1
    30    18    13    1
    31    11     6   ar
    32    20    21    1
    33    24    30    1
@<TRIPOS>MOLECULE
*****
 30 33 0 0 0
SMALL
GASTEIGER

@<TRIPOS>ATOM
      1 O           6.2986   -1.2431   21.1900 O.2     1  UNL1       -0.2734
      2 C           7.1291   -2.3258   20.5672 C.2     1  UNL1        0.2420
      3 N           7.5187   -3.5296   21.3730 N.am    1  UNL1       -0.2760
      4 C           8.3492   -4.6123   20.7501 C.3     1  UNL1        0.0983
      5 C           8.7387   -5.8161   21.5558 C.3     1  UNL1        0.0476
      6 C           8.2977   -5.9372   22.9845 C.ar    1  UNL1       -0.0229
      7 C           8.6872   -7.1409   23.7902 C.ar    1  UNL1       -0.0045
      8 C           8.2462   -7.2620   25.2187 C.ar    1  UNL1       -0.0003
      9 C           7.4157   -6.1793   25.8416 C.ar    1  UNL1       -0.0003
     10 C           7.0262   -4.9755   25.0359 C.ar    1  UNL1       -0.0030
     11 C           7.4672   -4.8545   23.6073 C.ar    1  UNL1       -0.0082
     12 C           7.0777   -3.6507   22.8015 C.3     1  UNL1        0.0975
     13 C           6.2471   -2.5680   23.4244 C.3     1  UNL1        0.0224
     14 C           6.9132   -1.4215   24.1258 C.3     1  UNL1        0.0020
     15 C           6.0827   -0.3388   24.7487 C.3     1  UNL1        0.0001
     16 C           4.5860   -0.4025   24.6701 C.3     1  UNL1        0.0000
     17 C           3.9200   -1.5490   23.9686 C.3     1  UNL1        0.0001
     18 C           4.7506   -2.6317   23.3458 C.3     1  UNL1        0.0020
     19 C           7.5702   -2.2048   19.1386 C.3     1  UNL1        0.1552
     20 N           6.5754   -2.3782   18.0294 N.3     1  UNL1       -0.2879
     21 H           6.8800   -3.1846   17.4842 H       1  UNL1        0.1238
     22 C           5.1258   -2.5940   18.3489 C.3     1  UNL1        0.0961
     23 C           4.1464   -1.4697   18.1857 C.3     1  UNL1        0.1027
     24 O           4.9889   -1.2608   16.9623 O.3     1  UNL1       -0.3854
     25 C           3.6440   -2.0690   19.4656 C.3     1  UNL1        0.0283
     26 C           2.4548   -1.4716   20.1576 C.3     1  UNL1        0.0024
     27 C           1.7680   -0.2747   19.5695 C.3     1  UNL1        0.0002
     28 C           2.2703    0.3247   18.2895 C.3     1  UNL1        0.0024
     29 C           3.4595   -0.2728   17.5976 C.3     1  UNL1        0.0283
     30 H           5.6863   -1.9343   16.9312 H       1  UNL1        0.2103
@<TRIPOS>BOND
     1     1     2    2
     2     2    19    1
     3    19    20    1
     4    20    22    1
     5    22    23    1
     6    23    24    1
     7    23    25    1
     8    25    26    1
     9    26    27    1
    10    27    28    1
    11    28    29    1
    12     2     3   am
    13     3     4    1
    14     4     5    1
    15     5     6    1
    16     6     7   ar
    17     7     8   ar
    18     8     9   ar
    19     9    10   ar
    20    10    11   ar
    21    11    12    1
    22    12    13    1
    23    13    14    1
    24    14    15    1
    25    15    16    1
    26    16    17    1
    27    17    18    1
    28    29    23    1
    29    12     3    1
    30    18    13    1
    31    11     6   ar
    32    20    21    1
    33    24    30    1
