@<TRIPOS>MOLECULE
*****
 29 33 0 0 0
SMALL
GASTEIGER

@<TRIPOS>ATOM
      1 C         -10.3834  -17.0987   23.5715 C.3     1  UNL1        0.0627
      2 C         -11.7807  -16.5616   23.4765 C.3     1  UNL1        0.0107
      3 C         -12.6591  -16.9559   22.3264 C.3     1  UNL1        0.0060
      4 C         -12.1402  -17.8872   21.2712 C.3     1  UNL1        0.0343
      5 C         -10.7429  -18.4243   21.3661 C.ar    1  UNL1        0.0237
      6 S          -9.9622  -19.3524   20.4835 S.2     1  UNL1       -0.0561
      7 C          -8.6012  -19.5317   21.0882 C.ar    1  UNL1        0.1629
      8 N          -8.5408  -18.7145   22.3445 N.ar    1  UNL1       -0.2284
      9 C          -9.8645  -18.0300   22.5163 C.ar    1  UNL1        0.0666
     10 C          -7.7480  -15.9160   27.0220 C.ar    1  UNL1       -0.0000
     11 C          -7.7256  -15.1168   25.7529 C.ar    1  UNL1       -0.0003
     12 C          -8.6041  -15.5111   24.6027 C.ar    1  UNL1       -0.0039
     13 C          -9.5049  -16.7045   24.7217 C.ar    1  UNL1       -0.0169
     14 C          -9.5273  -17.5037   25.9908 C.ar    1  UNL1       -0.0039
     15 C          -8.6489  -17.1095   27.1410 C.ar    1  UNL1       -0.0003
     16 N          -7.4949  -20.3795   20.5338 N.pl3   1  UNL1       -0.2927
     17 H          -7.6873  -21.2883   20.2076 H       1  UNL1        0.1541
     18 C          -6.0954  -19.8428   20.4763 C.ar    1  UNL1        0.0497
     19 C          -5.1278  -20.1516   21.5801 C.ar    1  UNL1        0.0147
     20 C          -3.7283  -19.6149   21.5227 C.ar    1  UNL1        0.0013
     21 C          -3.2964  -18.7692   20.3615 C.ar    1  UNL1        0.0017
     22 C          -4.2641  -18.4603   19.2577 C.ar    1  UNL1        0.0013
     23 C          -5.6636  -18.9971   19.3152 C.ar    1  UNL1        0.0147
     24 C          -1.8970  -18.2324   20.3041 C.ar    1  UNL1        0.0226
     25 C          -1.6357  -16.7858   20.6026 C.ar    1  UNL1        0.0241
     26 C          -0.2362  -16.2490   20.5452 C.ar    1  UNL1        0.1222
     27 N           0.9020  -17.1589   20.1892 N.ar    1  UNL1       -0.1464
     28 N           0.6408  -18.6055   19.8908 N.ar    1  UNL1       -0.1464
     29 C          -0.7588  -19.1422   19.9482 C.ar    1  UNL1        0.1221
@<TRIPOS>BOND
     1    10    11   ar
     2    11    12   ar
     3    12    13   ar
     4    13     1    1
     5     1     2    1
     6     2     3    1
     7     3     4    1
     8     4     5    1
     9     5     6   ar
    10     6     7   ar
    11     7    16    1
    12    16    18    1
    13    18    19   ar
    14    19    20   ar
    15    20    21   ar
    16    21    24    1
    17    24    25   ar
    18    25    26   ar
    19    26    27   ar
    20    27    28   ar
    21    28    29   ar
    22    21    22   ar
    23    22    23   ar
    24     7     8   ar
    25     8     9   ar
    26    13    14   ar
    27    14    15   ar
    28    15    10   ar
    29     9     1    1
    30     9     5   ar
    31    23    18   ar
    32    29    24   ar
    33    16    17    1
@<TRIPOS>MOLECULE
*****
 29 33 0 0 0
SMALL
GASTEIGER

@<TRIPOS>ATOM
      1 C          -3.1086    3.5539   23.9230 C.3     1  UNL1        0.0627
      2 C          -4.5872    3.4762   24.1629 C.3     1  UNL1        0.0107
      3 C          -5.5318    3.3890   23.0010 C.3     1  UNL1        0.0060
      4 C          -4.9979    3.3794   21.5993 C.3     1  UNL1        0.0343
      5 C          -3.5192    3.4572   21.3595 C.ar    1  UNL1        0.0237
      6 S          -2.7060    3.4676   20.0991 S.2     1  UNL1       -0.0561
      7 C          -1.2587    3.5614   20.4820 C.ar    1  UNL1        0.1629
      8 N          -1.1775    3.6088   21.9791 N.ar    1  UNL1       -0.2284
      9 C          -2.5746    3.5444   22.5213 C.ar    1  UNL1        0.0666
     10 C          -0.2744    3.8157   27.4087 C.ar    1  UNL1       -0.0000
     11 C          -1.2451    4.9287   27.1461 C.ar    1  UNL1       -0.0003
     12 C          -2.1898    4.8414   25.9842 C.ar    1  UNL1       -0.0039
     13 C          -2.1638    3.6412   25.0849 C.ar    1  UNL1       -0.0169
     14 C          -1.1932    2.5282   25.3475 C.ar    1  UNL1       -0.0039
     15 C          -0.2485    2.6154   26.5093 C.ar    1  UNL1       -0.0003
     16 N          -0.0967    3.6007   19.5342 N.pl3   1  UNL1       -0.2927
     17 H           0.0924    4.4193   19.0209 H       1  UNL1        0.1541
     18 C           0.7773    2.3930   19.3686 C.ar    1  UNL1        0.0497
     19 C           2.0428    2.4869   18.5688 C.ar    1  UNL1        0.0147
     20 C           2.9167    1.2792   18.4031 C.ar    1  UNL1        0.0013
     21 C           2.5252   -0.0227   19.0372 C.ar    1  UNL1        0.0017
     22 C           1.2597   -0.1166   19.8370 C.ar    1  UNL1        0.0013
     23 C           0.3857    1.0912   20.0027 C.ar    1  UNL1        0.0147
     24 C           3.3991   -1.2304   18.8715 C.ar    1  UNL1        0.0226
     25 C           3.1751   -2.4415   19.7278 C.ar    1  UNL1        0.0241
     26 C           4.0490   -3.6492   19.5621 C.ar    1  UNL1        0.1222
     27 N           5.1470   -3.6460   18.5401 N.ar    1  UNL1       -0.1464
     28 N           5.3711   -2.4349   17.6839 N.ar    1  UNL1       -0.1464
     29 C           4.4970   -1.2271   17.8496 C.ar    1  UNL1        0.1221
@<TRIPOS>BOND
     1    10    11   ar
     2    11    12   ar
     3    12    13   ar
     4    13     1    1
     5     1     2    1
     6     2     3    1
     7     3     4    1
     8     4     5    1
     9     5     6   ar
    10     6     7   ar
    11     7    16    1
    12    16    18    1
    13    18    19   ar
    14    19    20   ar
    15    20    21   ar
    16    21    24    1
    17    24    25   ar
    18    25    26   ar
    19    26    27   ar
    20    27    28   ar
    21    28    29   ar
    22    21    22   ar
    23    22    23   ar
    24     7     8   ar
    25     8     9   ar
    26    13    14   ar
    27    14    15   ar
    28    15    10   ar
    29     9     1    1
    30     9     5   ar
    31    23    18   ar
    32    29    24   ar
    33    16    17    1
@<TRIPOS>MOLECULE
*****
 29 33 0 0 0
SMALL
GASTEIGER

@<TRIPOS>ATOM
      1 C          -1.9236    3.2009   25.9853 C.3     1  UNL1        0.0627
      2 C          -3.2856    3.5840   26.4834 C.3     1  UNL1        0.0107
      3 C          -4.3429    4.0221   25.5137 C.3     1  UNL1        0.0060
      4 C          -4.0381    4.0770   24.0460 C.3     1  UNL1        0.0343
      5 C          -2.6761    3.6938   23.5480 C.ar    1  UNL1        0.0237
      6 S          -2.0876    3.6489   22.1690 S.2     1  UNL1       -0.0561
      7 C          -0.6666    3.1831   22.2864 C.ar    1  UNL1        0.1629
      8 N          -0.3769    2.9401   23.7380 N.ar    1  UNL1       -0.2284
      9 C          -1.6189    3.2558   24.5177 C.ar    1  UNL1        0.0666
     10 C           1.2483    1.8866   28.8943 C.ar    1  UNL1       -0.0000
     11 C           1.0210    3.3476   28.6421 C.ar    1  UNL1       -0.0003
     12 C          -0.0364    3.7857   27.6724 C.ar    1  UNL1       -0.0039
     13 C          -0.8663    2.7628   26.9550 C.ar    1  UNL1       -0.0169
     14 C          -0.6390    1.3017   27.2072 C.ar    1  UNL1       -0.0039
     15 C           0.4183    0.8636   28.1768 C.ar    1  UNL1       -0.0003
     16 N           0.2957    2.9936   21.1514 N.pl3   1  UNL1       -0.2927
     17 H           0.4251    3.7117   20.4906 H       1  UNL1        0.1541
     18 C           1.0610    1.7099   21.0234 C.ar    1  UNL1        0.0497
     19 C           2.3993    1.5653   21.6853 C.ar    1  UNL1        0.0147
     20 C           3.1645    0.2815   21.5573 C.ar    1  UNL1        0.0013
     21 C           2.5915   -0.8577   20.7673 C.ar    1  UNL1        0.0017
     22 C           1.2532   -0.7131   20.1055 C.ar    1  UNL1        0.0013
     23 C           0.4879    0.5707   20.2335 C.ar    1  UNL1        0.0147
     24 C           3.3567   -2.1414   20.6393 C.ar    1  UNL1        0.0226
     25 C           3.3425   -2.8970   19.3436 C.ar    1  UNL1        0.0241
     26 C           4.1078   -4.1807   19.2156 C.ar    1  UNL1        0.1222
     27 N           4.8873   -4.7089   20.3833 N.ar    1  UNL1       -0.1464
     28 N           4.9015   -3.9533   21.6790 N.ar    1  UNL1       -0.1464
     29 C           4.1362   -2.6695   21.8070 C.ar    1  UNL1        0.1221
@<TRIPOS>BOND
     1    10    11   ar
     2    11    12   ar
     3    12    13   ar
     4    13     1    1
     5     1     2    1
     6     2     3    1
     7     3     4    1
     8     4     5    1
     9     5     6   ar
    10     6     7   ar
    11     7    16    1
    12    16    18    1
    13    18    19   ar
    14    19    20   ar
    15    20    21   ar
    16    21    24    1
    17    24    25   ar
    18    25    26   ar
    19    26    27   ar
    20    27    28   ar
    21    28    29   ar
    22    21    22   ar
    23    22    23   ar
    24     7     8   ar
    25     8     9   ar
    26    13    14   ar
    27    14    15   ar
    28    15    10   ar
    29     9     1    1
    30     9     5   ar
    31    23    18   ar
    32    29    24   ar
    33    16    17    1
@<TRIPOS>MOLECULE
*****
 29 33 0 0 0
SMALL
GASTEIGER

@<TRIPOS>ATOM
      1 C          -3.4918    3.8438   24.8695 C.3     1  UNL1        0.0627
      2 C          -3.1463    3.7704   26.3273 C.3     1  UNL1        0.0107
      3 C          -1.7509    3.4189   26.7505 C.3     1  UNL1        0.0060
      4 C          -0.7009    3.1409   25.7160 C.3     1  UNL1        0.0343
      5 C          -1.0464    3.2143   24.2582 C.ar    1  UNL1        0.0237
      6 S          -0.2284    2.9934   23.0205 S.2     1  UNL1       -0.0561
      7 C          -1.1182    3.2083   21.8322 C.ar    1  UNL1        0.1629
      8 N          -2.4862    3.5621   22.3355 N.ar    1  UNL1       -0.2284
      9 C          -2.4418    3.5658   23.8349 C.ar    1  UNL1        0.0666
     10 C          -7.6782    4.8982   23.5994 C.ar    1  UNL1       -0.0000
     11 C          -7.1162    5.4607   24.8713 C.ar    1  UNL1       -0.0003
     12 C          -5.7207    5.1093   25.2947 C.ar    1  UNL1       -0.0039
     13 C          -4.8873    4.1953   24.4461 C.ar    1  UNL1       -0.0169
     14 C          -5.4493    3.6328   23.1742 C.ar    1  UNL1       -0.0039
     15 C          -6.8447    3.9843   22.7508 C.ar    1  UNL1       -0.0003
     16 N          -0.7114    3.0902   20.3932 N.pl3   1  UNL1       -0.2927
     17 H          -1.1189    3.6779   19.7166 H       1  UNL1        0.1541
     18 C           0.3161    2.0766   19.9851 C.ar    1  UNL1        0.0497
     19 C           0.1674    0.6453   20.4087 C.ar    1  UNL1        0.0147
     20 C           1.1950   -0.3683   20.0006 C.ar    1  UNL1        0.0013
     21 C           2.3714    0.0493   19.1688 C.ar    1  UNL1        0.0017
     22 C           2.5201    1.4805   18.7452 C.ar    1  UNL1        0.0013
     23 C           1.4924    2.4942   19.1533 C.ar    1  UNL1        0.0147
     24 C           3.3989   -0.9643   18.7607 C.ar    1  UNL1        0.0226
     25 C           3.3774   -2.3383   19.3622 C.ar    1  UNL1        0.0241
     26 C           4.4049   -3.3519   18.9541 C.ar    1  UNL1        0.1222
     27 N           5.4542   -2.9916   17.9444 N.ar    1  UNL1       -0.1464
     28 N           5.4758   -1.6176   17.3429 N.ar    1  UNL1       -0.1464
     29 C           4.4481   -0.6040   17.7511 C.ar    1  UNL1        0.1221
@<TRIPOS>BOND
     1    10    11   ar
     2    11    12   ar
     3    12    13   ar
     4    13     1    1
     5     1     2    1
     6     2     3    1
     7     3     4    1
     8     4     5    1
     9     5     6   ar
    10     6     7   ar
    11     7    16    1
    12    16    18    1
    13    18    19   ar
    14    19    20   ar
    15    20    21   ar
    16    21    24    1
    17    24    25   ar
    18    25    26   ar
    19    26    27   ar
    20    27    28   ar
    21    28    29   ar
    22    21    22   ar
    23    22    23   ar
    24     7     8   ar
    25     8     9   ar
    26    13    14   ar
    27    14    15   ar
    28    15    10   ar
    29     9     1    1
    30     9     5   ar
    31    23    18   ar
    32    29    24   ar
    33    16    17    1
@<TRIPOS>MOLECULE
*****
 29 33 0 0 0
SMALL
GASTEIGER

@<TRIPOS>ATOM
      1 C           3.5622   -1.6817   21.4070 C.3     1  UNL1        0.0627
      2 C           4.3217   -2.9197   21.0321 C.3     1  UNL1        0.0107
      3 C           5.0476   -3.7022   22.0859 C.3     1  UNL1        0.0060
      4 C           5.0140   -3.2468   23.5147 C.3     1  UNL1        0.0343
      5 C           4.2546   -2.0088   23.8897 C.ar    1  UNL1        0.0237
      6 S           4.0434   -1.3208   25.2057 S.2     1  UNL1       -0.0561
      7 C           3.1870   -0.1130   24.9652 C.ar    1  UNL1        0.1629
      8 N           2.8689   -0.0545   23.5005 N.ar    1  UNL1       -0.2284
      9 C           3.5287   -1.2263   22.8358 C.ar    1  UNL1        0.0666
     10 C           1.3844    0.6661   18.2455 C.ar    1  UNL1       -0.0000
     11 C           2.8140    0.2659   18.0310 C.ar    1  UNL1       -0.0003
     12 C           3.5400   -0.5167   19.0848 C.ar    1  UNL1       -0.0039
     13 C           2.8363   -0.8991   20.3531 C.ar    1  UNL1       -0.0169
     14 C           1.4067   -0.4989   20.5676 C.ar    1  UNL1       -0.0039
     15 C           0.6807    0.2837   19.5138 C.ar    1  UNL1       -0.0003
     16 N           2.7292    0.8647   26.0067 N.pl3   1  UNL1       -0.2927
     17 H           3.3227    1.0993   26.7563 H       1  UNL1        0.1541
     18 C           1.3672    1.4850   25.9059 C.ar    1  UNL1        0.0497
     19 C           0.3985    1.3564   27.0439 C.ar    1  UNL1        0.0147
     20 C          -0.9635    1.9767   26.9431 C.ar    1  UNL1        0.0013
     21 C          -1.3569    2.7255   25.7043 C.ar    1  UNL1        0.0017
     22 C          -0.3882    2.8540   24.5663 C.ar    1  UNL1        0.0013
     23 C           0.9739    2.2337   24.6671 C.ar    1  UNL1        0.0147
     24 C          -2.7189    3.3457   25.6035 C.ar    1  UNL1        0.0226
     25 C          -3.3295    3.5999   24.2572 C.ar    1  UNL1        0.0241
     26 C          -4.6915    4.2201   24.1564 C.ar    1  UNL1        0.1222
     27 N          -5.4430    4.5862   25.4020 N.ar    1  UNL1       -0.1464
     28 N          -4.8324    4.3320   26.7483 N.ar    1  UNL1       -0.1464
     29 C          -3.4703    3.7117   26.8490 C.ar    1  UNL1        0.1221
@<TRIPOS>BOND
     1    10    11   ar
     2    11    12   ar
     3    12    13   ar
     4    13     1    1
     5     1     2    1
     6     2     3    1
     7     3     4    1
     8     4     5    1
     9     5     6   ar
    10     6     7   ar
    11     7    16    1
    12    16    18    1
    13    18    19   ar
    14    19    20   ar
    15    20    21   ar
    16    21    24    1
    17    24    25   ar
    18    25    26   ar
    19    26    27   ar
    20    27    28   ar
    21    28    29   ar
    22    21    22   ar
    23    22    23   ar
    24     7     8   ar
    25     8     9   ar
    26    13    14   ar
    27    14    15   ar
    28    15    10   ar
    29     9     1    1
    30     9     5   ar
    31    23    18   ar
    32    29    24   ar
    33    16    17    1
@<TRIPOS>MOLECULE
*****
 29 33 0 0 0
SMALL
GASTEIGER

@<TRIPOS>ATOM
      1 C          -4.4389    3.8871   22.3249 C.3     1  UNL1        0.0627
      2 C          -4.9919    3.9628   23.7172 C.3     1  UNL1        0.0107
      3 C          -4.0821    3.7838   24.8962 C.3     1  UNL1        0.0060
      4 C          -2.6193    3.5291   24.6830 C.3     1  UNL1        0.0343
      5 C          -2.0664    3.4534   23.2908 C.ar    1  UNL1        0.0237
      6 S          -0.6784    3.2166   22.7735 S.2     1  UNL1       -0.0561
      7 C          -0.7304    3.2493   21.2748 C.ar    1  UNL1        0.1629
      8 N          -2.1505    3.5062   20.8657 N.ar    1  UNL1       -0.2284
      9 C          -2.9761    3.6323   22.1117 C.ar    1  UNL1        0.0666
     10 C          -7.1682    4.4241   18.7875 C.ar    1  UNL1       -0.0000
     11 C          -6.1399    3.3321   18.7824 C.ar    1  UNL1       -0.0003
     12 C          -5.2301    3.1531   19.9616 C.ar    1  UNL1       -0.0039
     13 C          -5.3487    4.0661   21.1458 C.ar    1  UNL1       -0.0169
     14 C          -6.3770    5.1581   21.1509 C.ar    1  UNL1       -0.0039
     15 C          -7.2868    5.3371   19.9718 C.ar    1  UNL1       -0.0003
     16 N           0.4334    3.0584   20.3478 N.pl3   1  UNL1       -0.2927
     17 H           0.7008    3.7833   19.7376 H       1  UNL1        0.1541
     18 C           1.1899    1.7632   20.3506 C.ar    1  UNL1        0.0497
     19 C           2.6688    1.7589   20.6016 C.ar    1  UNL1        0.0147
     20 C           3.4253    0.4637   20.6043 C.ar    1  UNL1        0.0013
     21 C           2.7030   -0.8273   20.3561 C.ar    1  UNL1        0.0017
     22 C           1.2241   -0.8230   20.1050 C.ar    1  UNL1        0.0013
     23 C           0.4676    0.4723   20.1023 C.ar    1  UNL1        0.0147
     24 C           3.4595   -2.1225   20.3588 C.ar    1  UNL1        0.0226
     25 C           3.4752   -2.9846   19.1314 C.ar    1  UNL1        0.0241
     26 C           4.2317   -4.2798   19.1341 C.ar    1  UNL1        0.1222
     27 N           4.9725   -4.7130   20.3644 N.ar    1  UNL1       -0.1464
     28 N           4.9568   -3.8510   21.5919 N.ar    1  UNL1       -0.1464
     29 C           4.2003   -2.5557   21.5890 C.ar    1  UNL1        0.1221
@<TRIPOS>BOND
     1    10    11   ar
     2    11    12   ar
     3    12    13   ar
     4    13     1    1
     5     1     2    1
     6     2     3    1
     7     3     4    1
     8     4     5    1
     9     5     6   ar
    10     6     7   ar
    11     7    16    1
    12    16    18    1
    13    18    19   ar
    14    19    20   ar
    15    20    21   ar
    16    21    24    1
    17    24    25   ar
    18    25    26   ar
    19    26    27   ar
    20    27    28   ar
    21    28    29   ar
    22    21    22   ar
    23    22    23   ar
    24     7     8   ar
    25     8     9   ar
    26    13    14   ar
    27    14    15   ar
    28    15    10   ar
    29     9     1    1
    30     9     5   ar
    31    23    18   ar
    32    29    24   ar
    33    16    17    1
@<TRIPOS>MOLECULE
*****
 29 33 0 0 0
SMALL
GASTEIGER

@<TRIPOS>ATOM
      1 C          -4.1874    3.9047   21.7772 C.3     1  UNL1        0.0627
      2 C          -4.4741    3.6683   23.2304 C.3     1  UNL1        0.0107
      3 C          -3.3457    3.4161   24.1860 C.3     1  UNL1        0.0060
      4 C          -1.9308    3.4003   23.6883 C.3     1  UNL1        0.0343
      5 C          -1.6442    3.6366   22.2351 C.ar    1  UNL1        0.0237
      6 S          -0.3612    3.6798   21.4591 S.2     1  UNL1       -0.0561
      7 C          -0.6966    3.9586   20.0239 C.ar    1  UNL1        0.1629
      8 N          -2.1869    4.0879   19.9129 N.ar    1  UNL1       -0.2284
      9 C          -2.7725    3.8888   21.2795 C.ar    1  UNL1        0.0666
     10 C          -7.5725    4.6614   18.9102 C.ar    1  UNL1       -0.0000
     11 C          -6.6496    3.4994   18.6910 C.ar    1  UNL1       -0.0003
     12 C          -5.5213    3.2471   19.6467 C.ar    1  UNL1       -0.0039
     13 C          -5.3158    4.1569   20.8215 C.ar    1  UNL1       -0.0169
     14 C          -6.2387    5.3189   21.0406 C.ar    1  UNL1       -0.0039
     15 C          -7.3670    5.5711   20.0851 C.ar    1  UNL1       -0.0003
     16 N           0.2858    4.0859   18.8975 N.pl3   1  UNL1       -0.2927
     17 H           0.2464    4.8640   18.2956 H       1  UNL1        0.1541
     18 C           1.3282    3.0279   18.6884 C.ar    1  UNL1        0.0497
     19 C           2.7835    3.3828   18.7673 C.ar    1  UNL1        0.0147
     20 C           3.8259    2.3247   18.5582 C.ar    1  UNL1        0.0013
     21 C           3.4131    0.9116   18.2700 C.ar    1  UNL1        0.0017
     22 C           1.9578    0.5568   18.1910 C.ar    1  UNL1        0.0013
     23 C           0.9154    1.6149   18.4002 C.ar    1  UNL1        0.0147
     24 C           4.4555   -0.1464   18.0608 C.ar    1  UNL1        0.0226
     25 C           4.2782   -1.5050   18.6714 C.ar    1  UNL1        0.0241
     26 C           5.3207   -2.5631   18.4622 C.ar    1  UNL1        0.1222
     27 N           6.5404   -2.2626   17.6424 N.ar    1  UNL1       -0.1464
     28 N           6.7177   -0.9040   17.0319 N.ar    1  UNL1       -0.1464
     29 C           5.6752    0.1541   17.2411 C.ar    1  UNL1        0.1221
@<TRIPOS>BOND
     1    10    11   ar
     2    11    12   ar
     3    12    13   ar
     4    13     1    1
     5     1     2    1
     6     2     3    1
     7     3     4    1
     8     4     5    1
     9     5     6   ar
    10     6     7   ar
    11     7    16    1
    12    16    18    1
    13    18    19   ar
    14    19    20   ar
    15    20    21   ar
    16    21    24    1
    17    24    25   ar
    18    25    26   ar
    19    26    27   ar
    20    27    28   ar
    21    28    29   ar
    22    21    22   ar
    23    22    23   ar
    24     7     8   ar
    25     8     9   ar
    26    13    14   ar
    27    14    15   ar
    28    15    10   ar
    29     9     1    1
    30     9     5   ar
    31    23    18   ar
    32    29    24   ar
    33    16    17    1
@<TRIPOS>MOLECULE
*****
 29 33 0 0 0
SMALL
GASTEIGER

@<TRIPOS>ATOM
      1 C           3.2647   -2.1273   19.9781 C.3     1  UNL1        0.0627
      2 C           3.2453   -3.2923   19.0335 C.3     1  UNL1        0.0107
      3 C           3.9885   -4.5491   19.3773 C.3     1  UNL1        0.0060
      4 C           4.7511   -4.6408   20.6657 C.3     1  UNL1        0.0343
      5 C           4.7705   -3.4758   21.6103 C.ar    1  UNL1        0.0237
      6 S           5.4296   -3.2748   22.9427 S.2     1  UNL1       -0.0561
      7 C           5.0938   -1.8938   23.4223 C.ar    1  UNL1        0.1629
      8 N           4.2271   -1.2413   22.3864 N.ar    1  UNL1       -0.2284
      9 C           4.0274   -2.2191   21.2665 C.ar    1  UNL1        0.0666
     10 C           1.0351    1.6431   18.9469 C.ar    1  UNL1       -0.0000
     11 C           2.3297    1.3254   18.2591 C.ar    1  UNL1       -0.0003
     12 C           3.0729    0.0685   18.6028 C.ar    1  UNL1       -0.0039
     13 C           2.5215   -0.8705   19.6344 C.ar    1  UNL1       -0.0169
     14 C           1.2269   -0.5528   20.3222 C.ar    1  UNL1       -0.0039
     15 C           0.4837    0.7039   19.9785 C.ar    1  UNL1       -0.0003
     16 N           5.5453   -1.2741   24.7116 N.pl3   1  UNL1       -0.2927
     17 H           6.5060   -1.1522   24.8893 H       1  UNL1        0.1541
     18 C           4.5333   -0.8403   25.7302 C.ar    1  UNL1        0.0497
     19 C           3.5447    0.2365   25.3938 C.ar    1  UNL1        0.0147
     20 C           2.5326    0.6702   26.4124 C.ar    1  UNL1        0.0013
     21 C           2.5091    0.0272   27.7674 C.ar    1  UNL1        0.0017
     22 C           3.4977   -1.0496   28.1038 C.ar    1  UNL1        0.0013
     23 C           4.5098   -1.4834   27.0852 C.ar    1  UNL1        0.0147
     24 C           1.4971    0.4610   28.7860 C.ar    1  UNL1        0.0226
     25 C           1.8488    1.5192   29.7893 C.ar    1  UNL1        0.0241
     26 C           0.8368    1.9530   30.8079 C.ar    1  UNL1        0.1222
     27 N          -0.5271    1.3286   30.8232 N.ar    1  UNL1       -0.1464
     28 N          -0.8788    0.2705   29.8199 N.ar    1  UNL1       -0.1464
     29 C           0.1333   -0.1633   28.8013 C.ar    1  UNL1        0.1221
@<TRIPOS>BOND
     1    10    11   ar
     2    11    12   ar
     3    12    13   ar
     4    13     1    1
     5     1     2    1
     6     2     3    1
     7     3     4    1
     8     4     5    1
     9     5     6   ar
    10     6     7   ar
    11     7    16    1
    12    16    18    1
    13    18    19   ar
    14    19    20   ar
    15    20    21   ar
    16    21    24    1
    17    24    25   ar
    18    25    26   ar
    19    26    27   ar
    20    27    28   ar
    21    28    29   ar
    22    21    22   ar
    23    22    23   ar
    24     7     8   ar
    25     8     9   ar
    26    13    14   ar
    27    14    15   ar
    28    15    10   ar
    29     9     1    1
    30     9     5   ar
    31    23    18   ar
    32    29    24   ar
    33    16    17    1
@<TRIPOS>MOLECULE
*****
 29 33 0 0 0
SMALL
GASTEIGER

@<TRIPOS>ATOM
      1 C           4.5466    1.7473   38.3660 C.3     1  UNL1        0.0627
      2 C           5.5206    2.4427   39.2702 C.3     1  UNL1        0.0107
      3 C           6.9848    2.4331   38.9445 C.3     1  UNL1        0.0060
      4 C           7.4749    1.7280   37.7146 C.3     1  UNL1        0.0343
      5 C           6.5009    1.0326   36.8104 C.ar    1  UNL1        0.0237
      6 S           6.6877    0.2607   35.5379 S.2     1  UNL1       -0.0561
      7 C           5.3389   -0.2068   35.0771 C.ar    1  UNL1        0.1629
      8 N           4.3185    0.2763   36.0648 N.ar    1  UNL1       -0.2284
      9 C           5.0368    1.0423   37.1360 C.ar    1  UNL1        0.0666
     10 C           0.1540    1.7762   39.3428 C.ar    1  UNL1       -0.0000
     11 C           0.9477    0.5125   39.4945 C.ar    1  UNL1       -0.0003
     12 C           2.4119    0.5029   39.1689 C.ar    1  UNL1       -0.0039
     13 C           3.0824    1.7569   38.6916 C.ar    1  UNL1       -0.0169
     14 C           2.2886    3.0206   38.5399 C.ar    1  UNL1       -0.0039
     15 C           0.8245    3.0303   38.8655 C.ar    1  UNL1       -0.0003
     16 N           5.0595   -1.0153   33.8449 N.pl3   1  UNL1       -0.2927
     17 H           5.5094   -1.8809   33.7116 H       1  UNL1        0.1541
     18 C           4.0948   -0.5052   32.8158 C.ar    1  UNL1        0.0497
     19 C           3.4149    0.8169   33.0154 C.ar    1  UNL1        0.0147
     20 C           2.4502    1.3270   31.9863 C.ar    1  UNL1        0.0013
     21 C           2.1654    0.5151   30.7576 C.ar    1  UNL1        0.0017
     22 C           2.8453   -0.8070   30.5580 C.ar    1  UNL1        0.0013
     23 C           3.8100   -1.3171   31.5872 C.ar    1  UNL1        0.0147
     24 C           1.2007    1.0252   29.7285 C.ar    1  UNL1        0.0226
     25 C           0.2913    0.0698   29.0141 C.ar    1  UNL1        0.0241
     26 C          -0.6734    0.5800   27.9850 C.ar    1  UNL1        0.1222
     27 N          -0.7288    2.0456   27.6703 N.ar    1  UNL1       -0.1464
     28 N           0.1805    3.0010   28.3847 N.ar    1  UNL1       -0.1464
     29 C           1.1453    2.4908   29.4138 C.ar    1  UNL1        0.1221
@<TRIPOS>BOND
     1    10    11   ar
     2    11    12   ar
     3    12    13   ar
     4    13     1    1
     5     1     2    1
     6     2     3    1
     7     3     4    1
     8     4     5    1
     9     5     6   ar
    10     6     7   ar
    11     7    16    1
    12    16    18    1
    13    18    19   ar
    14    19    20   ar
    15    20    21   ar
    16    21    24    1
    17    24    25   ar
    18    25    26   ar
    19    26    27   ar
    20    27    28   ar
    21    28    29   ar
    22    21    22   ar
    23    22    23   ar
    24     7     8   ar
    25     8     9   ar
    26    13    14   ar
    27    14    15   ar
    28    15    10   ar
    29     9     1    1
    30     9     5   ar
    31    23    18   ar
    32    29    24   ar
    33    16    17    1
