@<TRIPOS>MOLECULE
*****
 31 34 0 0 0
SMALL
GASTEIGER

@<TRIPOS>ATOM
      1 C          -7.8188  -18.9796   20.9922 C.2     1  UNL1        0.2495
      2 O          -8.5100  -20.2330   20.5436 O.2     1  UNL1       -0.2699
      3 N          -8.6167  -17.7383   21.2614 N.am    1  UNL1       -0.2679
      4 N          -0.1518  -18.4801   19.3825 N.pl3   1  UNL1       -0.3375
      5 C          -1.5289  -18.6198   19.9607 C.ar    1  UNL1        0.1567
      6 N          -1.8583  -18.8780   21.4011 N.ar    1  UNL1       -0.2245
      7 C          -3.3513  -18.9435   21.5306 C.ar    1  UNL1        0.0892
      8 C          -4.2472  -19.1733   22.7115 C.ar    1  UNL1        0.0198
      9 C          -5.7363  -19.1854   22.5320 C.ar    1  UNL1        0.0061
     10 C          -6.3296  -18.9676   21.1716 C.ar    1  UNL1        0.0542
     11 C          -5.4337  -18.7378   19.9908 C.ar    1  UNL1        0.0126
     12 C          -3.9446  -18.7257   20.1702 C.ar    1  UNL1        0.0498
     13 S          -2.8182  -18.5256   19.2000 S.2     1  UNL1       -0.0520
     14 H           0.6373  -18.5581   19.9660 H       1  UNL1        0.1442
     15 H          -0.0371  -18.3105   18.4196 H       1  UNL1        0.1442
     16 C         -10.1059  -17.7503   21.0819 C.3     1  UNL1        0.1208
     17 C         -10.9993  -18.0562   22.2474 C.ar    1  UNL1       -0.0023
     18 C         -10.5296  -18.9827   23.3295 C.ar    1  UNL1       -0.0026
     19 C         -11.4230  -19.2886   24.4950 C.ar    1  UNL1       -0.0003
     20 C         -12.7861  -18.6680   24.5783 C.ar    1  UNL1       -0.0000
     21 C         -13.2557  -17.7415   23.4962 C.ar    1  UNL1       -0.0003
     22 C         -12.3623  -17.4356   22.3307 C.ar    1  UNL1       -0.0026
     23 C          -7.9255  -16.4849   21.7100 C.3     1  UNL1        0.1208
     24 C          -7.8160  -16.1713   23.1728 C.ar    1  UNL1       -0.0014
     25 C          -9.0514  -16.1095   24.0211 C.ar    1  UNL1       -0.0017
     26 C          -8.9419  -15.7959   25.4838 C.ar    1  UNL1        0.0120
     27 C          -7.5968  -15.5442   26.0982 C.ar    1  UNL1        0.0682
     28 CL         -7.4873  -15.2306   27.5611 Cl      1  UNL1       -0.0814
     29 C          -6.3614  -15.6060   25.2499 C.ar    1  UNL1        0.0679
     30 CL         -5.0163  -15.3543   25.8643 Cl      1  UNL1       -0.0814
     31 C          -6.4709  -15.9196   23.7872 C.ar    1  UNL1        0.0096
@<TRIPOS>BOND
     1     4     5    1
     2     5     6   ar
     3     6     7   ar
     4     7     8   ar
     5     8     9   ar
     6     9    10   ar
     7    10     1    1
     8     1     2    2
     9     1     3   am
    10     3    16    1
    11    16    17    1
    12    17    18   ar
    13    18    19   ar
    14    19    20   ar
    15    20    21   ar
    16    21    22   ar
    17     3    23    1
    18    23    24    1
    19    24    25   ar
    20    25    26   ar
    21    26    27   ar
    22    27    28    1
    23    27    29   ar
    24    29    30    1
    25    29    31   ar
    26    10    11   ar
    27    11    12   ar
    28    12    13   ar
    29    13     5   ar
    30    12     7   ar
    31    22    17   ar
    32    31    24   ar
    33     4    14    1
    34     4    15    1
@<TRIPOS>MOLECULE
*****
 31 34 0 0 0
SMALL
GASTEIGER

@<TRIPOS>ATOM
      1 C          -6.9058  -19.7475   22.0577 C.2     1  UNL1        0.2495
      2 O          -6.5591  -21.2033   21.9557 O.2     1  UNL1       -0.2699
      3 N          -5.8185  -18.7272   22.2209 N.am    1  UNL1       -0.2679
      4 N         -14.2045  -17.9023   24.2820 N.pl3   1  UNL1       -0.3375
      5 C         -12.9033  -18.1885   23.5928 C.ar    1  UNL1        0.1567
      6 N         -12.6355  -18.0531   22.1232 N.ar    1  UNL1       -0.2245
      7 C         -11.2081  -18.4412   21.8743 C.ar    1  UNL1        0.0892
      8 C         -10.3885  -18.5014   20.6196 C.ar    1  UNL1        0.0198
      9 C          -8.9544  -18.9368   20.6807 C.ar    1  UNL1        0.0061
     10 C          -8.3400  -19.3121   21.9966 C.ar    1  UNL1        0.0542
     11 C          -9.1596  -19.2519   23.2514 C.ar    1  UNL1        0.0126
     12 C         -10.5937  -18.8165   23.1903 C.ar    1  UNL1        0.0498
     13 S         -11.6414  -18.6603   24.2523 S.2     1  UNL1       -0.0520
     14 H         -14.9808  -17.5951   23.7602 H       1  UNL1        0.1442
     15 H         -14.2823  -18.0217   25.2561 H       1  UNL1        0.1442
     16 C          -4.3844  -19.1627   22.2820 C.3     1  UNL1        0.1208
     17 C          -3.3765  -18.5576   21.3502 C.ar    1  UNL1       -0.0023
     18 C          -3.2693  -19.0518   19.9379 C.ar    1  UNL1       -0.0026
     19 C          -2.2615  -18.4468   19.0061 C.ar    1  UNL1       -0.0003
     20 C          -1.3609  -17.3476   19.4866 C.ar    1  UNL1       -0.0000
     21 C          -1.4681  -16.8535   20.8988 C.ar    1  UNL1       -0.0003
     22 C          -2.4759  -17.4585   21.8306 C.ar    1  UNL1       -0.0026
     23 C          -6.1653  -17.2714   22.3229 C.3     1  UNL1        0.1208
     24 C          -6.2660  -16.6170   23.6689 C.ar    1  UNL1       -0.0014
     25 C          -5.0221  -16.3139   24.4504 C.ar    1  UNL1       -0.0017
     26 C          -5.1228  -15.6595   25.7963 C.ar    1  UNL1        0.0120
     27 C          -6.4675  -15.3082   26.3607 C.ar    1  UNL1        0.0682
     28 CL         -6.5682  -14.6537   27.7068 Cl      1  UNL1       -0.0814
     29 C          -7.7114  -15.6113   25.5792 C.ar    1  UNL1        0.0679
     30 CL         -9.0560  -15.2600   26.1436 Cl      1  UNL1       -0.0814
     31 C          -7.6106  -16.2657   24.2333 C.ar    1  UNL1        0.0096
@<TRIPOS>BOND
     1     4     5    1
     2     5     6   ar
     3     6     7   ar
     4     7     8   ar
     5     8     9   ar
     6     9    10   ar
     7    10     1    1
     8     1     2    2
     9     1     3   am
    10     3    16    1
    11    16    17    1
    12    17    18   ar
    13    18    19   ar
    14    19    20   ar
    15    20    21   ar
    16    21    22   ar
    17     3    23    1
    18    23    24    1
    19    24    25   ar
    20    25    26   ar
    21    26    27   ar
    22    27    28    1
    23    27    29   ar
    24    29    30    1
    25    29    31   ar
    26    10    11   ar
    27    11    12   ar
    28    12    13   ar
    29    13     5   ar
    30    12     7   ar
    31    22    17   ar
    32    31    24   ar
    33     4    14    1
    34     4    15    1
@<TRIPOS>MOLECULE
*****
 31 34 0 0 0
SMALL
GASTEIGER

@<TRIPOS>ATOM
      1 C          -6.5697  -19.7160   22.2092 C.2     1  UNL1        0.2495
      2 O          -6.8248  -21.1941   22.2241 O.2     1  UNL1       -0.2699
      3 N          -7.6881  -18.7589   22.4974 N.am    1  UNL1       -0.2679
      4 N          -0.1293  -17.6383   18.2308 N.pl3   1  UNL1       -0.3375
      5 C          -1.2140  -17.9425   19.2212 C.ar    1  UNL1        0.1567
      6 N          -1.1490  -17.7047   20.7008 N.ar    1  UNL1       -0.2245
      7 C          -2.4489  -18.1532   21.3000 C.ar    1  UNL1        0.0892
      8 C          -2.9540  -18.1591   22.7123 C.ar    1  UNL1        0.0198
      9 C          -4.3276  -18.6801   23.0154 C.ar    1  UNL1        0.0061
     10 C          -5.1960  -19.1951   21.9061 C.ar    1  UNL1        0.0542
     11 C          -4.6909  -19.1891   20.4937 C.ar    1  UNL1        0.0126
     12 C          -3.3174  -18.6682   20.1907 C.ar    1  UNL1        0.0498
     13 S          -2.5541  -18.5380   18.9059 S.2     1  UNL1       -0.0520
     14 H           0.7203  -17.2457   18.5363 H       1  UNL1        0.1442
     15 H          -0.2670  -17.8312   17.2752 H       1  UNL1        0.1442
     16 C          -9.0617  -19.2799   22.8005 C.3     1  UNL1        0.1208
     17 C         -10.2690  -18.5642   22.2710 C.ar    1  UNL1       -0.0023
     18 C         -10.3855  -18.2743   20.8039 C.ar    1  UNL1       -0.0026
     19 C         -11.5927  -17.5586   20.2744 C.ar    1  UNL1       -0.0003
     20 C         -12.6835  -17.1329   21.2120 C.ar    1  UNL1       -0.0000
     21 C         -12.5669  -17.4229   22.6791 C.ar    1  UNL1       -0.0003
     22 C         -11.3597  -18.1385   23.2086 C.ar    1  UNL1       -0.0026
     23 C          -7.4329  -17.2809   22.4825 C.3     1  UNL1        0.1208
     24 C          -7.1254  -16.5599   23.7615 C.ar    1  UNL1       -0.0014
     25 C          -5.8322  -15.8145   23.9100 C.ar    1  UNL1       -0.0017
     26 C          -5.5247  -15.0936   25.1889 C.ar    1  UNL1        0.0120
     27 C          -6.5103  -15.1182   26.3194 C.ar    1  UNL1        0.0682
     28 CL         -6.2027  -14.3973   27.5984 Cl      1  UNL1       -0.0814
     29 C          -7.8034  -15.8637   26.1709 C.ar    1  UNL1        0.0679
     30 CL         -8.7890  -15.8883   27.3014 Cl      1  UNL1       -0.0814
     31 C          -8.1109  -16.5845   24.8920 C.ar    1  UNL1        0.0096
@<TRIPOS>BOND
     1     4     5    1
     2     5     6   ar
     3     6     7   ar
     4     7     8   ar
     5     8     9   ar
     6     9    10   ar
     7    10     1    1
     8     1     2    2
     9     1     3   am
    10     3    16    1
    11    16    17    1
    12    17    18   ar
    13    18    19   ar
    14    19    20   ar
    15    20    21   ar
    16    21    22   ar
    17     3    23    1
    18    23    24    1
    19    24    25   ar
    20    25    26   ar
    21    26    27   ar
    22    27    28    1
    23    27    29   ar
    24    29    30    1
    25    29    31   ar
    26    10    11   ar
    27    11    12   ar
    28    12    13   ar
    29    13     5   ar
    30    12     7   ar
    31    22    17   ar
    32    31    24   ar
    33     4    14    1
    34     4    15    1
@<TRIPOS>MOLECULE
*****
 31 34 0 0 0
SMALL
GASTEIGER

@<TRIPOS>ATOM
      1 C          -8.3500  -19.6510   19.9321 C.2     1  UNL1        0.2495
      2 O          -8.8078  -19.4020   18.5255 O.2     1  UNL1       -0.2699
      3 N          -9.3510  -19.7077   21.0477 N.am    1  UNL1       -0.2679
      4 N          -1.0605  -18.3259   22.5266 N.pl3   1  UNL1       -0.3375
      5 C          -2.3445  -18.8280   21.9355 C.ar    1  UNL1        0.1567
      6 N          -2.5377  -20.1378   21.2305 N.ar    1  UNL1       -0.2245
      7 C          -3.9733  -20.2278   20.8048 C.ar    1  UNL1        0.0892
      8 C          -4.7382  -21.2897   20.0720 C.ar    1  UNL1        0.0198
      9 C          -6.1970  -21.0975   19.7810 C.ar    1  UNL1        0.0061
     10 C          -6.8910  -19.8432   20.2230 C.ar    1  UNL1        0.0542
     11 C          -6.1261  -18.7813   20.9559 C.ar    1  UNL1        0.0126
     12 C          -4.6672  -18.9736   21.2468 C.ar    1  UNL1        0.0498
     13 S          -3.6606  -18.1085   21.9456 S.2     1  UNL1       -0.0520
     14 H          -0.2447  -18.8740   22.4693 H       1  UNL1        0.1442
     15 H          -1.0336  -17.4482   22.9718 H       1  UNL1        0.1442
     16 C         -10.8100  -19.5154   20.7567 C.3     1  UNL1        0.1208
     17 C         -11.5540  -18.3704   21.3774 C.ar    1  UNL1       -0.0023
     18 C         -11.5052  -17.0121   20.7427 C.ar    1  UNL1       -0.0026
     19 C         -12.2492  -15.8671   21.3635 C.ar    1  UNL1       -0.0003
     20 C         -13.0420  -16.0803   22.6189 C.ar    1  UNL1       -0.0000
     21 C         -13.0908  -17.4385   23.2535 C.ar    1  UNL1       -0.0003
     22 C         -12.3468  -18.5836   22.6328 C.ar    1  UNL1       -0.0026
     23 C          -8.8932  -19.9566   22.4542 C.3     1  UNL1        0.1208
     24 C          -8.8590  -18.8287   23.4425 C.ar    1  UNL1       -0.0014
     25 C          -9.5034  -18.9900   24.7873 C.ar    1  UNL1       -0.0017
     26 C          -9.4691  -17.8621   25.7755 C.ar    1  UNL1        0.0120
     27 C          -8.7904  -16.5729   25.4189 C.ar    1  UNL1        0.0682
     28 CL         -8.7561  -15.4449   26.4072 Cl      1  UNL1       -0.0814
     29 C          -8.1459  -16.4116   24.0741 C.ar    1  UNL1        0.0679
     30 CL         -7.4671  -15.1223   23.7175 Cl      1  UNL1       -0.0814
     31 C          -8.1802  -17.5395   23.0859 C.ar    1  UNL1        0.0096
@<TRIPOS>BOND
     1     4     5    1
     2     5     6   ar
     3     6     7   ar
     4     7     8   ar
     5     8     9   ar
     6     9    10   ar
     7    10     1    1
     8     1     2    2
     9     1     3   am
    10     3    16    1
    11    16    17    1
    12    17    18   ar
    13    18    19   ar
    14    19    20   ar
    15    20    21   ar
    16    21    22   ar
    17     3    23    1
    18    23    24    1
    19    24    25   ar
    20    25    26   ar
    21    26    27   ar
    22    27    28    1
    23    27    29   ar
    24    29    30    1
    25    29    31   ar
    26    10    11   ar
    27    11    12   ar
    28    12    13   ar
    29    13     5   ar
    30    12     7   ar
    31    22    17   ar
    32    31    24   ar
    33     4    14    1
    34     4    15    1
@<TRIPOS>MOLECULE
*****
 31 34 0 0 0
SMALL
GASTEIGER

@<TRIPOS>ATOM
      1 C          -7.0542  -19.5524   22.0948 C.2     1  UNL1        0.2495
      2 O          -6.6784  -21.0005   21.9870 O.2     1  UNL1       -0.2699
      3 N          -6.0046  -18.5260   22.4023 N.am    1  UNL1       -0.2679
      4 N         -13.3376  -15.5962   19.5470 N.pl3   1  UNL1       -0.3375
      5 C         -12.3296  -16.5104   20.1779 C.ar    1  UNL1        0.1567
      6 N         -12.6312  -17.6467   21.1095 N.ar    1  UNL1       -0.2245
      7 C         -11.3310  -18.2875   21.4954 C.ar    1  UNL1        0.0892
      8 C         -11.0107  -19.4493   22.3883 C.ar    1  UNL1        0.0198
      9 C          -9.5851  -19.8710   22.5881 C.ar    1  UNL1        0.0061
     10 C          -8.4799  -19.1307   21.8949 C.ar    1  UNL1        0.0542
     11 C          -8.8002  -17.9689   21.0020 C.ar    1  UNL1        0.0126
     12 C         -10.2257  -17.5472   20.8022 C.ar    1  UNL1        0.0498
     13 S         -10.8429  -16.4490   19.9880 S.2     1  UNL1       -0.0520
     14 H         -14.2966  -15.7169   19.7339 H       1  UNL1        0.1442
     15 H         -13.0401  -14.8754   18.9460 H       1  UNL1        0.1442
     16 C          -4.5790  -18.9477   22.6021 C.3     1  UNL1        0.1208
     17 C          -3.5062  -18.4172   21.6978 C.ar    1  UNL1       -0.0023
     18 C          -3.2721  -19.0522   20.3591 C.ar    1  UNL1       -0.0026
     19 C          -2.1993  -18.5218   19.4548 C.ar    1  UNL1       -0.0003
     20 C          -1.3606  -17.3564   19.8892 C.ar    1  UNL1       -0.0000
     21 C          -1.5948  -16.7215   21.2278 C.ar    1  UNL1       -0.0003
     22 C          -2.6675  -17.2519   22.1322 C.ar    1  UNL1       -0.0026
     23 C          -6.3805  -17.0778   22.5100 C.3     1  UNL1        0.1208
     24 C          -6.9128  -16.5354   23.8033 C.ar    1  UNL1       -0.0014
     25 C          -8.3654  -16.6939   24.1418 C.ar    1  UNL1       -0.0017
     26 C          -8.8977  -16.1515   25.4350 C.ar    1  UNL1        0.0120
     27 C          -7.9773  -15.4504   26.3897 C.ar    1  UNL1        0.0682
     28 CL         -8.5096  -14.9079   27.6829 Cl      1  UNL1       -0.0814
     29 C          -6.5246  -15.2919   26.0512 C.ar    1  UNL1        0.0679
     30 CL         -5.6042  -14.5908   27.0059 Cl      1  UNL1       -0.0814
     31 C          -5.9924  -15.8343   24.7580 C.ar    1  UNL1        0.0096
@<TRIPOS>BOND
     1     4     5    1
     2     5     6   ar
     3     6     7   ar
     4     7     8   ar
     5     8     9   ar
     6     9    10   ar
     7    10     1    1
     8     1     2    2
     9     1     3   am
    10     3    16    1
    11    16    17    1
    12    17    18   ar
    13    18    19   ar
    14    19    20   ar
    15    20    21   ar
    16    21    22   ar
    17     3    23    1
    18    23    24    1
    19    24    25   ar
    20    25    26   ar
    21    26    27   ar
    22    27    28    1
    23    27    29   ar
    24    29    30    1
    25    29    31   ar
    26    10    11   ar
    27    11    12   ar
    28    12    13   ar
    29    13     5   ar
    30    12     7   ar
    31    22    17   ar
    32    31    24   ar
    33     4    14    1
    34     4    15    1
@<TRIPOS>MOLECULE
*****
 31 34 0 0 0
SMALL
GASTEIGER

@<TRIPOS>ATOM
      1 C          -5.8585  -16.1514   23.3435 C.2     1  UNL1        0.2495
      2 O          -5.2128  -14.8011   23.4425 O.2     1  UNL1       -0.2699
      3 N          -5.0099  -17.3877   23.3084 N.am    1  UNL1       -0.2679
      4 N         -13.1819  -16.2439   20.5182 N.pl3   1  UNL1       -0.3375
      5 C         -11.9088  -16.2836   21.3104 C.ar    1  UNL1        0.1567
      6 N         -11.7943  -16.5469   22.7826 N.ar    1  UNL1       -0.2245
      7 C         -10.3414  -16.4931   23.1516 C.ar    1  UNL1        0.0892
      8 C          -9.6306  -16.6758   24.4598 C.ar    1  UNL1        0.0198
      9 C          -8.1364  -16.5619   24.5237 C.ar    1  UNL1        0.0061
     10 C          -7.3529  -16.2653   23.2795 C.ar    1  UNL1        0.0542
     11 C          -8.0636  -16.0826   21.9713 C.ar    1  UNL1        0.0126
     12 C          -9.5579  -16.1965   21.9074 C.ar    1  UNL1        0.0498
     13 S         -10.5266  -16.0670   20.7694 S.2     1  UNL1       -0.0520
     14 H         -14.0451  -16.3994   20.9654 H       1  UNL1        0.1442
     15 H         -13.1544  -16.0623   19.5510 H       1  UNL1        0.1442
     16 C          -3.5156  -17.2738   23.3724 C.3     1  UNL1        0.1208
     17 C          -2.6892  -17.5529   22.1520 C.ar    1  UNL1       -0.0023
     18 C          -1.9266  -16.4422   21.4925 C.ar    1  UNL1       -0.0026
     19 C          -1.1003  -16.7213   20.2721 C.ar    1  UNL1       -0.0003
     20 C          -1.0365  -18.1111   19.7113 C.ar    1  UNL1       -0.0000
     21 C          -1.7990  -19.2217   20.3708 C.ar    1  UNL1       -0.0003
     22 C          -2.6254  -18.9426   21.5912 C.ar    1  UNL1       -0.0026
     23 C          -5.6556  -18.7380   23.2093 C.3     1  UNL1        0.1208
     24 C          -6.6233  -19.0271   22.1002 C.ar    1  UNL1       -0.0014
     25 C          -6.1652  -18.9759   20.6728 C.ar    1  UNL1       -0.0017
     26 C          -7.1329  -19.2649   19.5638 C.ar    1  UNL1        0.0120
     27 C          -8.5587  -19.6051   19.8822 C.ar    1  UNL1        0.0682
     28 CL         -9.5265  -19.8942   18.7731 Cl      1  UNL1       -0.0814
     29 C          -9.0168  -19.6563   21.3096 C.ar    1  UNL1        0.0679
     30 CL        -10.4426  -19.9965   21.6279 Cl      1  UNL1       -0.0814
     31 C          -8.0491  -19.3673   22.4186 C.ar    1  UNL1        0.0096
@<TRIPOS>BOND
     1     4     5    1
     2     5     6   ar
     3     6     7   ar
     4     7     8   ar
     5     8     9   ar
     6     9    10   ar
     7    10     1    1
     8     1     2    2
     9     1     3   am
    10     3    16    1
    11    16    17    1
    12    17    18   ar
    13    18    19   ar
    14    19    20   ar
    15    20    21   ar
    16    21    22   ar
    17     3    23    1
    18    23    24    1
    19    24    25   ar
    20    25    26   ar
    21    26    27   ar
    22    27    28    1
    23    27    29   ar
    24    29    30    1
    25    29    31   ar
    26    10    11   ar
    27    11    12   ar
    28    12    13   ar
    29    13     5   ar
    30    12     7   ar
    31    22    17   ar
    32    31    24   ar
    33     4    14    1
    34     4    15    1
@<TRIPOS>MOLECULE
*****
 31 34 0 0 0
SMALL
GASTEIGER

@<TRIPOS>ATOM
      1 C          -8.3268  -19.6159   19.8616 C.2     1  UNL1        0.2495
      2 O          -8.3869  -19.7985   18.3739 O.2     1  UNL1       -0.2699
      3 N          -7.0729  -19.9602   20.6093 N.am    1  UNL1       -0.2679
      4 N         -13.6718  -18.5174   25.5049 N.pl3   1  UNL1       -0.3375
      5 C         -12.8032  -18.5305   24.2820 C.ar    1  UNL1        0.1567
      6 N         -13.0070  -17.7043   23.0468 N.ar    1  UNL1       -0.2245
      7 C         -11.9081  -18.0354   22.0810 C.ar    1  UNL1        0.0892
      8 C         -11.5974  -17.5314   20.7029 C.ar    1  UNL1        0.0198
      9 C         -10.4036  -18.0582   19.9631 C.ar    1  UNL1        0.0061
     10 C          -9.5206  -19.0891   20.6014 C.ar    1  UNL1        0.0542
     11 C          -9.8312  -19.5931   21.9796 C.ar    1  UNL1        0.0126
     12 C         -11.0250  -19.0663   22.7194 C.ar    1  UNL1        0.0498
     13 S         -11.5782  -19.3723   24.0797 S.2     1  UNL1       -0.0520
     14 H         -14.4588  -17.9271   25.5433 H       1  UNL1        0.1442
     15 H         -13.4549  -19.0990   26.2690 H       1  UNL1        0.1442
     16 C          -5.8791  -20.4871   19.8694 C.3     1  UNL1        0.1208
     17 C          -4.5523  -19.7997   20.0002 C.ar    1  UNL1       -0.0023
     18 C          -4.2917  -18.5241   19.2551 C.ar    1  UNL1       -0.0026
     19 C          -2.9649  -17.8367   19.3859 C.ar    1  UNL1       -0.0003
     20 C          -1.8987  -18.4249   20.2619 C.ar    1  UNL1       -0.0000
     21 C          -2.1593  -19.7004   21.0070 C.ar    1  UNL1       -0.0003
     22 C          -3.4861  -20.3878   20.8762 C.ar    1  UNL1       -0.0026
     23 C          -7.0127  -19.7777   22.0969 C.3     1  UNL1        0.1208
     24 C          -6.4764  -18.5015   22.6749 C.ar    1  UNL1       -0.0014
     25 C          -5.0079  -18.3597   22.9456 C.ar    1  UNL1       -0.0017
     26 C          -4.4717  -17.0836   23.5235 C.ar    1  UNL1        0.0120
     27 C          -5.4040  -15.9494   23.8308 C.ar    1  UNL1        0.0682
     28 CL         -4.8677  -14.6733   24.4087 Cl      1  UNL1       -0.0814
     29 C          -6.8725  -16.0912   23.5600 C.ar    1  UNL1        0.0679
     30 CL         -7.8047  -14.9570   23.8673 Cl      1  UNL1       -0.0814
     31 C          -7.4087  -17.3673   22.9821 C.ar    1  UNL1        0.0096
@<TRIPOS>BOND
     1     4     5    1
     2     5     6   ar
     3     6     7   ar
     4     7     8   ar
     5     8     9   ar
     6     9    10   ar
     7    10     1    1
     8     1     2    2
     9     1     3   am
    10     3    16    1
    11    16    17    1
    12    17    18   ar
    13    18    19   ar
    14    19    20   ar
    15    20    21   ar
    16    21    22   ar
    17     3    23    1
    18    23    24    1
    19    24    25   ar
    20    25    26   ar
    21    26    27   ar
    22    27    28    1
    23    27    29   ar
    24    29    30    1
    25    29    31   ar
    26    10    11   ar
    27    11    12   ar
    28    12    13   ar
    29    13     5   ar
    30    12     7   ar
    31    22    17   ar
    32    31    24   ar
    33     4    14    1
    34     4    15    1
@<TRIPOS>MOLECULE
*****
 31 34 0 0 0
SMALL
GASTEIGER

@<TRIPOS>ATOM
      1 C         -16.6961   -4.0826   18.0478 C.2     1  UNL1        0.2495
      2 O         -17.4504   -3.4030   16.9436 O.2     1  UNL1       -0.2699
      3 N         -15.5147   -3.4052   18.6764 N.am    1  UNL1       -0.2679
      4 N         -16.9832  -11.8721   18.9777 N.pl3   1  UNL1       -0.3375
      5 C         -17.1499  -10.3814   18.9840 C.ar    1  UNL1        0.1567
      6 N         -18.1727   -9.6118   19.7660 N.ar    1  UNL1       -0.2245
      7 C         -17.9780   -8.1533   19.4747 C.ar    1  UNL1        0.0892
      8 C         -18.6939   -6.9283   19.9612 C.ar    1  UNL1        0.0198
      9 C         -18.2666   -5.5714   19.4856 C.ar    1  UNL1        0.0061
     10 C         -17.1234   -5.4395   18.5235 C.ar    1  UNL1        0.0542
     11 C         -16.4075   -6.6646   18.0370 C.ar    1  UNL1        0.0126
     12 C         -16.8348   -8.0214   18.5126 C.ar    1  UNL1        0.0498
     13 S         -16.3230   -9.3984   18.2093 S.2     1  UNL1       -0.0520
     14 H         -17.5784  -12.4362   19.5225 H       1  UNL1        0.1442
     15 H         -16.2787  -12.2863   18.4288 H       1  UNL1        0.1442
     16 C         -15.0874   -2.0482   18.2008 C.3     1  UNL1        0.1208
     17 C         -13.6912   -1.8360   17.6951 C.ar    1  UNL1       -0.0023
     18 C         -12.7798   -0.8699   18.3922 C.ar    1  UNL1       -0.0026
     19 C         -11.3836   -0.6577   17.8865 C.ar    1  UNL1       -0.0003
     20 C         -10.8989   -1.4117   16.6837 C.ar    1  UNL1       -0.0000
     21 C         -11.8104   -2.3778   15.9867 C.ar    1  UNL1       -0.0003
     22 C         -13.2065   -2.5900   16.4924 C.ar    1  UNL1       -0.0026
     23 C         -14.7604   -4.0847   19.7807 C.3     1  UNL1        0.1208
     24 C         -13.5180   -4.8659   19.4701 C.ar    1  UNL1       -0.0014
     25 C         -13.6007   -6.3456   19.2388 C.ar    1  UNL1       -0.0017
     26 C         -12.3584   -7.1267   18.9282 C.ar    1  UNL1        0.0120
     27 C         -11.0334   -6.4281   18.8490 C.ar    1  UNL1        0.0682
     28 CL         -9.7910   -7.2093   18.5385 Cl      1  UNL1       -0.0814
     29 C         -10.9507   -4.9484   19.0804 C.ar    1  UNL1        0.0679
     30 CL         -9.6257   -4.2497   19.0012 Cl      1  UNL1       -0.0814
     31 C         -12.1930   -4.1673   19.3909 C.ar    1  UNL1        0.0096
@<TRIPOS>BOND
     1     4     5    1
     2     5     6   ar
     3     6     7   ar
     4     7     8   ar
     5     8     9   ar
     6     9    10   ar
     7    10     1    1
     8     1     2    2
     9     1     3   am
    10     3    16    1
    11    16    17    1
    12    17    18   ar
    13    18    19   ar
    14    19    20   ar
    15    20    21   ar
    16    21    22   ar
    17     3    23    1
    18    23    24    1
    19    24    25   ar
    20    25    26   ar
    21    26    27   ar
    22    27    28    1
    23    27    29   ar
    24    29    30    1
    25    29    31   ar
    26    10    11   ar
    27    11    12   ar
    28    12    13   ar
    29    13     5   ar
    30    12     7   ar
    31    22    17   ar
    32    31    24   ar
    33     4    14    1
    34     4    15    1
@<TRIPOS>MOLECULE
*****
 31 34 0 0 0
SMALL
GASTEIGER

@<TRIPOS>ATOM
      1 C         -16.7491   -4.8131   19.5793 C.2     1  UNL1        0.2495
      2 O         -17.6050   -3.7003   20.1076 O.2     1  UNL1       -0.2699
      3 N         -15.2656   -4.7875   19.7995 N.am    1  UNL1       -0.2679
      4 N         -20.4640  -11.5658   18.0881 N.pl3   1  UNL1       -0.3375
      5 C         -19.7416  -10.2512   18.0864 C.ar    1  UNL1        0.1567
      6 N         -19.3202   -9.4783   16.8719 N.ar    1  UNL1       -0.2245
      7 C         -18.6319   -8.2281   17.3338 C.ar    1  UNL1        0.0892
      8 C         -18.0083   -7.0896   16.5823 C.ar    1  UNL1        0.0198
      9 C         -17.3807   -5.9512   17.3308 C.ar    1  UNL1        0.0061
     10 C         -17.3767   -5.9515   18.8308 C.ar    1  UNL1        0.0542
     11 C         -18.0003   -7.0900   19.5823 C.ar    1  UNL1        0.0126
     12 C         -18.6279   -8.2284   18.8338 C.ar    1  UNL1        0.0498
     13 S         -19.3137   -9.4787   19.2989 S.2     1  UNL1       -0.0520
     14 H         -20.7033  -11.9971   17.2361 H       1  UNL1        0.1442
     15 H         -20.6988  -11.9974   18.9413 H       1  UNL1        0.1442
     16 C         -14.6380   -3.6491   20.5481 C.3     1  UNL1        0.1208
     17 C         -14.0026   -2.5171   19.7965 C.ar    1  UNL1       -0.0023
     18 C         -12.5082   -2.4194   19.7101 C.ar    1  UNL1       -0.0026
     19 C         -11.8728   -1.2874   18.9586 C.ar    1  UNL1       -0.0003
     20 C         -12.7318   -0.2530   18.2935 C.ar    1  UNL1       -0.0000
     21 C         -14.2261   -0.3507   18.3800 C.ar    1  UNL1       -0.0003
     22 C         -14.8615   -1.4827   19.1315 C.ar    1  UNL1       -0.0026
     23 C         -14.4097   -5.9003   19.2713 C.3     1  UNL1        0.1208
     24 C         -13.1040   -5.5891   18.6016 C.ar    1  UNL1       -0.0014
     25 C         -13.0906   -4.9754   17.2330 C.ar    1  UNL1       -0.0017
     26 C         -11.7849   -4.6642   16.5634 C.ar    1  UNL1        0.0120
     27 C         -10.4927   -4.9667   17.2625 C.ar    1  UNL1        0.0682
     28 CL         -9.1870   -4.6554   16.5928 Cl      1  UNL1       -0.0814
     29 C         -10.5061   -5.5804   18.6311 C.ar    1  UNL1        0.0679
     30 CL         -9.2139   -5.8829   19.3301 Cl      1  UNL1       -0.0814
     31 C         -11.8117   -5.8916   19.3006 C.ar    1  UNL1        0.0096
@<TRIPOS>BOND
     1     4     5    1
     2     5     6   ar
     3     6     7   ar
     4     7     8   ar
     5     8     9   ar
     6     9    10   ar
     7    10     1    1
     8     1     2    2
     9     1     3   am
    10     3    16    1
    11    16    17    1
    12    17    18   ar
    13    18    19   ar
    14    19    20   ar
    15    20    21   ar
    16    21    22   ar
    17     3    23    1
    18    23    24    1
    19    24    25   ar
    20    25    26   ar
    21    26    27   ar
    22    27    28    1
    23    27    29   ar
    24    29    30    1
    25    29    31   ar
    26    10    11   ar
    27    11    12   ar
    28    12    13   ar
    29    13     5   ar
    30    12     7   ar
    31    22    17   ar
    32    31    24   ar
    33     4    14    1
    34     4    15    1
