@<TRIPOS>MOLECULE
*****
 31 35 0 0 0
SMALL
GASTEIGER

@<TRIPOS>ATOM
      1 C          -8.6564  -15.4845   22.7397 C.ar    1  UNL1        0.1706
      2 N          -8.2232  -14.6350   21.5818 N.ar    1  UNL1       -0.1279
      3 N          -9.1145  -14.9495   20.4171 N.ar    1  UNL1       -0.1218
      4 C         -10.0986  -15.9934   20.8551 C.ar    1  UNL1        0.1975
      5 N          -9.8155  -16.3240   22.2906 N.ar    1  UNL1       -0.2690
      6 F          -6.1866  -15.5184   28.2077 F       1  UNL1       -0.2042
      7 C          -6.8041  -15.5099   26.8407 C.ar    1  UNL1        0.1401
      8 C          -8.2945  -15.4315   26.6914 C.ar    1  UNL1        0.0297
      9 C          -8.9120  -15.4230   25.3244 C.ar    1  UNL1        0.0054
     10 C          -8.0390  -15.4929   24.1067 C.ar    1  UNL1        0.0364
     11 C          -6.5485  -15.5714   24.2560 C.ar    1  UNL1        0.0054
     12 C          -5.9311  -15.5798   25.6230 C.ar    1  UNL1        0.0297
     13 C         -10.5607  -17.3194   23.1296 C.ar    1  UNL1        0.0672
     14 C          -9.8202  -18.4378   23.8012 C.ar    1  UNL1        0.0176
     15 C         -10.5654  -19.4332   24.6402 C.ar    1  UNL1        0.0015
     16 C         -12.0510  -19.3102   24.8076 C.ar    1  UNL1        0.0001
     17 C         -12.7913  -18.1918   24.1360 C.ar    1  UNL1        0.0015
     18 C         -12.0461  -17.1965   23.2970 C.ar    1  UNL1        0.0176
     19 S         -11.1766  -16.6001   20.0067 S.3     1  UNL1       -0.0653
     20 C         -11.1552  -18.0691   19.7039 C.3     1  UNL1        0.1528
     21 C          -9.8508  -18.8088   19.6697 C.ar    1  UNL1        0.2480
     22 N          -8.6255  -18.4728   20.4670 N.ar    1  UNL1       -0.1900
     23 C          -7.5600  -19.4708   20.1222 C.ar    1  UNL1        0.2033
     24 N          -8.1268  -20.4235   19.1117 N.ar    1  UNL1       -0.0560
     25 O          -9.5426  -20.0143   18.8320 O.2     1  UNL1       -0.3361
     26 C          -6.1715  -19.5092   20.6884 C.ar    1  UNL1        0.0391
     27 C          -5.8859  -18.8763   22.0181 C.ar    1  UNL1        0.0032
     28 C          -4.4974  -18.9148   22.5843 C.ar    1  UNL1        0.0001
     29 C          -3.3945  -19.5862   21.8209 C.ar    1  UNL1        0.0000
     30 C          -3.6801  -20.2191   20.4913 C.ar    1  UNL1        0.0001
     31 C          -5.0686  -20.1807   19.9251 C.ar    1  UNL1        0.0032
@<TRIPOS>BOND
     1     6     7    1
     2     7     8   ar
     3     8     9   ar
     4     9    10   ar
     5    10     1    1
     6     1     2   ar
     7     2     3   ar
     8     3     4   ar
     9     4    19    1
    10    19    20    1
    11    20    21    1
    12    21    22   ar
    13    22    23   ar
    14    23    26    1
    15    26    27   ar
    16    27    28   ar
    17    28    29   ar
    18    29    30   ar
    19    30    31   ar
    20    23    24   ar
    21    24    25   ar
    22     4     5   ar
    23     5    13    1
    24    13    14   ar
    25    14    15   ar
    26    15    16   ar
    27    16    17   ar
    28    17    18   ar
    29    10    11   ar
    30    11    12   ar
    31    12     7   ar
    32     5     1   ar
    33    18    13   ar
    34    25    21   ar
    35    31    26   ar
@<TRIPOS>MOLECULE
*****
 31 35 0 0 0
SMALL
GASTEIGER

@<TRIPOS>ATOM
      1 C           4.5665   -0.6770   18.5352 C.ar    1  UNL1        0.1706
      2 N           5.2015   -0.5518   17.1820 N.ar    1  UNL1       -0.1279
      3 N           6.5227   -1.2610   17.2225 N.ar    1  UNL1       -0.1218
      4 C           6.7041   -1.8246   18.6007 C.ar    1  UNL1        0.1975
      5 N           5.4951   -1.4636   19.4120 N.ar    1  UNL1       -0.2690
      6 F          -0.7541    1.5733   20.1559 F       1  UNL1       -0.2042
      7 C           0.5760    1.0108   19.7507 C.ar    1  UNL1        0.1401
      8 C           1.5177    1.8339   18.9227 C.ar    1  UNL1        0.0297
      9 C           2.8479    1.2713   18.5176 C.ar    1  UNL1        0.0054
     10 C           3.2363   -0.1144   18.9403 C.ar    1  UNL1        0.0364
     11 C           2.2946   -0.9376   19.7683 C.ar    1  UNL1        0.0054
     12 C           0.9645   -0.3750   20.1735 C.ar    1  UNL1        0.0297
     13 C           5.2567   -1.8258   20.8479 C.ar    1  UNL1        0.0672
     14 C           5.4285   -0.7915   21.9208 C.ar    1  UNL1        0.0176
     15 C           5.1900   -1.1536   23.3567 C.ar    1  UNL1        0.0015
     16 C           4.7799   -2.5500   23.7199 C.ar    1  UNL1        0.0001
     17 C           4.6081   -3.5842   22.6471 C.ar    1  UNL1        0.0015
     18 C           4.8465   -3.2221   21.2112 C.ar    1  UNL1        0.0176
     19 S           7.8869   -2.6110   19.0831 S.3     1  UNL1       -0.0653
     20 C           8.7706   -2.0527   20.1589 C.3     1  UNL1        0.1528
     21 C           8.6061   -2.5113   21.5775 C.ar    1  UNL1        0.2480
     22 N           8.2792   -3.9064   22.0209 N.ar    1  UNL1       -0.1900
     23 C           8.2108   -3.9126   23.5193 C.ar    1  UNL1        0.2033
     24 N           8.4954   -2.5212   24.0021 N.ar    1  UNL1       -0.0560
     25 O           8.7398   -1.6551   22.8019 O.2     1  UNL1       -0.3361
     26 C           7.9104   -5.1014   24.3833 C.ar    1  UNL1        0.0391
     27 C           8.4252   -6.4570   23.9992 C.ar    1  UNL1        0.0032
     28 C           8.1249   -7.6458   24.8632 C.ar    1  UNL1        0.0001
     29 C           7.3097   -7.4790   26.1114 C.ar    1  UNL1        0.0000
     30 C           6.7950   -6.1235   26.4955 C.ar    1  UNL1        0.0001
     31 C           7.0953   -4.9347   25.6314 C.ar    1  UNL1        0.0032
@<TRIPOS>BOND
     1     6     7    1
     2     7     8   ar
     3     8     9   ar
     4     9    10   ar
     5    10     1    1
     6     1     2   ar
     7     2     3   ar
     8     3     4   ar
     9     4    19    1
    10    19    20    1
    11    20    21    1
    12    21    22   ar
    13    22    23   ar
    14    23    26    1
    15    26    27   ar
    16    27    28   ar
    17    28    29   ar
    18    29    30   ar
    19    30    31   ar
    20    23    24   ar
    21    24    25   ar
    22     4     5   ar
    23     5    13    1
    24    13    14   ar
    25    14    15   ar
    26    15    16   ar
    27    16    17   ar
    28    17    18   ar
    29    10    11   ar
    30    11    12   ar
    31    12     7   ar
    32     5     1   ar
    33    18    13   ar
    34    25    21   ar
    35    31    26   ar
@<TRIPOS>MOLECULE
*****
 31 35 0 0 0
SMALL
GASTEIGER

@<TRIPOS>ATOM
      1 C           4.6309   -0.6393   18.4678 C.ar    1  UNL1        0.1706
      2 N           5.2799   -0.4312   17.1316 N.ar    1  UNL1       -0.1279
      3 N           6.6088   -1.1266   17.1483 N.ar    1  UNL1       -0.1218
      4 C           6.7812   -1.7646   18.4948 C.ar    1  UNL1        0.1975
      5 N           5.5588   -1.4634   19.3103 N.ar    1  UNL1       -0.2690
      6 F          -0.7343    1.4564   20.1476 F       1  UNL1       -0.2042
      7 C           0.6070    0.9325   19.7277 C.ar    1  UNL1        0.1401
      8 C           1.0559   -0.4262   20.1776 C.ar    1  UNL1        0.0297
      9 C           2.3972   -0.9501   19.7576 C.ar    1  UNL1        0.0054
     10 C           3.2896   -0.1154   18.8878 C.ar    1  UNL1        0.0364
     11 C           2.8407    1.2433   18.4378 C.ar    1  UNL1        0.0054
     12 C           1.4994    1.7672   18.8578 C.ar    1  UNL1        0.0297
     13 C           5.3083   -1.9083   20.7208 C.ar    1  UNL1        0.0672
     14 C           4.7833   -3.2874   20.9902 C.ar    1  UNL1        0.0176
     15 C           4.5328   -3.7323   22.4006 C.ar    1  UNL1        0.0015
     16 C           4.8073   -2.7981   23.5417 C.ar    1  UNL1        0.0001
     17 C           5.3323   -1.4191   23.2722 C.ar    1  UNL1        0.0015
     18 C           5.5828   -0.9742   21.8618 C.ar    1  UNL1        0.0176
     19 S           7.9677   -2.5634   18.9466 S.3     1  UNL1       -0.0653
     20 C           8.3816   -2.5418   20.3882 C.3     1  UNL1        0.1528
     21 C           8.3977   -3.8138   21.1830 C.ar    1  UNL1        0.2480
     22 N           8.0180   -3.9560   22.6272 N.ar    1  UNL1       -0.1900
     23 C           8.1819   -5.3970   23.0099 C.ar    1  UNL1        0.2033
     24 N           8.6630   -6.1455   21.8022 N.ar    1  UNL1       -0.0560
     25 O           8.7963   -5.1669   20.6731 O.2     1  UNL1       -0.3361
     26 C           7.9122   -5.9862   24.3627 C.ar    1  UNL1        0.0391
     27 C           8.4049   -7.3641   24.6924 C.ar    1  UNL1        0.0032
     28 C           8.1352   -7.9533   26.0452 C.ar    1  UNL1        0.0001
     29 C           7.3728   -7.1645   27.0684 C.ar    1  UNL1        0.0000
     30 C           6.8802   -5.7867   26.7386 C.ar    1  UNL1        0.0001
     31 C           7.1499   -5.1975   25.3858 C.ar    1  UNL1        0.0032
@<TRIPOS>BOND
     1     6     7    1
     2     7     8   ar
     3     8     9   ar
     4     9    10   ar
     5    10     1    1
     6     1     2   ar
     7     2     3   ar
     8     3     4   ar
     9     4    19    1
    10    19    20    1
    11    20    21    1
    12    21    22   ar
    13    22    23   ar
    14    23    26    1
    15    26    27   ar
    16    27    28   ar
    17    28    29   ar
    18    29    30   ar
    19    30    31   ar
    20    23    24   ar
    21    24    25   ar
    22     4     5   ar
    23     5    13    1
    24    13    14   ar
    25    14    15   ar
    26    15    16   ar
    27    16    17   ar
    28    17    18   ar
    29    10    11   ar
    30    11    12   ar
    31    12     7   ar
    32     5     1   ar
    33    18    13   ar
    34    25    21   ar
    35    31    26   ar
@<TRIPOS>MOLECULE
*****
 31 35 0 0 0
SMALL
GASTEIGER

@<TRIPOS>ATOM
      1 C         -14.5964   -7.4461   17.8651 C.ar    1  UNL1        0.1706
      2 N         -13.8358   -8.4791   17.0876 N.ar    1  UNL1       -0.1279
      3 N         -12.4671   -7.9333   16.8069 N.ar    1  UNL1       -0.1218
      4 C         -12.3817   -6.5630   17.4110 C.ar    1  UNL1        0.1975
      5 N         -13.6977   -6.2619   18.0650 N.ar    1  UNL1       -0.2690
      6 F         -20.2419   -7.9607   19.8306 F       1  UNL1       -0.2042
      7 C         -18.8305   -7.8320   19.3392 C.ar    1  UNL1        0.1401
      8 C         -18.5589   -7.2585   17.9801 C.ar    1  UNL1        0.0297
      9 C         -17.1475   -7.1299   17.4887 C.ar    1  UNL1        0.0054
     10 C         -16.0078   -7.5747   18.3565 C.ar    1  UNL1        0.0364
     11 C         -16.2794   -8.1483   19.7156 C.ar    1  UNL1        0.0054
     12 C         -17.6908   -8.2769   20.2070 C.ar    1  UNL1        0.0297
     13 C         -14.0526   -4.9983   18.7913 C.ar    1  UNL1        0.0672
     14 C         -13.5220   -4.7531   20.1728 C.ar    1  UNL1        0.0176
     15 C         -13.8769   -3.4896   20.8992 C.ar    1  UNL1        0.0015
     16 C         -14.7623   -2.4713   20.2441 C.ar    1  UNL1        0.0001
     17 C         -15.2928   -2.7166   18.8626 C.ar    1  UNL1        0.0015
     18 C         -14.9379   -3.9801   18.1363 C.ar    1  UNL1        0.0176
     19 S         -11.1897   -5.6534   17.3685 S.3     1  UNL1       -0.0653
     20 C         -11.2527   -4.3701   16.5944 C.3     1  UNL1        0.1528
     21 C         -11.5084   -3.0757   17.3079 C.ar    1  UNL1        0.2480
     22 N         -12.2744   -1.9059   16.7649 N.ar    1  UNL1       -0.1900
     23 C         -12.2824   -0.8310   17.8111 C.ar    1  UNL1        0.2033
     24 N         -11.5214   -1.3365   19.0008 N.ar    1  UNL1       -0.0560
     25 O         -11.0430   -2.7238   18.6898 O.2     1  UNL1       -0.3361
     26 C         -12.9365    0.5133   17.6890 C.ar    1  UNL1        0.0391
     27 C         -12.3493    1.5535   16.7817 C.ar    1  UNL1        0.0032
     28 C         -13.0035    2.8978   16.6597 C.ar    1  UNL1        0.0001
     29 C         -14.2449    3.2019   17.4450 C.ar    1  UNL1        0.0000
     30 C         -14.8320    2.1617   18.3523 C.ar    1  UNL1        0.0001
     31 C         -14.1778    0.8174   18.4743 C.ar    1  UNL1        0.0032
@<TRIPOS>BOND
     1     6     7    1
     2     7     8   ar
     3     8     9   ar
     4     9    10   ar
     5    10     1    1
     6     1     2   ar
     7     2     3   ar
     8     3     4   ar
     9     4    19    1
    10    19    20    1
    11    20    21    1
    12    21    22   ar
    13    22    23   ar
    14    23    26    1
    15    26    27   ar
    16    27    28   ar
    17    28    29   ar
    18    29    30   ar
    19    30    31   ar
    20    23    24   ar
    21    24    25   ar
    22     4     5   ar
    23     5    13    1
    24    13    14   ar
    25    14    15   ar
    26    15    16   ar
    27    16    17   ar
    28    17    18   ar
    29    10    11   ar
    30    11    12   ar
    31    12     7   ar
    32     5     1   ar
    33    18    13   ar
    34    25    21   ar
    35    31    26   ar
@<TRIPOS>MOLECULE
*****
 31 35 0 0 0
SMALL
GASTEIGER

@<TRIPOS>ATOM
      1 C           5.2274    0.1879   19.1890 C.ar    1  UNL1        0.1706
      2 N           6.2556    1.2073   18.7971 N.ar    1  UNL1       -0.1279
      3 N           7.5783    0.5099   18.6786 N.ar    1  UNL1       -0.1218
      4 C           7.3676   -0.9407   18.9972 C.ar    1  UNL1        0.1975
      5 N           5.9146   -1.1396   19.3126 N.ar    1  UNL1       -0.2690
      6 F          -0.6094    1.2363   20.1017 F       1  UNL1       -0.2042
      7 C           0.8498    0.9742   19.8735 C.ar    1  UNL1        0.1401
      8 C           1.7828    0.8584   21.0423 C.ar    1  UNL1        0.0297
      9 C           3.2420    0.5963   20.8142 C.ar    1  UNL1        0.0054
     10 C           3.7682    0.4500   19.4172 C.ar    1  UNL1        0.0364
     11 C           2.8353    0.5658   18.2484 C.ar    1  UNL1        0.0054
     12 C           1.3761    0.8279   18.4765 C.ar    1  UNL1        0.0297
     13 C           5.2633   -2.4382   19.6861 C.ar    1  UNL1        0.0672
     14 C           4.7469   -3.3535   18.6157 C.ar    1  UNL1        0.0176
     15 C           4.0956   -4.6521   18.9892 C.ar    1  UNL1        0.0015
     16 C           3.9607   -5.0354   20.4331 C.ar    1  UNL1        0.0001
     17 C           4.4771   -4.1202   21.5034 C.ar    1  UNL1        0.0015
     18 C           5.1284   -2.8217   21.1299 C.ar    1  UNL1        0.0176
     19 S           8.4242   -2.0054   18.9998 S.3     1  UNL1       -0.0653
     20 C           9.1559   -2.3327   20.2677 C.3     1  UNL1        0.1528
     21 C           8.8602   -3.6104   20.9957 C.ar    1  UNL1        0.2480
     22 N           8.4643   -3.7325   22.4374 N.ar    1  UNL1       -0.1900
     23 C           8.2679   -5.1879   22.7425 C.ar    1  UNL1        0.2033
     24 N           8.5424   -5.9654   21.4894 N.ar    1  UNL1       -0.0560
     25 O           8.9084   -4.9904   20.4098 O.2     1  UNL1       -0.3361
     26 C           7.8674   -5.7646   24.0680 C.ar    1  UNL1        0.0391
     27 C           8.1736   -7.1984   24.3855 C.ar    1  UNL1        0.0032
     28 C           7.7731   -7.7751   25.7110 C.ar    1  UNL1        0.0001
     29 C           7.0662   -6.9181   26.7190 C.ar    1  UNL1        0.0000
     30 C           6.7600   -5.4845   26.4015 C.ar    1  UNL1        0.0001
     31 C           7.1606   -4.9077   25.0760 C.ar    1  UNL1        0.0032
@<TRIPOS>BOND
     1     6     7    1
     2     7     8   ar
     3     8     9   ar
     4     9    10   ar
     5    10     1    1
     6     1     2   ar
     7     2     3   ar
     8     3     4   ar
     9     4    19    1
    10    19    20    1
    11    20    21    1
    12    21    22   ar
    13    22    23   ar
    14    23    26    1
    15    26    27   ar
    16    27    28   ar
    17    28    29   ar
    18    29    30   ar
    19    30    31   ar
    20    23    24   ar
    21    24    25   ar
    22     4     5   ar
    23     5    13    1
    24    13    14   ar
    25    14    15   ar
    26    15    16   ar
    27    16    17   ar
    28    17    18   ar
    29    10    11   ar
    30    11    12   ar
    31    12     7   ar
    32     5     1   ar
    33    18    13   ar
    34    25    21   ar
    35    31    26   ar
@<TRIPOS>MOLECULE
*****
 31 35 0 0 0
SMALL
GASTEIGER

@<TRIPOS>ATOM
      1 C         -13.3067   -6.9392   18.0742 C.ar    1  UNL1        0.1706
      2 N         -13.7049   -8.3597   17.8027 N.ar    1  UNL1       -0.1279
      3 N         -15.0682   -8.5791   18.3886 N.ar    1  UNL1       -0.1218
      4 C         -15.5126   -7.2941   19.0222 C.ar    1  UNL1        0.1975
      5 N         -14.4239   -6.2807   18.8279 N.ar    1  UNL1       -0.2690
      6 F          -8.1504   -4.3468   16.4337 F       1  UNL1       -0.2042
      7 C          -9.4394   -4.9949   16.8438 C.ar    1  UNL1        0.1401
      8 C         -10.6587   -4.8509   15.9821 C.ar    1  UNL1        0.0297
      9 C         -11.9478   -5.4991   16.3922 C.ar    1  UNL1        0.0054
     10 C         -12.0176   -6.2911   17.6641 C.ar    1  UNL1        0.0364
     11 C         -10.7983   -6.4351   18.5258 C.ar    1  UNL1        0.0054
     12 C          -9.5093   -5.7870   18.1157 C.ar    1  UNL1        0.0297
     13 C         -14.4483   -4.8584   19.3038 C.ar    1  UNL1        0.0672
     14 C         -14.8601   -3.7612   18.3675 C.ar    1  UNL1        0.0176
     15 C         -14.8845   -2.3389   18.8434 C.ar    1  UNL1        0.0015
     16 C         -14.4970   -2.0137   20.2555 C.ar    1  UNL1        0.0001
     17 C         -14.0852   -3.1109   21.1918 C.ar    1  UNL1        0.0015
     18 C         -14.0609   -4.5332   20.7159 C.ar    1  UNL1        0.0176
     19 S         -16.8167   -7.0632   19.7265 S.3     1  UNL1       -0.0653
     20 C         -18.0026   -6.5550   18.9613 C.3     1  UNL1        0.1528
     21 C         -18.7210   -5.3221   19.4235 C.ar    1  UNL1        0.2480
     22 N         -18.1122   -3.9635   19.6073 N.ar    1  UNL1       -0.1900
     23 C         -19.1894   -3.0330   20.0804 C.ar    1  UNL1        0.2033
     24 N         -20.4640   -3.8165   20.1891 N.ar    1  UNL1       -0.0560
     25 O         -20.1744   -5.2312   19.7831 O.2     1  UNL1       -0.3361
     26 C         -19.0215   -1.5750   20.3905 C.ar    1  UNL1        0.0391
     27 C         -17.7043   -0.9021   20.1411 C.ar    1  UNL1        0.0032
     28 C         -17.5364    0.5559   20.4511 C.ar    1  UNL1        0.0001
     29 C         -18.6857    1.3409   21.0106 C.ar    1  UNL1        0.0000
     30 C         -20.0028    0.6679   21.2599 C.ar    1  UNL1        0.0001
     31 C         -20.1707   -0.7900   20.9498 C.ar    1  UNL1        0.0032
@<TRIPOS>BOND
     1     6     7    1
     2     7     8   ar
     3     8     9   ar
     4     9    10   ar
     5    10     1    1
     6     1     2   ar
     7     2     3   ar
     8     3     4   ar
     9     4    19    1
    10    19    20    1
    11    20    21    1
    12    21    22   ar
    13    22    23   ar
    14    23    26    1
    15    26    27   ar
    16    27    28   ar
    17    28    29   ar
    18    29    30   ar
    19    30    31   ar
    20    23    24   ar
    21    24    25   ar
    22     4     5   ar
    23     5    13    1
    24    13    14   ar
    25    14    15   ar
    26    15    16   ar
    27    16    17   ar
    28    17    18   ar
    29    10    11   ar
    30    11    12   ar
    31    12     7   ar
    32     5     1   ar
    33    18    13   ar
    34    25    21   ar
    35    31    26   ar
@<TRIPOS>MOLECULE
*****
 31 35 0 0 0
SMALL
GASTEIGER

@<TRIPOS>ATOM
      1 C           3.6454   -0.1992   18.1322 C.ar    1  UNL1        0.1706
      2 N           3.9776   -0.9101   16.8538 N.ar    1  UNL1       -0.1279
      3 N           4.7938   -2.1213   17.1955 N.ar    1  UNL1       -0.1218
      4 C           4.9662   -2.1590   18.6851 C.ar    1  UNL1        0.1975
      5 N           4.2564   -0.9711   19.2640 N.ar    1  UNL1       -0.2690
      6 F           0.4362    4.8458   18.6312 F       1  UNL1       -0.2042
      7 C           1.2385    3.5845   18.5064 C.ar    1  UNL1        0.1401
      8 C           2.7366    3.6493   18.4681 C.ar    1  UNL1        0.0297
      9 C           3.5389    2.3880   18.3434 C.ar    1  UNL1        0.0054
     10 C           2.8431    1.0620   18.2570 C.ar    1  UNL1        0.0364
     11 C           1.3450    0.9972   18.2953 C.ar    1  UNL1        0.0054
     12 C           0.5427    2.2585   18.4200 C.ar    1  UNL1        0.0297
     13 C           4.1723   -0.6172   20.7192 C.ar    1  UNL1        0.0672
     14 C           5.1554    0.3467   21.3147 C.ar    1  UNL1        0.0176
     15 C           5.0714    0.7005   22.7700 C.ar    1  UNL1        0.0015
     16 C           4.0043    0.0906   23.6298 C.ar    1  UNL1        0.0001
     17 C           3.0213   -0.8733   23.0343 C.ar    1  UNL1        0.0015
     18 C           3.1053   -1.2272   21.5791 C.ar    1  UNL1        0.0176
     19 S           5.7165   -3.2015   19.4598 S.3     1  UNL1       -0.0653
     20 C           6.9679   -2.8307   20.1990 C.3     1  UNL1        0.1528
     21 C           7.6275   -3.8281   21.1045 C.ar    1  UNL1        0.2480
     22 N           7.0990   -4.3046   22.4250 N.ar    1  UNL1       -0.1900
     23 C           8.0763   -5.2952   22.9852 C.ar    1  UNL1        0.2033
     24 N           9.2088   -5.4308   22.0110 N.ar    1  UNL1       -0.0560
     25 O           8.9313   -4.5240   20.8486 O.2     1  UNL1       -0.3361
     26 C           7.9442   -6.0224   24.2905 C.ar    1  UNL1        0.0391
     27 C           8.5803   -7.3695   24.4662 C.ar    1  UNL1        0.0032
     28 C           8.4483   -8.0967   25.7714 C.ar    1  UNL1        0.0001
     29 C           7.6802   -7.4768   26.9010 C.ar    1  UNL1        0.0000
     30 C           7.0442   -6.1298   26.7253 C.ar    1  UNL1        0.0001
     31 C           7.1762   -5.4026   25.4200 C.ar    1  UNL1        0.0032
@<TRIPOS>BOND
     1     6     7    1
     2     7     8   ar
     3     8     9   ar
     4     9    10   ar
     5    10     1    1
     6     1     2   ar
     7     2     3   ar
     8     3     4   ar
     9     4    19    1
    10    19    20    1
    11    20    21    1
    12    21    22   ar
    13    22    23   ar
    14    23    26    1
    15    26    27   ar
    16    27    28   ar
    17    28    29   ar
    18    29    30   ar
    19    30    31   ar
    20    23    24   ar
    21    24    25   ar
    22     4     5   ar
    23     5    13    1
    24    13    14   ar
    25    14    15   ar
    26    15    16   ar
    27    16    17   ar
    28    17    18   ar
    29    10    11   ar
    30    11    12   ar
    31    12     7   ar
    32     5     1   ar
    33    18    13   ar
    34    25    21   ar
    35    31    26   ar
@<TRIPOS>MOLECULE
*****
 31 35 0 0 0
SMALL
GASTEIGER

@<TRIPOS>ATOM
      1 C          -1.1565    2.7396   26.2860 C.ar    1  UNL1        0.1706
      2 N          -2.4725    3.4160   26.5326 N.ar    1  UNL1       -0.1279
      3 N          -2.8957    4.0851   25.2585 N.ar    1  UNL1       -0.1218
      4 C          -1.8413    3.8222   24.2245 C.ar    1  UNL1        0.1975
      5 N          -0.7665    2.9906   24.8595 N.ar    1  UNL1       -0.2690
      6 F           1.9937   -0.4162   30.3006 F       1  UNL1       -0.2042
      7 C           1.2062    0.3727   29.2970 C.ar    1  UNL1        0.1401
      8 C           1.7711    1.6413   28.7299 C.ar    1  UNL1        0.0297
      9 C           0.9835    2.4302   27.7263 C.ar    1  UNL1        0.0054
     10 C          -0.3690    1.9506   27.2897 C.ar    1  UNL1        0.0364
     11 C          -0.9339    0.6820   27.8567 C.ar    1  UNL1        0.0054
     12 C          -0.1463   -0.1069   28.8603 C.ar    1  UNL1        0.0297
     13 C           0.4796    2.4968   24.1862 C.ar    1  UNL1        0.0672
     14 C           1.4300    3.4728   23.5584 C.ar    1  UNL1        0.0176
     15 C           2.6761    2.9790   22.8851 C.ar    1  UNL1        0.0015
     16 C           2.9719    1.5092   22.8396 C.ar    1  UNL1        0.0001
     17 C           2.0215    0.5332   23.4674 C.ar    1  UNL1        0.0015
     18 C           0.7754    1.0270   24.1407 C.ar    1  UNL1        0.0176
     19 S          -1.8587    4.3059   22.8048 S.3     1  UNL1       -0.0653
     20 C          -2.2846    3.3817   21.7027 C.3     1  UNL1        0.1528
     21 C          -1.2813    2.9028   20.6959 C.ar    1  UNL1        0.2480
     22 N          -0.3597    1.7304   20.8583 N.ar    1  UNL1       -0.1900
     23 C           0.4678    1.6152   19.6126 C.ar    1  UNL1        0.2033
     24 N           0.0577    2.7163   18.6801 N.ar    1  UNL1       -0.0560
     25 O          -1.0233    3.5121   19.3497 O.2     1  UNL1       -0.3361
     26 C           1.5206    0.5805   19.3460 C.ar    1  UNL1        0.0391
     27 C           1.5617   -0.6759   20.1646 C.ar    1  UNL1        0.0032
     28 C           2.6145   -1.7105   19.8980 C.ar    1  UNL1        0.0001
     29 C           3.6262   -1.4889   18.8130 C.ar    1  UNL1        0.0000
     30 C           3.5851   -0.2325   17.9945 C.ar    1  UNL1        0.0001
     31 C           2.5323    0.8021   18.2610 C.ar    1  UNL1        0.0032
@<TRIPOS>BOND
     1     6     7    1
     2     7     8   ar
     3     8     9   ar
     4     9    10   ar
     5    10     1    1
     6     1     2   ar
     7     2     3   ar
     8     3     4   ar
     9     4    19    1
    10    19    20    1
    11    20    21    1
    12    21    22   ar
    13    22    23   ar
    14    23    26    1
    15    26    27   ar
    16    27    28   ar
    17    28    29   ar
    18    29    30   ar
    19    30    31   ar
    20    23    24   ar
    21    24    25   ar
    22     4     5   ar
    23     5    13    1
    24    13    14   ar
    25    14    15   ar
    26    15    16   ar
    27    16    17   ar
    28    17    18   ar
    29    10    11   ar
    30    11    12   ar
    31    12     7   ar
    32     5     1   ar
    33    18    13   ar
    34    25    21   ar
    35    31    26   ar
@<TRIPOS>MOLECULE
*****
 31 35 0 0 0
SMALL
GASTEIGER

@<TRIPOS>ATOM
      1 C           5.0833   -1.5557   18.5466 C.ar    1  UNL1        0.1706
      2 N           4.7963   -1.6213   17.0758 N.ar    1  UNL1       -0.1279
      3 N           3.5975   -0.7633   16.7986 N.ar    1  UNL1       -0.1218
      4 C           3.1436   -0.1674   18.0982 C.ar    1  UNL1        0.1975
      5 N           4.0619   -0.6571   19.1785 N.ar    1  UNL1       -0.2690
      6 F           9.5353   -4.3897   21.4012 F       1  UNL1       -0.2042
      7 C           8.4223   -3.6812   20.6875 C.ar    1  UNL1        0.1401
      8 C           8.7297   -2.5376   19.7669 C.ar    1  UNL1        0.0297
      9 C           7.6168   -1.8291   19.0533 C.ar    1  UNL1        0.0054
     10 C           6.1963   -2.2642   19.2602 C.ar    1  UNL1        0.0364
     11 C           5.8888   -3.4077   20.1809 C.ar    1  UNL1        0.0054
     12 C           7.0018   -4.1162   20.8945 C.ar    1  UNL1        0.0297
     13 C           3.9741   -0.3093   20.6349 C.ar    1  UNL1        0.0672
     14 C           3.2708   -1.2324   21.5855 C.ar    1  UNL1        0.0176
     15 C           3.1830   -0.8845   23.0419 C.ar    1  UNL1        0.0015
     16 C           3.7985    0.3864   23.5479 C.ar    1  UNL1        0.0001
     17 C           4.5017    1.3094   22.5975 C.ar    1  UNL1        0.0015
     18 C           4.5895    0.9616   21.1410 C.ar    1  UNL1        0.0176
     19 S           1.9764    0.7561   18.2847 S.3     1  UNL1       -0.0653
     20 C           0.9552    0.4694   19.3454 C.3     1  UNL1        0.1528
     21 C           0.9121    1.3049   20.5903 C.ar    1  UNL1        0.2480
     22 N           0.2213    0.9431   21.8717 N.ar    1  UNL1       -0.1900
     23 C           0.4345    2.0637   22.8457 C.ar    1  UNL1        0.2033
     24 N           1.2571    3.1182   22.1664 N.ar    1  UNL1       -0.0560
     25 O           1.5522    2.6492   20.7724 O.2     1  UNL1       -0.3361
     26 C          -0.0838    2.1199   24.2522 C.ar    1  UNL1        0.0391
     27 C          -1.1817    3.0777   24.6092 C.ar    1  UNL1        0.0032
     28 C          -1.7000    3.1339   26.0157 C.ar    1  UNL1        0.0001
     29 C          -1.1204    2.2324   27.0652 C.ar    1  UNL1        0.0000
     30 C          -0.0226    1.2747   26.7082 C.ar    1  UNL1        0.0001
     31 C           0.4957    1.2185   25.3017 C.ar    1  UNL1        0.0032
@<TRIPOS>BOND
     1     6     7    1
     2     7     8   ar
     3     8     9   ar
     4     9    10   ar
     5    10     1    1
     6     1     2   ar
     7     2     3   ar
     8     3     4   ar
     9     4    19    1
    10    19    20    1
    11    20    21    1
    12    21    22   ar
    13    22    23   ar
    14    23    26    1
    15    26    27   ar
    16    27    28   ar
    17    28    29   ar
    18    29    30   ar
    19    30    31   ar
    20    23    24   ar
    21    24    25   ar
    22     4     5   ar
    23     5    13    1
    24    13    14   ar
    25    14    15   ar
    26    15    16   ar
    27    16    17   ar
    28    17    18   ar
    29    10    11   ar
    30    11    12   ar
    31    12     7   ar
    32     5     1   ar
    33    18    13   ar
    34    25    21   ar
    35    31    26   ar
