@<TRIPOS>MOLECULE
*****
 30 32 0 0 0
SMALL
GASTEIGER

@<TRIPOS>ATOM
      1 C          -8.8398  -19.1237   23.1814 C.2     1  UNL1        0.2303
      2 O          -9.0586  -20.6076   23.1854 O.2     1  UNL1       -0.2745
      3 N          -9.3968  -18.2805   24.2900 N.am    1  UNL1       -0.2740
      4 C         -10.1725  -18.9212   25.4025 C.3     1  UNL1        0.1152
      5 C          -8.0641  -18.4829   22.0689 C.3     1  UNL1        0.1116
      6 C          -4.1291  -18.9893   21.9726 C.ar    1  UNL1       -0.0029
      7 C          -4.0082  -20.0760   20.9458 C.ar    1  UNL1       -0.0026
      8 C          -5.2393  -20.6317   20.2933 C.ar    1  UNL1       -0.0006
      9 C          -6.5912  -20.1007   20.6677 C.ar    1  UNL1       -0.0038
     10 C          -6.7121  -19.0140   21.6945 C.ar    1  UNL1       -0.0133
     11 C          -5.4811  -18.4583   22.3470 C.ar    1  UNL1       -0.0064
     12 C          -2.8980  -18.4336   22.6251 C.3     1  UNL1        0.1163
     13 C          -0.0779  -17.5984   19.9607 C.3     1  UNL1        0.0946
     14 C          -1.3877  -17.5793   20.6914 C.2     1  UNL1        0.2232
     15 O          -2.4970  -16.6867   20.2194 O.2     1  UNL1       -0.2751
     16 N          -1.5883  -18.4527   21.8943 N.am    1  UNL1       -0.3004
     17 H          -0.8602  -19.0385   22.2041 H       1  UNL1        0.1497
     18 C          -9.1780  -16.7965   24.2860 C.3     1  UNL1        0.1138
     19 C          -7.9807  -16.2131   24.9759 C.ar    1  UNL1       -0.0029
     20 C          -6.7783  -15.8069   24.1764 C.ar    1  UNL1       -0.0026
     21 C          -5.5809  -15.2234   24.8663 C.ar    1  UNL1       -0.0003
     22 C          -5.5860  -15.0462   26.3558 C.ar    1  UNL1       -0.0000
     23 C          -6.7884  -15.4524   27.1553 C.ar    1  UNL1       -0.0003
     24 C          -7.9857  -16.0359   26.4654 C.ar    1  UNL1       -0.0026
     25 C         -10.1565  -15.8960   23.5920 C.3     1  UNL1        0.0967
     26 N         -11.0277  -16.4370   22.4974 N.3     1  UNL1       -0.2710
     27 C         -10.8143  -16.2461   21.0250 C.3     1  UNL1        0.0722
     28 C         -11.9200  -16.9550   20.3005 C.3     1  UNL1        0.0188
     29 C         -12.8168  -17.5841   21.3252 C.3     1  UNL1        0.0188
     30 C         -12.2654  -17.2640   22.6829 C.3     1  UNL1        0.0722
@<TRIPOS>BOND
     1    13    14    1
     2    14    15    2
     3    14    16   am
     4    16    12    1
     5    12     6    1
     6     6     7   ar
     7     7     8   ar
     8     8     9   ar
     9     9    10   ar
    10    10     5    1
    11     5     1    1
    12     1     2    2
    13     1     3   am
    14     3     4    1
    15     3    18    1
    16    18    25    1
    17    25    26    1
    18    26    27    1
    19    27    28    1
    20    28    29    1
    21    29    30    1
    22    18    19    1
    23    19    20   ar
    24    20    21   ar
    25    21    22   ar
    26    22    23   ar
    27    23    24   ar
    28    10    11   ar
    29    11     6   ar
    30    30    26    1
    31    24    19   ar
    32    16    17    1
@<TRIPOS>MOLECULE
*****
 30 32 0 0 0
SMALL
GASTEIGER

@<TRIPOS>ATOM
      1 C          -8.7424  -19.4129   23.2681 C.2     1  UNL1        0.2303
      2 O          -8.5263  -20.8420   23.6694 O.2     1  UNL1       -0.2745
      3 N          -9.5658  -18.5069   24.1348 N.am    1  UNL1       -0.2740
      4 C         -10.1731  -19.0299   25.4027 C.3     1  UNL1        0.1152
      5 C          -8.1351  -18.8899   22.0003 C.3     1  UNL1        0.1116
      6 C          -4.1711  -19.0514   21.8949 C.ar    1  UNL1       -0.0029
      7 C          -3.9580  -20.0973   20.8411 C.ar    1  UNL1       -0.0026
      8 C          -5.1371  -20.7408   20.1737 C.ar    1  UNL1       -0.0006
      9 C          -6.5295  -20.3384   20.5601 C.ar    1  UNL1       -0.0038
     10 C          -6.7427  -19.2924   21.6138 C.ar    1  UNL1       -0.0133
     11 C          -5.5635  -18.6489   22.2812 C.ar    1  UNL1       -0.0064
     12 C          -2.9919  -18.4078   22.5623 C.3     1  UNL1        0.1163
     13 C          -0.0598  -17.6238   20.0054 C.3     1  UNL1        0.0946
     14 C          -1.4036  -17.6004   20.6714 C.2     1  UNL1        0.2232
     15 O          -2.5028  -16.7464   20.1127 O.2     1  UNL1       -0.2751
     16 N          -1.6482  -18.4312   21.8962 N.am    1  UNL1       -0.3004
     17 H          -0.9267  -18.9918   22.2629 H       1  UNL1        0.1497
     18 C          -9.7819  -17.0778   23.7336 C.3     1  UNL1        0.1138
     19 C         -10.5394  -16.7573   22.4792 C.ar    1  UNL1       -0.0029
     20 C          -9.9444  -15.8321   21.4594 C.ar    1  UNL1       -0.0026
     21 C         -10.7020  -15.5116   20.2050 C.ar    1  UNL1       -0.0003
     22 C         -12.0545  -16.1163   19.9705 C.ar    1  UNL1       -0.0000
     23 C         -12.6495  -17.0415   20.9904 C.ar    1  UNL1       -0.0003
     24 C         -11.8920  -17.3620   22.2447 C.ar    1  UNL1       -0.0026
     25 C          -9.2404  -15.9691   24.5867 C.3     1  UNL1        0.0967
     26 N          -7.7592  -15.7542   24.6858 N.3     1  UNL1       -0.2710
     27 C          -6.8075  -15.6279   23.5333 C.3     1  UNL1        0.0722
     28 C          -5.4297  -15.4234   24.0900 C.3     1  UNL1        0.0188
     29 C          -5.5299  -15.4232   25.5867 C.3     1  UNL1        0.0188
     30 C          -6.9696  -15.6276   25.9549 C.3     1  UNL1        0.0722
@<TRIPOS>BOND
     1    13    14    1
     2    14    15    2
     3    14    16   am
     4    16    12    1
     5    12     6    1
     6     6     7   ar
     7     7     8   ar
     8     8     9   ar
     9     9    10   ar
    10    10     5    1
    11     5     1    1
    12     1     2    2
    13     1     3   am
    14     3     4    1
    15     3    18    1
    16    18    25    1
    17    25    26    1
    18    26    27    1
    19    27    28    1
    20    28    29    1
    21    29    30    1
    22    18    19    1
    23    19    20   ar
    24    20    21   ar
    25    21    22   ar
    26    22    23   ar
    27    23    24   ar
    28    10    11   ar
    29    11     6   ar
    30    30    26    1
    31    24    19   ar
    32    16    17    1
@<TRIPOS>MOLECULE
*****
 30 32 0 0 0
SMALL
GASTEIGER

@<TRIPOS>ATOM
      1 C           5.3163   -2.5061   23.9318 C.2     1  UNL1        0.2303
      2 O           4.3931   -1.3990   24.3463 O.2     1  UNL1       -0.2745
      3 N           6.7505   -2.4908   24.3710 N.am    1  UNL1       -0.2740
      4 C           7.2615   -1.3684   25.2249 C.3     1  UNL1        0.1152
      5 C           4.8054   -3.6286   23.0779 C.3     1  UNL1        0.1116
      6 C           3.9232   -1.7252   19.7091 C.ar    1  UNL1       -0.0029
      7 C           3.7619   -2.8797   18.7652 C.ar    1  UNL1       -0.0026
      8 C           3.9485   -4.2838   19.2588 C.ar    1  UNL1       -0.0006
      9 C           4.2963   -4.5334   20.6963 C.ar    1  UNL1       -0.0038
     10 C           4.4576   -3.3790   21.6403 C.ar    1  UNL1       -0.0133
     11 C           4.2710   -1.9749   21.1467 C.ar    1  UNL1       -0.0064
     12 C           3.7366   -0.3211   19.2156 C.3     1  UNL1        0.1163
     13 C           6.2896    0.8909   16.4293 C.3     1  UNL1        0.0946
     14 C           5.1531    0.1724   17.0942 C.2     1  UNL1        0.2232
     15 O           4.2967   -0.7711   16.3029 O.2     1  UNL1       -0.2751
     16 N           4.8730    0.3974   18.5506 N.am    1  UNL1       -0.3004
     17 H           5.4352    1.0166   19.0700 H       1  UNL1        0.1497
     18 C           7.6738   -3.5979   23.9565 C.3     1  UNL1        0.1138
     19 C           7.5907   -4.9356   24.6300 C.ar    1  UNL1       -0.0029
     20 C           6.9253   -5.0612   25.9685 C.ar    1  UNL1       -0.0026
     21 C           6.8422   -6.3990   26.6421 C.ar    1  UNL1       -0.0003
     22 C           7.4244   -7.6110   25.9772 C.ar    1  UNL1       -0.0000
     23 C           8.0898   -7.4852   24.6387 C.ar    1  UNL1       -0.0003
     24 C           8.1729   -6.1476   23.9652 C.ar    1  UNL1       -0.0026
     25 C           8.6802   -3.3674   22.8683 C.3     1  UNL1        0.0967
     26 N           8.2525   -2.7505   21.5696 N.3     1  UNL1       -0.2710
     27 C           8.1233   -1.2822   21.2912 C.3     1  UNL1        0.0722
     28 C           7.6698   -1.1178   19.8709 C.3     1  UNL1        0.0188
     29 C           7.5187   -2.4845   19.2714 C.3     1  UNL1        0.0188
     30 C           7.8788   -3.4935   20.3213 C.3     1  UNL1        0.0722
@<TRIPOS>BOND
     1    13    14    1
     2    14    15    2
     3    14    16   am
     4    16    12    1
     5    12     6    1
     6     6     7   ar
     7     7     8   ar
     8     8     9   ar
     9     9    10   ar
    10    10     5    1
    11     5     1    1
    12     1     2    2
    13     1     3   am
    14     3     4    1
    15     3    18    1
    16    18    25    1
    17    25    26    1
    18    26    27    1
    19    27    28    1
    20    28    29    1
    21    29    30    1
    22    18    19    1
    23    19    20   ar
    24    20    21   ar
    25    21    22   ar
    26    22    23   ar
    27    23    24   ar
    28    10    11   ar
    29    11     6   ar
    30    30    26    1
    31    24    19   ar
    32    16    17    1
