@<TRIPOS>MOLECULE
*****
 26 28 0 0 0
SMALL
GASTEIGER

@<TRIPOS>ATOM
      1 C          -9.5030  -16.0212   24.2520 C.3     1  UNL1        0.0061
      2 C          -9.0974  -17.2213   23.4486 C.3     1  UNL1        0.0373
      3 C          -9.2055  -18.5025   22.6762 C.3     1  UNL1        0.0075
      4 C          -7.9754  -19.1333   22.0939 C.3     1  UNL1        0.0219
      5 C          -6.6372  -18.4827   22.2841 C.3     1  UNL1        0.0950
      6 N          -6.5292  -17.2015   23.0565 N.am    1  UNL1       -0.2639
      7 C          -5.1910  -16.5509   23.2467 C.2     1  UNL1        0.3040
      8 O          -5.0830  -15.2697   24.0192 O.2     1  UNL1       -0.2526
      9 N          -3.9609  -17.1817   22.6644 N.am    1  UNL1       -0.2888
     10 C          -7.7592  -16.5708   23.6388 C.3     1  UNL1        0.0989
     11 H          -4.0318  -18.0226   22.1574 H       1  UNL1        0.1510
     12 C         -10.5765  -17.4551   23.5375 C.ar    1  UNL1       -0.0212
     13 C         -11.5152  -16.6513   22.6873 C.ar    1  UNL1       -0.0042
     14 C         -12.9942  -16.8851   22.7762 C.ar    1  UNL1       -0.0003
     15 C         -13.5344  -17.9226   23.7152 C.ar    1  UNL1       -0.0000
     16 C         -12.5957  -18.7263   24.5653 C.ar    1  UNL1       -0.0003
     17 C         -11.1168  -18.4926   24.4764 C.ar    1  UNL1       -0.0042
     18 C          -2.6228  -16.5311   22.8546 C.3     1  UNL1        0.0913
     19 C          -1.8433  -16.0571   21.6638 C.3     1  UNL1        0.0260
     20 C          -1.5456  -17.0022   20.5378 C.3     1  UNL1        0.0297
     21 C          -2.3925  -18.2244   20.3407 C.ar    1  UNL1       -0.0030
     22 C          -3.6242  -18.1538   19.4874 C.ar    1  UNL1       -0.0011
     23 C          -4.4711  -19.3760   19.2903 C.ar    1  UNL1        0.0204
     24 C          -4.0864  -20.6689   19.9463 C.ar    1  UNL1        0.0989
     25 N          -2.8546  -20.7395   20.7996 N.ar    1  UNL1       -0.2426
     26 C          -2.0078  -19.5173   20.9967 C.ar    1  UNL1        0.0946
@<TRIPOS>BOND
     1     1     2    1
     2     2    12    1
     3    12    13   ar
     4    13    14   ar
     5    14    15   ar
     6    15    16   ar
     7    16    17   ar
     8     2     3    1
     9     3     4    1
    10     4     5    1
    11     5     6    1
    12     6     7   am
    13     7     8    2
    14     7     9   am
    15     9    18    1
    16    18    19    1
    17    19    20    1
    18    20    21    1
    19    21    22   ar
    20    22    23   ar
    21    23    24   ar
    22    24    25   ar
    23    25    26   ar
    24     6    10    1
    25    10     2    1
    26    17    12   ar
    27    26    21   ar
    28     9    11    1
@<TRIPOS>MOLECULE
*****
 26 28 0 0 0
SMALL
GASTEIGER

@<TRIPOS>ATOM
      1 C         -10.6209  -20.0532   22.0068 C.3     1  UNL1        0.0061
      2 C          -9.9493  -18.7513   22.3296 C.3     1  UNL1        0.0373
      3 C          -9.7444  -17.3666   22.8686 C.3     1  UNL1        0.0075
      4 C          -8.4292  -16.6725   22.6728 C.3     1  UNL1        0.0219
      5 C          -7.3188  -17.3633   21.9380 C.3     1  UNL1        0.0950
      6 N          -7.5236  -18.7479   21.3989 N.am    1  UNL1       -0.2639
      7 C          -6.4132  -19.4386   20.6640 C.2     1  UNL1        0.3040
      8 O          -6.6182  -20.8233   20.1250 O.2     1  UNL1       -0.2526
      9 N          -5.0980  -18.7446   20.4683 N.am    1  UNL1       -0.2888
     10 C          -8.8389  -19.4420   21.5947 C.3     1  UNL1        0.0989
     11 H          -4.9635  -17.8358   20.8220 H       1  UNL1        0.1510
     12 C         -11.2930  -18.5127   22.9524 C.ar    1  UNL1       -0.0212
     13 C         -12.3703  -17.8220   22.1699 C.ar    1  UNL1       -0.0042
     14 C         -13.7138  -17.5835   22.7927 C.ar    1  UNL1       -0.0003
     15 C         -13.9801  -18.0357   24.1979 C.ar    1  UNL1       -0.0000
     16 C         -12.9028  -18.7265   24.9803 C.ar    1  UNL1       -0.0003
     17 C         -11.5592  -18.9650   24.3576 C.ar    1  UNL1       -0.0042
     18 C          -3.9877  -19.4353   19.7334 C.3     1  UNL1        0.0913
     19 C          -2.8468  -20.0412   20.4959 C.3     1  UNL1        0.0260
     20 C          -2.1419  -19.2421   21.5515 C.3     1  UNL1        0.0297
     21 C          -2.8038  -18.0338   22.1445 C.ar    1  UNL1       -0.0030
     22 C          -3.7781  -18.1908   23.2742 C.ar    1  UNL1       -0.0011
     23 C          -4.4400  -16.9825   23.8672 C.ar    1  UNL1        0.0204
     24 C          -4.1278  -15.6170   23.3306 C.ar    1  UNL1        0.0989
     25 N          -3.1535  -15.4599   22.2009 N.ar    1  UNL1       -0.2426
     26 C          -2.4916  -16.6683   21.6079 C.ar    1  UNL1        0.0946
@<TRIPOS>BOND
     1     1     2    1
     2     2    12    1
     3    12    13   ar
     4    13    14   ar
     5    14    15   ar
     6    15    16   ar
     7    16    17   ar
     8     2     3    1
     9     3     4    1
    10     4     5    1
    11     5     6    1
    12     6     7   am
    13     7     8    2
    14     7     9   am
    15     9    18    1
    16    18    19    1
    17    19    20    1
    18    20    21    1
    19    21    22   ar
    20    22    23   ar
    21    23    24   ar
    22    24    25   ar
    23    25    26   ar
    24     6    10    1
    25    10     2    1
    26    17    12   ar
    27    26    21   ar
    28     9    11    1
@<TRIPOS>MOLECULE
*****
 26 28 0 0 0
SMALL
GASTEIGER

@<TRIPOS>ATOM
      1 C          -9.7896  -18.0198   23.9306 C.3     1  UNL1        0.0061
      2 C         -10.1986  -18.5797   22.6004 C.3     1  UNL1        0.0373
      3 C         -11.0753  -19.0845   21.4930 C.3     1  UNL1        0.0075
      4 C         -10.4632  -19.5536   20.2064 C.3     1  UNL1        0.0219
      5 C          -8.9743  -19.5178   20.0273 C.3     1  UNL1        0.0950
      6 N          -8.0976  -19.0130   21.1348 N.am    1  UNL1       -0.2639
      7 C          -6.6087  -18.9773   20.9557 C.2     1  UNL1        0.3040
      8 O          -5.7321  -18.4725   22.0632 O.2     1  UNL1       -0.2526
      9 N          -5.9966  -19.4463   19.6691 N.am    1  UNL1       -0.2888
     10 C          -8.7097  -18.5440   22.4213 C.3     1  UNL1        0.0989
     11 H          -6.5720  -19.7777   18.9422 H       1  UNL1        0.1510
     12 C         -11.5454  -18.4210   23.2415 C.ar    1  UNL1       -0.0212
     13 C         -12.6615  -17.7604   22.4880 C.ar    1  UNL1       -0.0042
     14 C         -14.0083  -17.6017   23.1291 C.ar    1  UNL1       -0.0003
     15 C         -14.2389  -18.1036   24.5237 C.ar    1  UNL1       -0.0000
     16 C         -13.1227  -18.7641   25.2773 C.ar    1  UNL1       -0.0003
     17 C         -11.7760  -18.9228   24.6362 C.ar    1  UNL1       -0.0042
     18 C          -4.5078  -19.4106   19.4901 C.3     1  UNL1        0.0913
     19 C          -3.6458  -20.4319   20.1712 C.3     1  UNL1        0.0260
     20 C          -2.6282  -19.9987   21.1844 C.3     1  UNL1        0.0297
     21 C          -1.9285  -18.6811   21.0287 C.ar    1  UNL1       -0.0030
     22 C          -0.7520  -18.5611   20.1058 C.ar    1  UNL1       -0.0011
     23 C          -0.0523  -17.2435   19.9500 C.ar    1  UNL1        0.0204
     24 C          -0.5290  -16.0458   20.7170 C.ar    1  UNL1        0.0989
     25 N          -1.7055  -16.1658   21.6399 N.ar    1  UNL1       -0.2426
     26 C          -2.4051  -17.4834   21.7957 C.ar    1  UNL1        0.0946
@<TRIPOS>BOND
     1     1     2    1
     2     2    12    1
     3    12    13   ar
     4    13    14   ar
     5    14    15   ar
     6    15    16   ar
     7    16    17   ar
     8     2     3    1
     9     3     4    1
    10     4     5    1
    11     5     6    1
    12     6     7   am
    13     7     8    2
    14     7     9   am
    15     9    18    1
    16    18    19    1
    17    19    20    1
    18    20    21    1
    19    21    22   ar
    20    22    23   ar
    21    23    24   ar
    22    24    25   ar
    23    25    26   ar
    24     6    10    1
    25    10     2    1
    26    17    12   ar
    27    26    21   ar
    28     9    11    1
@<TRIPOS>MOLECULE
*****
 26 28 0 0 0
SMALL
GASTEIGER

@<TRIPOS>ATOM
      1 C          -9.8684  -18.0495   23.9891 C.3     1  UNL1        0.0061
      2 C         -10.2858  -18.5739   22.6471 C.3     1  UNL1        0.0373
      3 C         -11.1699  -19.0439   21.5303 C.3     1  UNL1        0.0075
      4 C         -10.5653  -19.4886   20.2315 C.3     1  UNL1        0.0219
      5 C          -9.0765  -19.4632   20.0497 C.3     1  UNL1        0.0950
      6 N          -8.1924  -18.9933   21.1666 N.am    1  UNL1       -0.2639
      7 C          -6.7037  -18.9680   20.9848 C.2     1  UNL1        0.3040
      8 O          -5.8196  -18.4980   22.1018 O.2     1  UNL1       -0.2526
      9 N          -6.0990  -19.4126   19.6861 N.am    1  UNL1       -0.2888
     10 C          -8.7970  -18.5486   22.4653 C.3     1  UNL1        0.0989
     11 H          -6.6793  -19.7211   18.9530 H       1  UNL1        0.1510
     12 C         -11.6296  -18.4171   23.2950 C.ar    1  UNL1       -0.0212
     13 C         -11.8484  -18.9063   24.6960 C.ar    1  UNL1       -0.0042
     14 C         -13.1922  -18.7494   25.3438 C.ar    1  UNL1       -0.0003
     15 C         -14.3171  -18.1034   24.5906 C.ar    1  UNL1       -0.0000
     16 C         -14.0982  -17.6142   23.1897 C.ar    1  UNL1       -0.0003
     17 C         -12.7545  -17.7710   22.5419 C.ar    1  UNL1       -0.0042
     18 C          -4.6103  -19.3873   19.5044 C.3     1  UNL1        0.0913
     19 C          -3.7597  -20.4501   20.1345 C.3     1  UNL1        0.0260
     20 C          -2.6806  -20.0699   21.1044 C.3     1  UNL1        0.0297
     21 C          -2.0575  -18.7071   21.0367 C.ar    1  UNL1       -0.0030
     22 C          -2.5644  -17.6060   21.9204 C.ar    1  UNL1       -0.0011
     23 C          -1.9413  -16.2432   21.8528 C.ar    1  UNL1        0.0204
     24 C          -0.8115  -15.9813   20.9016 C.ar    1  UNL1        0.0989
     25 N          -0.3046  -17.0824   20.0179 N.ar    1  UNL1       -0.2426
     26 C          -0.9277  -18.4452   20.0855 C.ar    1  UNL1        0.0946
@<TRIPOS>BOND
     1     1     2    1
     2     2    12    1
     3    12    13   ar
     4    13    14   ar
     5    14    15   ar
     6    15    16   ar
     7    16    17   ar
     8     2     3    1
     9     3     4    1
    10     4     5    1
    11     5     6    1
    12     6     7   am
    13     7     8    2
    14     7     9   am
    15     9    18    1
    16    18    19    1
    17    19    20    1
    18    20    21    1
    19    21    22   ar
    20    22    23   ar
    21    23    24   ar
    22    24    25   ar
    23    25    26   ar
    24     6    10    1
    25    10     2    1
    26    17    12   ar
    27    26    21   ar
    28     9    11    1
@<TRIPOS>MOLECULE
*****
 26 28 0 0 0
SMALL
GASTEIGER

@<TRIPOS>ATOM
      1 C          -9.4079  -19.2098   23.8269 C.3     1  UNL1        0.0061
      2 C          -9.5344  -19.0752   22.3383 C.3     1  UNL1        0.0373
      3 C         -10.1455  -18.8145   20.9935 C.3     1  UNL1        0.0075
      4 C          -9.3174  -18.9637   19.7517 C.3     1  UNL1        0.0219
      5 C          -7.8781  -19.3735   19.8548 C.3     1  UNL1        0.0950
      6 N          -7.2670  -19.6341   21.1996 N.am    1  UNL1       -0.2639
      7 C          -5.8277  -20.0439   21.3027 C.2     1  UNL1        0.3040
      8 O          -5.2167  -20.3046   22.6476 O.2     1  UNL1       -0.2526
      9 N          -4.9996  -20.1931   20.0610 N.am    1  UNL1       -0.2888
     10 C          -8.0951  -19.4850   22.4414 C.3     1  UNL1        0.0989
     11 H          -5.4007  -20.0220   19.1783 H       1  UNL1        0.1510
     12 C         -10.9298  -18.7121   22.7522 C.ar    1  UNL1       -0.0212
     13 C         -11.3782  -18.9468   24.1642 C.ar    1  UNL1       -0.0042
     14 C         -12.7735  -18.5837   24.5781 C.ar    1  UNL1       -0.0003
     15 C         -13.7203  -17.9860   23.5799 C.ar    1  UNL1       -0.0000
     16 C         -13.2719  -17.7513   22.1680 C.ar    1  UNL1       -0.0003
     17 C         -11.8766  -18.1144   21.7541 C.ar    1  UNL1       -0.0042
     18 C          -3.5604  -20.6029   20.1642 C.3     1  UNL1        0.0913
     19 C          -2.7313  -20.1434   21.3268 C.3     1  UNL1        0.0260
     20 C          -2.1431  -18.7636   21.3296 C.3     1  UNL1        0.0297
     21 C          -2.8606  -17.6438   22.0233 C.ar    1  UNL1       -0.0030
     22 C          -3.8250  -17.9441   23.1324 C.ar    1  UNL1       -0.0011
     23 C          -4.5425  -16.8243   23.8260 C.ar    1  UNL1        0.0204
     24 C          -4.2958  -15.4043   23.4108 C.ar    1  UNL1        0.0989
     25 N          -3.3314  -15.1040   22.3017 N.ar    1  UNL1       -0.2426
     26 C          -2.6139  -16.2238   21.6080 C.ar    1  UNL1        0.0946
@<TRIPOS>BOND
     1     1     2    1
     2     2    12    1
     3    12    13   ar
     4    13    14   ar
     5    14    15   ar
     6    15    16   ar
     7    16    17   ar
     8     2     3    1
     9     3     4    1
    10     4     5    1
    11     5     6    1
    12     6     7   am
    13     7     8    2
    14     7     9   am
    15     9    18    1
    16    18    19    1
    17    19    20    1
    18    20    21    1
    19    21    22   ar
    20    22    23   ar
    21    23    24   ar
    22    24    25   ar
    23    25    26   ar
    24     6    10    1
    25    10     2    1
    26    17    12   ar
    27    26    21   ar
    28     9    11    1
@<TRIPOS>MOLECULE
*****
 26 28 0 0 0
SMALL
GASTEIGER

@<TRIPOS>ATOM
      1 C           4.2414   -2.3993   20.0055 C.3     1  UNL1        0.0061
      2 C           3.8094   -1.7584   21.2911 C.3     1  UNL1        0.0373
      3 C           3.0997   -0.8360   22.2374 C.3     1  UNL1        0.0075
      4 C           3.3395   -0.9466   23.7139 C.3     1  UNL1        0.0219
      5 C           4.2892   -1.9796   24.2442 C.3     1  UNL1        0.0950
      6 N           4.9989   -2.9020   23.2979 N.am    1  UNL1       -0.2639
      7 C           5.9485   -3.9350   23.8281 C.2     1  UNL1        0.3040
      8 O           6.6582   -4.8574   22.8817 O.2     1  UNL1       -0.2526
      9 N           6.1884   -4.0456   25.3047 N.am    1  UNL1       -0.2888
     10 C           4.7590   -2.7914   21.8213 C.3     1  UNL1        0.0989
     11 H           5.7226   -3.4403   25.9258 H       1  UNL1        0.1510
     12 C           3.0098   -0.9479   20.3143 C.ar    1  UNL1       -0.0212
     13 C           3.6517   -0.4427   19.0563 C.ar    1  UNL1       -0.0042
     14 C           2.8521    0.3677   18.0796 C.ar    1  UNL1       -0.0003
     15 C           1.4107    0.6728   18.3610 C.ar    1  UNL1       -0.0000
     16 C           0.7688    0.1676   19.6190 C.ar    1  UNL1       -0.0003
     17 C           1.5684   -0.6428   20.5957 C.ar    1  UNL1       -0.0042
     18 C           7.1380   -5.0787   25.8348 C.3     1  UNL1        0.0913
     19 C           6.7064   -5.9976   26.9391 C.3     1  UNL1        0.0260
     20 C           7.4812   -6.0433   28.2226 C.3     1  UNL1        0.0297
     21 C           7.1007   -5.1436   29.3609 C.ar    1  UNL1       -0.0030
     22 C           7.1439   -5.6572   30.7696 C.ar    1  UNL1       -0.0011
     23 C           6.7634   -4.7575   31.9079 C.ar    1  UNL1        0.0204
     24 C           6.3396   -3.3442   31.6376 C.ar    1  UNL1        0.0989
     25 N           6.2963   -2.8307   30.2289 N.ar    1  UNL1       -0.2426
     26 C           6.6769   -3.7304   29.0906 C.ar    1  UNL1        0.0946
@<TRIPOS>BOND
     1     1     2    1
     2     2    12    1
     3    12    13   ar
     4    13    14   ar
     5    14    15   ar
     6    15    16   ar
     7    16    17   ar
     8     2     3    1
     9     3     4    1
    10     4     5    1
    11     5     6    1
    12     6     7   am
    13     7     8    2
    14     7     9   am
    15     9    18    1
    16    18    19    1
    17    19    20    1
    18    20    21    1
    19    21    22   ar
    20    22    23   ar
    21    23    24   ar
    22    24    25   ar
    23    25    26   ar
    24     6    10    1
    25    10     2    1
    26    17    12   ar
    27    26    21   ar
    28     9    11    1
@<TRIPOS>MOLECULE
*****
 26 28 0 0 0
SMALL
GASTEIGER

@<TRIPOS>ATOM
      1 C           3.8335   -1.3962   22.0458 C.3     1  UNL1        0.0061
      2 C           2.8045   -0.9402   21.0542 C.3     1  UNL1        0.0373
      3 C           2.0382   -0.8258   19.7698 C.3     1  UNL1        0.0075
      4 C           0.8729    0.1136   19.6728 C.3     1  UNL1        0.0219
      5 C           0.4739    0.9387   20.8603 C.3     1  UNL1        0.0950
      6 N           1.2402    0.8244   22.1447 N.am    1  UNL1       -0.2639
      7 C           0.8412    1.6495   23.3322 C.2     1  UNL1        0.3040
      8 O           1.6075    1.5350   24.6165 O.2     1  UNL1       -0.2526
      9 N          -0.3242    2.5889   23.2352 N.am    1  UNL1       -0.2888
     10 C           2.4055   -0.1151   22.2417 C.3     1  UNL1        0.0989
     11 H          -0.8271    2.6640   22.3922 H       1  UNL1        0.1510
     12 C           3.5609   -1.9237   20.2111 C.ar    1  UNL1       -0.0212
     13 C           3.6571   -3.3587   20.6370 C.ar    1  UNL1       -0.0042
     14 C           4.4134   -4.3421   19.7939 C.ar    1  UNL1       -0.0003
     15 C           5.0736   -3.8905   18.5250 C.ar    1  UNL1       -0.0000
     16 C           4.9774   -2.4555   18.0991 C.ar    1  UNL1       -0.0003
     17 C           4.2210   -1.4721   18.9422 C.ar    1  UNL1       -0.0042
     18 C          -0.7231    3.4140   24.4227 C.3     1  UNL1        0.0913
     19 C          -1.5934    2.8200   25.4903 C.3     1  UNL1        0.0260
     20 C          -1.2465    3.0166   26.9362 C.3     1  UNL1        0.0297
     21 C          -0.4672    1.9659   27.6702 C.ar    1  UNL1       -0.0030
     22 C          -1.1583    0.7323   28.1708 C.ar    1  UNL1       -0.0011
     23 C          -0.3790   -0.3184   28.9048 C.ar    1  UNL1        0.0204
     24 C           1.0914   -0.1356   29.1381 C.ar    1  UNL1        0.0989
     25 N           1.7825    1.0980   28.6375 N.ar    1  UNL1       -0.2426
     26 C           1.0032    2.1487   27.9035 C.ar    1  UNL1        0.0946
@<TRIPOS>BOND
     1     1     2    1
     2     2    12    1
     3    12    13   ar
     4    13    14   ar
     5    14    15   ar
     6    15    16   ar
     7    16    17   ar
     8     2     3    1
     9     3     4    1
    10     4     5    1
    11     5     6    1
    12     6     7   am
    13     7     8    2
    14     7     9   am
    15     9    18    1
    16    18    19    1
    17    19    20    1
    18    20    21    1
    19    21    22   ar
    20    22    23   ar
    21    23    24   ar
    22    24    25   ar
    23    25    26   ar
    24     6    10    1
    25    10     2    1
    26    17    12   ar
    27    26    21   ar
    28     9    11    1
@<TRIPOS>MOLECULE
*****
 26 28 0 0 0
SMALL
GASTEIGER

@<TRIPOS>ATOM
      1 C         -13.8154   -4.5980   19.6777 C.3     1  UNL1        0.0061
      2 C         -12.9752   -3.4650   19.1671 C.3     1  UNL1        0.0373
      3 C         -11.7940   -2.7235   18.6151 C.3     1  UNL1        0.0075
      4 C         -11.8869   -1.2484   18.3598 C.3     1  UNL1        0.0219
      5 C         -13.1611   -0.5146   18.6566 C.3     1  UNL1        0.0950
      6 N         -14.3424   -1.2561   19.2086 N.am    1  UNL1       -0.2639
      7 C         -15.6166   -0.5224   19.5053 C.2     1  UNL1        0.3040
      8 O         -16.7979   -1.2639   20.0573 O.2     1  UNL1       -0.2526
      9 N         -15.7095    0.9528   19.2500 N.am    1  UNL1       -0.2888
     10 C         -14.2495   -2.7313   19.4638 C.3     1  UNL1        0.0989
     11 H         -14.9342    1.4395   18.8877 H       1  UNL1        0.1510
     12 C         -11.9928   -4.5922   19.0477 C.ar    1  UNL1       -0.0212
     13 C         -10.5204   -4.3059   19.0369 C.ar    1  UNL1       -0.0042
     14 C          -9.5381   -5.4331   18.9175 C.ar    1  UNL1       -0.0003
     15 C         -10.0280   -6.8466   18.8089 C.ar    1  UNL1       -0.0000
     16 C         -11.5004   -7.1330   18.8197 C.ar    1  UNL1       -0.0003
     17 C         -12.4827   -6.0058   18.9391 C.ar    1  UNL1       -0.0042
     18 C         -16.9838    1.6864   19.5468 C.3     1  UNL1        0.0913
     19 C         -17.3134    2.0768   20.9572 C.3     1  UNL1        0.0260
     20 C         -17.2884    3.5211   21.3608 C.3     1  UNL1        0.0297
     21 C         -16.1741    4.0406   22.2201 C.ar    1  UNL1       -0.0030
     22 C         -16.3238    4.0589   23.7125 C.ar    1  UNL1       -0.0011
     23 C         -15.2095    4.5785   24.5718 C.ar    1  UNL1        0.0204
     24 C         -13.9454    5.0797   23.9387 C.ar    1  UNL1        0.0989
     25 N         -13.7957    5.0614   22.4463 N.ar    1  UNL1       -0.2426
     26 C         -14.9100    4.5419   21.5870 C.ar    1  UNL1        0.0946
@<TRIPOS>BOND
     1     1     2    1
     2     2    12    1
     3    12    13   ar
     4    13    14   ar
     5    14    15   ar
     6    15    16   ar
     7    16    17   ar
     8     2     3    1
     9     3     4    1
    10     4     5    1
    11     5     6    1
    12     6     7   am
    13     7     8    2
    14     7     9   am
    15     9    18    1
    16    18    19    1
    17    19    20    1
    18    20    21    1
    19    21    22   ar
    20    22    23   ar
    21    23    24   ar
    22    24    25   ar
    23    25    26   ar
    24     6    10    1
    25    10     2    1
    26    17    12   ar
    27    26    21   ar
    28     9    11    1
@<TRIPOS>MOLECULE
*****
 26 28 0 0 0
SMALL
GASTEIGER

@<TRIPOS>ATOM
      1 C           4.2223   -1.7436   22.5323 C.3     1  UNL1        0.0061
      2 C           3.0926   -1.1284   21.7606 C.3     1  UNL1        0.0373
      3 C           2.1798   -0.8044   20.6153 C.3     1  UNL1        0.0075
      4 C           1.0351    0.1443   20.8138 C.3     1  UNL1        0.0219
      5 C           0.8032    0.7691   22.1577 C.3     1  UNL1        0.0950
      6 N           1.7160    0.4451   23.3030 N.am    1  UNL1       -0.2639
      7 C           1.4840    1.0698   24.6469 C.2     1  UNL1        0.3040
      8 O           2.3969    0.7457   25.7921 O.2     1  UNL1       -0.2526
      9 N           0.3393    2.0185   24.8454 N.am    1  UNL1       -0.2888
     10 C           2.8607   -0.5037   23.1045 C.3     1  UNL1        0.0989
     11 H          -0.2598    2.2312   24.0937 H       1  UNL1        0.1510
     12 C           3.7169   -1.9669   20.6847 C.ar    1  UNL1       -0.0212
     13 C           3.9633   -1.3815   19.3258 C.ar    1  UNL1       -0.0042
     14 C           4.5875   -2.2199   18.2501 C.ar    1  UNL1       -0.0003
     15 C           4.9654   -3.6437   18.5332 C.ar    1  UNL1       -0.0000
     16 C           4.7190   -4.2290   19.8921 C.ar    1  UNL1       -0.0003
     17 C           4.0947   -3.3906   20.9678 C.ar    1  UNL1       -0.0042
     18 C           0.1074    2.6432   26.1892 C.3     1  UNL1        0.0913
     19 C          -0.8655    2.0220   27.1472 C.3     1  UNL1        0.0260
     20 C          -0.5572    0.6946   27.7739 C.3     1  UNL1        0.0297
     21 C           0.4120    0.6112   28.9156 C.ar    1  UNL1       -0.0030
     22 C           1.4971   -0.4244   28.9042 C.ar    1  UNL1       -0.0011
     23 C           2.4663   -0.5078   30.0460 C.ar    1  UNL1        0.0204
     24 C           2.3505    0.4443   31.1992 C.ar    1  UNL1        0.0989
     25 N           1.2654    1.4799   31.2107 N.ar    1  UNL1       -0.2426
     26 C           0.2962    1.5633   30.0689 C.ar    1  UNL1        0.0946
@<TRIPOS>BOND
     1     1     2    1
     2     2    12    1
     3    12    13   ar
     4    13    14   ar
     5    14    15   ar
     6    15    16   ar
     7    16    17   ar
     8     2     3    1
     9     3     4    1
    10     4     5    1
    11     5     6    1
    12     6     7   am
    13     7     8    2
    14     7     9   am
    15     9    18    1
    16    18    19    1
    17    19    20    1
    18    20    21    1
    19    21    22   ar
    20    22    23   ar
    21    23    24   ar
    22    24    25   ar
    23    25    26   ar
    24     6    10    1
    25    10     2    1
    26    17    12   ar
    27    26    21   ar
    28     9    11    1
