@<TRIPOS>MOLECULE
*****
 27 30 0 0 0
SMALL
GASTEIGER

@<TRIPOS>ATOM
      1 C         -11.9273   -4.3927   19.1225 C.3     1  UNL1        0.0634
      2 C         -13.1507   -4.5460   19.9767 C.3     1  UNL1        0.0292
      3 C         -14.1255   -3.4127   20.1008 C.3     1  UNL1        0.0954
      4 N         -13.8768   -2.1261   19.3708 N.am    1  UNL1       -0.2642
      5 C         -14.8516   -0.9928   19.4950 C.2     1  UNL1        0.3039
      6 O         -14.6029    0.2938   18.7650 O.2     1  UNL1       -0.2526
      7 N         -16.0750   -1.1460   20.3492 N.am    1  UNL1       -0.2901
      8 C         -12.6533   -1.9728   18.5167 C.3     1  UNL1        0.0954
      9 C         -11.6786   -3.1061   18.3925 C.3     1  UNL1        0.0292
     10 H         -16.2383   -1.9905   20.8283 H       1  UNL1        0.1509
     11 C         -12.4079   -7.1637   17.4670 C.3     1  UNL1        0.0390
     12 C         -11.1734   -6.7997   18.2374 C.ar    1  UNL1        0.0669
     13 C          -9.9431   -7.6454   18.3821 C.ar    1  UNL1        0.2563
     14 O          -9.7312   -9.0037   17.7818 O.3     1  UNL1       -0.4902
     15 N          -8.9617   -6.8945   19.2324 N.ar    1  UNL1       -0.0397
     16 O          -9.5856   -5.5847   19.6133 O.2     1  UNL1       -0.3552
     17 C         -10.9525   -5.5260   18.9983 C.ar    1  UNL1        0.1532
     18 H         -10.4045   -9.3962   17.2616 H       1  UNL1        0.2938
     19 C         -17.0499   -0.0127   20.4734 C.3     1  UNL1        0.0774
     20 C         -18.3883    0.5893   20.1635 C.3     1  UNL1        0.0259
     21 C         -17.3998    1.3482   20.9983 C.3     1  UNL1        0.0420
     22 C         -17.0311    2.5720   21.7834 C.ar    1  UNL1       -0.0208
     23 C         -16.3414    3.7185   21.1052 C.ar    1  UNL1       -0.0042
     24 C         -15.9727    4.9423   21.8903 C.ar    1  UNL1       -0.0003
     25 C         -16.2936    5.0196   23.3535 C.ar    1  UNL1       -0.0000
     26 C         -16.9833    3.8731   24.0317 C.ar    1  UNL1       -0.0003
     27 C         -17.3520    2.6492   23.2466 C.ar    1  UNL1       -0.0042
@<TRIPOS>BOND
     1    11    12    1
     2    12    13   ar
     3    13    14    1
     4    13    15   ar
     5    15    16   ar
     6    16    17   ar
     7    17     1    1
     8     1     2    1
     9     2     3    1
    10     3     4    1
    11     4     5   am
    12     5     6    2
    13     5     7   am
    14     7    19    1
    15    19    20    1
    16    20    21    1
    17    21    22    1
    18    22    23   ar
    19    23    24   ar
    20    24    25   ar
    21    25    26   ar
    22    26    27   ar
    23     4     8    1
    24     8     9    1
    25    17    12   ar
    26     9     1    1
    27    21    19    1
    28    27    22   ar
    29    14    18    1
    30     7    10    1
@<TRIPOS>MOLECULE
*****
 27 30 0 0 0
SMALL
GASTEIGER

@<TRIPOS>ATOM
      1 C          -6.3684    4.4745   22.8650 C.3     1  UNL1        0.0634
      2 C          -6.1628    4.8378   21.4243 C.3     1  UNL1        0.0292
      3 C          -4.8654    4.5109   20.7462 C.3     1  UNL1        0.0954
      4 N          -3.7736    3.8206   21.5087 N.am    1  UNL1       -0.2642
      5 C          -2.4762    3.4936   20.8305 C.2     1  UNL1        0.3039
      6 O          -1.3844    2.8033   21.5931 O.2     1  UNL1       -0.2526
      7 N          -2.2706    3.8570   19.3898 N.am    1  UNL1       -0.2901
      8 C          -3.9792    3.4572   22.9494 C.3     1  UNL1        0.0954
      9 C          -5.2766    3.7841   23.6276 C.3     1  UNL1        0.0292
     10 H          -2.9872    4.3101   18.8893 H       1  UNL1        0.1509
     11 C          -7.1135    7.2984   24.3210 C.3     1  UNL1        0.0390
     12 C          -8.0083    6.0994   24.2124 C.ar    1  UNL1        0.0669
     13 C          -9.4026    5.9879   24.7541 C.ar    1  UNL1        0.2563
     14 O         -10.1470    7.0558   25.4993 O.3     1  UNL1       -0.4902
     15 N          -9.9219    4.6209   24.4196 N.ar    1  UNL1       -0.0397
     16 O          -8.8485    3.8877   23.6712 O.2     1  UNL1       -0.3552
     17 C          -7.6658    4.8014   23.5432 C.ar    1  UNL1        0.1532
     18 H          -9.7397    7.8837   25.6629 H       1  UNL1        0.2938
     19 C          -0.9732    3.5301   18.7116 C.3     1  UNL1        0.0774
     20 C           0.0836    3.8620   17.7002 C.3     1  UNL1        0.0259
     21 C           0.2171    2.6320   18.5483 C.3     1  UNL1        0.0420
     22 C           0.9813    1.4034   18.9437 C.ar    1  UNL1       -0.0208
     23 C           2.3146    1.1161   18.3194 C.ar    1  UNL1       -0.0042
     24 C           3.0788   -0.1125   18.7148 C.ar    1  UNL1       -0.0003
     25 C           2.5097   -1.0540   19.7346 C.ar    1  UNL1       -0.0000
     26 C           1.1764   -0.7667   20.3589 C.ar    1  UNL1       -0.0003
     27 C           0.4122    0.4620   19.9634 C.ar    1  UNL1       -0.0042
@<TRIPOS>BOND
     1    11    12    1
     2    12    13   ar
     3    13    14    1
     4    13    15   ar
     5    15    16   ar
     6    16    17   ar
     7    17     1    1
     8     1     2    1
     9     2     3    1
    10     3     4    1
    11     4     5   am
    12     5     6    2
    13     5     7   am
    14     7    19    1
    15    19    20    1
    16    20    21    1
    17    21    22    1
    18    22    23   ar
    19    23    24   ar
    20    24    25   ar
    21    25    26   ar
    22    26    27   ar
    23     4     8    1
    24     8     9    1
    25    17    12   ar
    26     9     1    1
    27    21    19    1
    28    27    22   ar
    29    14    18    1
    30     7    10    1
@<TRIPOS>MOLECULE
*****
 27 30 0 0 0
SMALL
GASTEIGER

@<TRIPOS>ATOM
      1 C           4.7980   -1.9292   21.2462 C.3     1  UNL1        0.0634
      2 C           4.6250   -3.3656   21.6417 C.3     1  UNL1        0.0292
      3 C           5.2126   -3.8652   22.9282 C.3     1  UNL1        0.0954
      4 N           5.9732   -2.9283   23.8191 N.am    1  UNL1       -0.2642
      5 C           6.5608   -3.4280   25.1057 C.2     1  UNL1        0.3039
      6 O           7.3213   -2.4911   25.9966 O.2     1  UNL1       -0.2526
      7 N           6.3878   -4.8645   25.5012 N.am    1  UNL1       -0.2901
      8 C           6.1461   -1.4918   23.4236 C.3     1  UNL1        0.0954
      9 C           5.5585   -0.9922   22.1371 C.3     1  UNL1        0.0292
     10 H           5.8887   -5.4794   24.9165 H       1  UNL1        0.1509
     11 C           5.5544   -2.9872   18.2531 C.3     1  UNL1        0.0390
     12 C           4.5581   -1.9158   18.5839 C.ar    1  UNL1        0.0669
     13 C           3.7345   -1.1427   17.5970 C.ar    1  UNL1        0.2563
     14 O           3.7627   -1.3052   16.1061 O.3     1  UNL1       -0.4902
     15 N           2.8778   -0.1785   18.3628 N.ar    1  UNL1       -0.0397
     16 O           3.1719   -0.3558   19.8229 O.2     1  UNL1       -0.3552
     17 C           4.2104   -1.4295   19.9596 C.ar    1  UNL1        0.1532
     18 H           4.3333   -1.9368   15.7144 H       1  UNL1        0.2938
     19 C           6.9754   -5.3641   26.7878 C.3     1  UNL1        0.0774
     20 C           7.8086   -6.3639   27.5335 C.3     1  UNL1        0.0259
     21 C           7.1600   -5.2297   28.2703 C.3     1  UNL1        0.0420
     22 C           6.8920   -4.4973   29.5516 C.ar    1  UNL1       -0.0208
     23 C           6.5987   -3.0265   29.5275 C.ar    1  UNL1       -0.0042
     24 C           6.3307   -2.2941   30.8088 C.ar    1  UNL1       -0.0003
     25 C           6.3561   -3.0325   32.1143 C.ar    1  UNL1       -0.0000
     26 C           6.6495   -4.5033   32.1383 C.ar    1  UNL1       -0.0003
     27 C           6.9175   -5.2358   30.8570 C.ar    1  UNL1       -0.0042
@<TRIPOS>BOND
     1    11    12    1
     2    12    13   ar
     3    13    14    1
     4    13    15   ar
     5    15    16   ar
     6    16    17   ar
     7    17     1    1
     8     1     2    1
     9     2     3    1
    10     3     4    1
    11     4     5   am
    12     5     6    2
    13     5     7   am
    14     7    19    1
    15    19    20    1
    16    20    21    1
    17    21    22    1
    18    22    23   ar
    19    23    24   ar
    20    24    25   ar
    21    25    26   ar
    22    26    27   ar
    23     4     8    1
    24     8     9    1
    25    17    12   ar
    26     9     1    1
    27    21    19    1
    28    27    22   ar
    29    14    18    1
    30     7    10    1
@<TRIPOS>MOLECULE
*****
 27 30 0 0 0
SMALL
GASTEIGER

@<TRIPOS>ATOM
      1 C           6.4423   -2.9367   20.4363 C.3     1  UNL1        0.0634
      2 C           5.4899   -2.9341   21.5951 C.3     1  UNL1        0.0292
      3 C           5.8677   -3.6135   22.8779 C.3     1  UNL1        0.0954
      4 N           7.1978   -4.2955   23.0019 N.am    1  UNL1       -0.2642
      5 C           7.5756   -4.9750   24.2848 C.2     1  UNL1        0.3039
      6 O           8.9058   -5.6570   24.4088 O.2     1  UNL1       -0.2526
      7 N           6.6232   -4.9723   25.4436 N.am    1  UNL1       -0.2901
      8 C           8.1502   -4.2982   21.8431 C.3     1  UNL1        0.0954
      9 C           7.7725   -3.6188   20.5603 C.3     1  UNL1        0.0292
     10 H           5.7502   -4.5246   25.3622 H       1  UNL1        0.1509
     11 C           3.5398   -3.1125   18.9549 C.3     1  UNL1        0.0390
     12 C           4.7304   -2.3381   18.4725 C.ar    1  UNL1        0.0669
     13 C           4.7959   -1.5086   17.2245 C.ar    1  UNL1        0.2563
     14 O           3.6823   -1.3077   16.2398 O.3     1  UNL1       -0.4902
     15 N           6.1706   -0.9151   17.1340 N.ar    1  UNL1       -0.0397
     16 O           6.9546   -1.3778   18.3262 O.2     1  UNL1       -0.3552
     17 C           6.0645   -2.2573   19.1534 C.ar    1  UNL1        0.1532
     18 H           2.8530   -1.7208   16.3797 H       1  UNL1        0.2938
     19 C           7.0010   -5.6517   26.7265 C.3     1  UNL1        0.0774
     20 C           7.5602   -6.8398   27.4515 C.3     1  UNL1        0.0259
     21 C           7.0960   -5.6404   28.2235 C.3     1  UNL1        0.0420
     22 C           6.8828   -4.9414   29.5334 C.ar    1  UNL1       -0.0208
     23 C           7.0069   -5.7038   30.8192 C.ar    1  UNL1       -0.0042
     24 C           6.7937   -5.0048   32.1291 C.ar    1  UNL1       -0.0003
     25 C           6.4565   -3.5433   32.1532 C.ar    1  UNL1       -0.0000
     26 C           6.3324   -2.7809   30.8674 C.ar    1  UNL1       -0.0003
     27 C           6.5456   -3.4800   29.5574 C.ar    1  UNL1       -0.0042
@<TRIPOS>BOND
     1    11    12    1
     2    12    13   ar
     3    13    14    1
     4    13    15   ar
     5    15    16   ar
     6    16    17   ar
     7    17     1    1
     8     1     2    1
     9     2     3    1
    10     3     4    1
    11     4     5   am
    12     5     6    2
    13     5     7   am
    14     7    19    1
    15    19    20    1
    16    20    21    1
    17    21    22    1
    18    22    23   ar
    19    23    24   ar
    20    24    25   ar
    21    25    26   ar
    22    26    27   ar
    23     4     8    1
    24     8     9    1
    25    17    12   ar
    26     9     1    1
    27    21    19    1
    28    27    22   ar
    29    14    18    1
    30     7    10    1
@<TRIPOS>MOLECULE
*****
 27 30 0 0 0
SMALL
GASTEIGER

@<TRIPOS>ATOM
      1 C         -12.2241   -4.0038   17.6823 C.3     1  UNL1        0.0634
      2 C         -13.5502   -3.6824   18.3053 C.3     1  UNL1        0.0292
      3 C         -13.9555   -2.2529   18.5107 C.3     1  UNL1        0.0954
      4 N         -13.0348   -1.1449   18.0930 N.am    1  UNL1       -0.2642
      5 C         -13.4402    0.2847   18.2985 C.2     1  UNL1        0.3039
      6 O         -12.5195    1.3928   17.8808 O.2     1  UNL1       -0.2526
      7 N         -14.7663    0.6061   18.9215 N.am    1  UNL1       -0.2901
      8 C         -11.7088   -1.4662   17.4700 C.3     1  UNL1        0.0954
      9 C         -11.3034   -2.8957   17.2646 C.3     1  UNL1        0.0292
     10 H         -15.3706   -0.1212   19.1956 H       1  UNL1        0.1509
     11 C          -9.7422   -5.5248   19.1576 C.3     1  UNL1        0.0390
     12 C         -10.6779   -6.1324   18.1550 C.ar    1  UNL1        0.0669
     13 C         -10.6371   -7.5459   17.6545 C.ar    1  UNL1        0.2563
     14 O          -9.6534   -8.5998   18.0687 O.3     1  UNL1       -0.4902
     15 N         -11.7527   -7.7204   16.6670 N.ar    1  UNL1       -0.0397
     16 O         -12.4830   -6.4148   16.5573 O.2     1  UNL1       -0.3552
     17 C         -11.8187   -5.4334   17.4769 C.ar    1  UNL1        0.1532
     18 H          -8.9868   -8.3981   18.6956 H       1  UNL1        0.2938
     19 C         -15.1717    2.0356   19.1269 C.3     1  UNL1        0.0774
     20 C         -15.5063    3.3848   18.5633 C.3     1  UNL1        0.0259
     21 C         -15.5393    3.1624   20.0463 C.3     1  UNL1        0.0420
     22 C         -15.7705    3.6845   21.4333 C.ar    1  UNL1       -0.0208
     23 C         -14.8267    4.6900   22.0233 C.ar    1  UNL1       -0.0042
     24 C         -15.0579    5.2121   23.4103 C.ar    1  UNL1       -0.0003
     25 C         -16.2331    4.7287   24.2075 C.ar    1  UNL1       -0.0000
     26 C         -17.1769    3.7232   23.6175 C.ar    1  UNL1       -0.0003
     27 C         -16.9456    3.2011   22.2304 C.ar    1  UNL1       -0.0042
@<TRIPOS>BOND
     1    11    12    1
     2    12    13   ar
     3    13    14    1
     4    13    15   ar
     5    15    16   ar
     6    16    17   ar
     7    17     1    1
     8     1     2    1
     9     2     3    1
    10     3     4    1
    11     4     5   am
    12     5     6    2
    13     5     7   am
    14     7    19    1
    15    19    20    1
    16    20    21    1
    17    21    22    1
    18    22    23   ar
    19    23    24   ar
    20    24    25   ar
    21    25    26   ar
    22    26    27   ar
    23     4     8    1
    24     8     9    1
    25    17    12   ar
    26     9     1    1
    27    21    19    1
    28    27    22   ar
    29    14    18    1
    30     7    10    1
@<TRIPOS>MOLECULE
*****
 27 30 0 0 0
SMALL
GASTEIGER

@<TRIPOS>ATOM
      1 C         -14.9676   -7.4287   18.3628 C.3     1  UNL1        0.0634
      2 C         -14.2182   -6.9279   17.1639 C.3     1  UNL1        0.0292
      3 C         -13.6274   -5.5491   17.1709 C.3     1  UNL1        0.0954
      4 N         -13.7861   -4.6713   18.3768 N.am    1  UNL1       -0.2642
      5 C         -13.1953   -3.2925   18.3837 C.2     1  UNL1        0.3039
      6 O         -13.3539   -2.4146   19.5896 O.2     1  UNL1       -0.2526
      7 N         -12.4458   -2.7916   17.1848 N.am    1  UNL1       -0.2901
      8 C         -14.5355   -5.1721   19.5757 C.3     1  UNL1        0.0954
      9 C         -15.1263   -6.5508   19.5687 C.3     1  UNL1        0.0292
     10 H         -12.3417   -3.3678   16.3933 H       1  UNL1        0.1509
     11 C         -18.1498   -8.1522   18.3733 C.3     1  UNL1        0.0390
     12 C         -17.0211   -9.1400   18.3607 C.ar    1  UNL1        0.0669
     13 C         -17.1569  -10.6338   18.3507 C.ar    1  UNL1        0.2563
     14 O         -18.4453  -11.4020   18.3516 O.3     1  UNL1       -0.4902
     15 N         -15.7781  -11.2245   18.3398 N.ar    1  UNL1       -0.0397
     16 O         -14.7903  -10.0958   18.3430 O.2     1  UNL1       -0.3552
     17 C         -15.5584   -8.8075   18.3559 C.ar    1  UNL1        0.1532
     18 H         -19.2632  -10.9450   18.3589 H       1  UNL1        0.2938
     19 C         -11.8550   -1.4129   17.1917 C.3     1  UNL1        0.0774
     20 C         -10.6581   -0.5121   17.1144 C.3     1  UNL1        0.0259
     21 C         -12.0286    0.0744   17.2809 C.3     1  UNL1        0.0420
     22 C         -12.9201    1.2716   17.4285 C.ar    1  UNL1       -0.0208
     23 C         -12.6294    2.5232   16.6545 C.ar    1  UNL1       -0.0042
     24 C         -13.5209    3.7204   16.8021 C.ar    1  UNL1       -0.0003
     25 C         -14.7031    3.6661   17.7238 C.ar    1  UNL1       -0.0000
     26 C         -14.9938    2.4146   18.4978 C.ar    1  UNL1       -0.0003
     27 C         -14.1022    1.2173   18.3502 C.ar    1  UNL1       -0.0042
@<TRIPOS>BOND
     1    11    12    1
     2    12    13   ar
     3    13    14    1
     4    13    15   ar
     5    15    16   ar
     6    16    17   ar
     7    17     1    1
     8     1     2    1
     9     2     3    1
    10     3     4    1
    11     4     5   am
    12     5     6    2
    13     5     7   am
    14     7    19    1
    15    19    20    1
    16    20    21    1
    17    21    22    1
    18    22    23   ar
    19    23    24   ar
    20    24    25   ar
    21    25    26   ar
    22    26    27   ar
    23     4     8    1
    24     8     9    1
    25    17    12   ar
    26     9     1    1
    27    21    19    1
    28    27    22   ar
    29    14    18    1
    30     7    10    1
@<TRIPOS>MOLECULE
*****
 27 30 0 0 0
SMALL
GASTEIGER

@<TRIPOS>ATOM
      1 C          -2.0064    3.7083   25.9703 C.3     1  UNL1        0.0634
      2 C          -1.3479    2.6779   26.8390 C.3     1  UNL1        0.0292
      3 C          -0.2152    1.8556   26.2999 C.3     1  UNL1        0.0954
      4 N           0.2590    2.0637   24.8921 N.am    1  UNL1       -0.2642
      5 C           1.3919    1.2413   24.3530 C.2     1  UNL1        0.3039
      6 O           1.8661    1.4494   22.9453 O.2     1  UNL1       -0.2526
      7 N           2.0504    0.2110   25.2217 N.am    1  UNL1       -0.2901
      8 C          -0.3995    3.0941   24.0235 C.3     1  UNL1        0.0954
      9 C          -1.5322    3.9164   24.5626 C.3     1  UNL1        0.0292
     10 H           1.7391    0.0744   26.1456 H       1  UNL1        0.1509
     11 C          -5.1106    3.5868   24.9706 C.3     1  UNL1        0.0390
     12 C          -4.5660    4.4748   26.0499 C.ar    1  UNL1        0.0669
     13 C          -5.3527    5.4628   26.8591 C.ar    1  UNL1        0.2563
     14 O          -6.8220    5.7363   26.7312 O.3     1  UNL1       -0.4902
     15 N          -4.4121    6.1293   27.8189 N.ar    1  UNL1       -0.0397
     16 O          -3.0441    5.5532   27.6027 O.2     1  UNL1       -0.3552
     17 C          -3.1393    4.5306   26.5094 C.ar    1  UNL1        0.1532
     18 H          -7.3324    5.2686   26.0997 H       1  UNL1        0.2938
     19 C           3.1832   -0.6114   24.6826 C.3     1  UNL1        0.0774
     20 C           4.5384   -1.2297   24.8589 C.3     1  UNL1        0.0259
     21 C           3.7901   -1.4173   23.5726 C.3     1  UNL1        0.0420
     22 C           3.7084   -1.9910   22.1890 C.ar    1  UNL1       -0.0208
     23 C           4.3674   -3.3027   21.8808 C.ar    1  UNL1       -0.0042
     24 C           4.2857   -3.8763   20.4973 C.ar    1  UNL1       -0.0003
     25 C           3.5449   -3.1382   19.4218 C.ar    1  UNL1       -0.0000
     26 C           2.8859   -1.8264   19.7300 C.ar    1  UNL1       -0.0003
     27 C           2.9676   -1.2528   21.1137 C.ar    1  UNL1       -0.0042
@<TRIPOS>BOND
     1    11    12    1
     2    12    13   ar
     3    13    14    1
     4    13    15   ar
     5    15    16   ar
     6    16    17   ar
     7    17     1    1
     8     1     2    1
     9     2     3    1
    10     3     4    1
    11     4     5   am
    12     5     6    2
    13     5     7   am
    14     7    19    1
    15    19    20    1
    16    20    21    1
    17    21    22    1
    18    22    23   ar
    19    23    24   ar
    20    24    25   ar
    21    25    26   ar
    22    26    27   ar
    23     4     8    1
    24     8     9    1
    25    17    12   ar
    26     9     1    1
    27    21    19    1
    28    27    22   ar
    29    14    18    1
    30     7    10    1
@<TRIPOS>MOLECULE
*****
 27 30 0 0 0
SMALL
GASTEIGER

@<TRIPOS>ATOM
      1 C           2.4037   -0.3283   19.2727 C.3     1  UNL1        0.0634
      2 C           1.8241   -0.2836   20.6555 C.3     1  UNL1        0.0292
      3 C           0.7385    0.6985   20.9822 C.3     1  UNL1        0.0954
      4 N           0.2325    1.6359   19.9262 N.am    1  UNL1       -0.2642
      5 C          -0.8532    2.6181   20.2530 C.2     1  UNL1        0.3039
      6 O          -1.3593    3.5555   19.1971 O.2     1  UNL1       -0.2526
      7 N          -1.4328    2.6628   21.6358 N.am    1  UNL1       -0.2901
      8 C           0.8120    1.5912   18.5435 C.3     1  UNL1        0.0954
      9 C           1.8976    0.6091   18.2167 C.3     1  UNL1        0.0292
     10 H          -1.1006    2.0475   22.3289 H       1  UNL1        0.1509
     11 C           5.2038    0.3475   17.7389 C.3     1  UNL1        0.0390
     12 C           4.7764   -0.9999   18.2409 C.ar    1  UNL1        0.0669
     13 C           5.5610   -2.2731   18.1260 C.ar    1  UNL1        0.2563
     14 O           6.9108   -2.4225   17.4889 O.3     1  UNL1       -0.4902
     15 N           4.7589   -3.3707   18.7600 N.ar    1  UNL1       -0.0397
     16 O           3.4786   -2.7758   19.2667 O.2     1  UNL1       -0.3552
     17 C           3.4894   -1.3105   18.9459 C.ar    1  UNL1        0.1532
     18 H           7.3382   -1.6765   17.1164 H       1  UNL1        0.2938
     19 C          -2.5184    3.6449   21.9626 C.3     1  UNL1        0.0774
     20 C          -3.0764    4.7162   22.8520 C.3     1  UNL1        0.0259
     21 C          -3.8408    4.2748   21.6393 C.3     1  UNL1        0.0420
     22 C          -5.0456    4.3836   20.7525 C.ar    1  UNL1       -0.0208
     23 C          -6.0933    5.4195   21.0342 C.ar    1  UNL1       -0.0042
     24 C          -7.2981    5.5283   20.1474 C.ar    1  UNL1       -0.0003
     25 C          -7.4553    4.6011   18.9787 C.ar    1  UNL1       -0.0000
     26 C          -6.4077    3.5652   18.6969 C.ar    1  UNL1       -0.0003
     27 C          -5.2028    3.4564   19.5839 C.ar    1  UNL1       -0.0042
@<TRIPOS>BOND
     1    11    12    1
     2    12    13   ar
     3    13    14    1
     4    13    15   ar
     5    15    16   ar
     6    16    17   ar
     7    17     1    1
     8     1     2    1
     9     2     3    1
    10     3     4    1
    11     4     5   am
    12     5     6    2
    13     5     7   am
    14     7    19    1
    15    19    20    1
    16    20    21    1
    17    21    22    1
    18    22    23   ar
    19    23    24   ar
    20    24    25   ar
    21    25    26   ar
    22    26    27   ar
    23     4     8    1
    24     8     9    1
    25    17    12   ar
    26     9     1    1
    27    21    19    1
    28    27    22   ar
    29    14    18    1
    30     7    10    1
@<TRIPOS>MOLECULE
*****
 27 30 0 0 0
SMALL
GASTEIGER

@<TRIPOS>ATOM
      1 C           2.4463   -0.7193   20.7271 C.3     1  UNL1        0.0634
      2 C           3.0394   -0.8139   22.1016 C.3     1  UNL1        0.0292
      3 C           4.1275   -1.8076   22.3821 C.3     1  UNL1        0.0954
      4 N           4.6224   -2.7067   21.2882 N.am    1  UNL1       -0.2642
      5 C           5.7105   -3.7004   21.5687 C.2     1  UNL1        0.3039
      6 O           6.2054   -4.5995   20.4748 O.2     1  UNL1       -0.2526
      7 N           6.3036   -3.7950   22.9432 N.am    1  UNL1       -0.2901
      8 C           4.0293   -2.6121   19.9137 C.3     1  UNL1        0.0954
      9 C           2.9412   -1.6184   19.6332 C.3     1  UNL1        0.0292
     10 H           5.9788   -3.2049   23.6612 H       1  UNL1        0.1509
     11 C           2.5878    1.7207   18.5647 C.3     1  UNL1        0.0390
     12 C           1.4233    1.3959   19.4526 C.ar    1  UNL1        0.0669
     13 C           0.1193    2.1356   19.5024 C.ar    1  UNL1        0.2563
     14 O          -0.2490    3.3300   18.6731 O.3     1  UNL1       -0.4902
     15 N          -0.7517    1.4713   20.5272 N.ar    1  UNL1       -0.0397
     16 O           0.0141    0.3210   21.1107 O.2     1  UNL1       -0.3552
     17 C           1.3582    0.2744   20.4465 C.ar    1  UNL1        0.1532
     18 H           0.3631    3.6779   18.0548 H       1  UNL1        0.2938
     19 C           7.3917   -4.7887   23.2238 C.3     1  UNL1        0.0774
     20 C           8.5855   -5.5721   22.7644 C.3     1  UNL1        0.0259
     21 C           8.0825   -5.7264   24.1691 C.3     1  UNL1        0.0420
     22 C           8.1909   -6.3568   25.5258 C.ar    1  UNL1       -0.0208
     23 C           8.6166   -5.5320   26.7042 C.ar    1  UNL1       -0.0042
     24 C           8.7250   -6.1624   28.0610 C.ar    1  UNL1       -0.0003
     25 C           8.4076   -7.6176   28.2394 C.ar    1  UNL1       -0.0000
     26 C           7.9819   -8.4424   27.0610 C.ar    1  UNL1       -0.0003
     27 C           7.8735   -7.8119   25.7042 C.ar    1  UNL1       -0.0042
@<TRIPOS>BOND
     1    11    12    1
     2    12    13   ar
     3    13    14    1
     4    13    15   ar
     5    15    16   ar
     6    16    17   ar
     7    17     1    1
     8     1     2    1
     9     2     3    1
    10     3     4    1
    11     4     5   am
    12     5     6    2
    13     5     7   am
    14     7    19    1
    15    19    20    1
    16    20    21    1
    17    21    22    1
    18    22    23   ar
    19    23    24   ar
    20    24    25   ar
    21    25    26   ar
    22    26    27   ar
    23     4     8    1
    24     8     9    1
    25    17    12   ar
    26     9     1    1
    27    21    19    1
    28    27    22   ar
    29    14    18    1
    30     7    10    1
