@<TRIPOS>MOLECULE
*****
 36 38 0 0 0
SMALL
GASTEIGER

@<TRIPOS>ATOM
      1 C           8.0055   -4.4809   22.3869 C.ar    1  UNL1        0.0876
      2 C           9.2666   -3.8456   21.8809 C.ar    1  UNL1        0.0202
      3 C           9.2318   -2.9818   20.6551 C.ar    1  UNL1        0.0131
      4 C           7.9358   -2.7533   19.9352 C.ar    1  UNL1        0.0621
      5 CL          7.9009   -1.8896   18.7093 Cl      1  UNL1       -0.0821
      6 C           6.6747   -3.3886   20.4411 C.ar    1  UNL1        0.0654
      7 C           6.7095   -4.2524   21.6670 C.ar    1  UNL1        0.0247
      8 N           7.9342   -5.5884   26.1971 N.ar    1  UNL1       -0.2434
      9 C           8.1100   -7.0722   26.0644 C.ar    1  UNL1        0.2855
     10 O           8.1448   -7.9359   27.2903 O.2     1  UNL1       -0.2651
     11 C           8.2510   -7.6921   24.7058 C.ar    1  UNL1        0.1813
     12 N           8.2162   -6.8284   23.4799 N.ar    1  UNL1       -0.1547
     13 N           8.0403   -5.3446   23.6127 N.ar    1  UNL1       -0.1797
     14 C           7.8993   -4.7247   24.9713 C.ar    1  UNL1        0.3536
     15 O           7.7235   -3.2409   25.1040 O.2     1  UNL1       -0.2443
     16 C           7.7932   -4.9685   27.5558 C.3     1  UNL1        0.1453
     17 C           6.6399   -5.3472   28.4370 C.3     1  UNL1        0.1627
     18 O           5.3564   -5.8278   27.8273 O.3     1  UNL1       -0.3799
     19 H           4.7052   -5.9870   28.5284 H       1  UNL1        0.2105
     20 C           6.7702   -5.2453   29.9278 C.3     1  UNL1        0.1733
     21 C           6.6083   -3.8298   32.1004 C.3     1  UNL1        0.1742
     22 O           6.6370   -3.9125   30.6030 O.3     1  UNL1       -0.3485
     23 C           5.3787   -3.1602   19.7212 C.2     1  UNL1        0.2468
     24 O           4.9148   -4.1386   18.6831 O.2     1  UNL1       -0.2701
     25 N           4.5466   -1.9533   20.0394 N.am    1  UNL1       -0.2986
     26 H           4.8511   -1.3112   20.7207 H       1  UNL1        0.1498
     27 C           3.2506   -1.7249   19.3195 C.3     1  UNL1        0.1165
     28 C           2.7802   -0.3268   19.0472 C.3     1  UNL1        0.1063
     29 O           4.0178   -0.4322   18.2063 O.3     1  UNL1       -0.3851
     30 C           2.8606    1.0244   18.4007 C.3     1  UNL1        0.0286
     31 C           1.9325    2.1925   18.5567 C.3     1  UNL1        0.0025
     32 C           0.6950    2.2979   19.3976 C.3     1  UNL1        0.0001
     33 C           0.0797    1.2613   20.2903 C.3     1  UNL1        0.0001
     34 C           0.5501   -0.1368   20.5626 C.3     1  UNL1        0.0025
     35 C           1.7520   -0.8435   20.0093 C.3     1  UNL1        0.0286
     36 H           4.1626    0.4047   17.7378 H       1  UNL1        0.2103
@<TRIPOS>BOND
     1    21    22    1
     2    22    20    1
     3    20    17    1
     4    17    18    1
     5    17    16    1
     6    16     8    1
     7     8     9   ar
     8     9    10    2
     9     9    11   ar
    10    11    12   ar
    11    12    13   ar
    12    13     1    1
    13     1     2   ar
    14     2     3   ar
    15     3     4   ar
    16     4     5    1
    17     4     6   ar
    18     6    23    1
    19    23    24    2
    20    23    25   am
    21    25    27    1
    22    27    28    1
    23    28    29    1
    24    28    30    1
    25    30    31    1
    26    31    32    1
    27    32    33    1
    28    33    34    1
    29    34    35    1
    30     6     7   ar
    31    13    14   ar
    32    14    15    2
    33    14     8   ar
    34     7     1   ar
    35    35    28    1
    36    18    19    1
    37    25    26    1
    38    29    36    1
@<TRIPOS>MOLECULE
*****
 36 38 0 0 0
SMALL
GASTEIGER

@<TRIPOS>ATOM
      1 C           7.8973   -4.6663   21.8582 C.ar    1  UNL1        0.0876
      2 C           8.6003   -5.9752   21.6514 C.ar    1  UNL1        0.0202
      3 C           8.8899   -6.8645   22.8241 C.ar    1  UNL1        0.0131
      4 C           8.4764   -6.4450   24.2036 C.ar    1  UNL1        0.0621
      5 CL          8.7660   -7.3343   25.3763 Cl      1  UNL1       -0.0821
      6 C           7.7734   -5.1361   24.4104 C.ar    1  UNL1        0.0654
      7 C           7.4839   -4.2468   23.2377 C.ar    1  UNL1        0.0247
      8 N           5.9532   -2.8876   18.8906 N.ar    1  UNL1       -0.2434
      9 C           7.0285   -1.9984   18.3401 C.ar    1  UNL1        0.2855
     10 O           6.7388   -1.1091   17.1673 O.2     1  UNL1       -0.2651
     11 C           8.3933   -1.9985   18.9622 C.ar    1  UNL1        0.1813
     12 N           8.6830   -2.8879   20.1349 N.ar    1  UNL1       -0.1547
     13 N           7.6077   -3.7770   20.6855 N.ar    1  UNL1       -0.1797
     14 C           6.2428   -3.7769   20.0633 C.ar    1  UNL1        0.3536
     15 O           5.1675   -4.6661   20.6139 O.2     1  UNL1       -0.2443
     16 C           4.5883   -2.8874   18.2684 C.3     1  UNL1        0.1453
     17 C           3.9624   -1.5955   17.8336 C.3     1  UNL1        0.1627
     18 O           3.9209   -1.2346   16.3783 O.3     1  UNL1       -0.3799
     19 H           3.5257   -0.3548   16.2745 H       1  UNL1        0.2105
     20 C           3.3779   -0.6645   18.8542 C.3     1  UNL1        0.1733
     21 C           1.1544   -0.6663   20.1982 C.3     1  UNL1        0.1742
     22 O           2.5343   -1.2079   19.9692 O.3     1  UNL1       -0.3485
     23 C           7.3600   -4.7166   25.7899 C.2     1  UNL1        0.2468
     24 O           7.8335   -3.4078   26.3493 O.2     1  UNL1       -0.2701
     25 N           6.4731   -5.6059   26.6101 N.am    1  UNL1       -0.2986
     26 H           6.1624   -6.4649   26.2430 H       1  UNL1        0.1498
     27 C           6.0597   -5.1863   27.9896 C.3     1  UNL1        0.1165
     28 C           7.0315   -5.2891   29.1276 C.3     1  UNL1        0.1063
     29 O           7.1393   -6.6349   28.4741 O.3     1  UNL1       -0.3851
     30 C           8.0513   -5.9910   29.9748 C.3     1  UNL1        0.0286
     31 C           8.7827   -5.4744   31.1783 C.3     1  UNL1        0.0025
     32 C           8.6749   -4.1287   31.8318 C.3     1  UNL1        0.0001
     33 C           7.8092   -2.9669   31.4434 C.3     1  UNL1        0.0001
     34 C           6.8374   -2.8641   30.3054 C.3     1  UNL1        0.0025
     35 C           6.4913   -3.8976   29.2748 C.3     1  UNL1        0.0286
     36 H           7.7853   -7.1766   28.9540 H       1  UNL1        0.2103
@<TRIPOS>BOND
     1    21    22    1
     2    22    20    1
     3    20    17    1
     4    17    18    1
     5    17    16    1
     6    16     8    1
     7     8     9   ar
     8     9    10    2
     9     9    11   ar
    10    11    12   ar
    11    12    13   ar
    12    13     1    1
    13     1     2   ar
    14     2     3   ar
    15     3     4   ar
    16     4     5    1
    17     4     6   ar
    18     6    23    1
    19    23    24    2
    20    23    25   am
    21    25    27    1
    22    27    28    1
    23    28    29    1
    24    28    30    1
    25    30    31    1
    26    31    32    1
    27    32    33    1
    28    33    34    1
    29    34    35    1
    30     6     7   ar
    31    13    14   ar
    32    14    15    2
    33    14     8   ar
    34     7     1   ar
    35    35    28    1
    36    18    19    1
    37    25    26    1
    38    29    36    1
@<TRIPOS>MOLECULE
*****
 36 38 0 0 0
SMALL
GASTEIGER

@<TRIPOS>ATOM
      1 C           1.0595    3.0214   18.4863 C.ar    1  UNL1        0.0876
      2 C           2.1603    4.0401   18.5074 C.ar    1  UNL1        0.0202
      3 C           3.5918    3.5992   18.4291 C.ar    1  UNL1        0.0131
      4 C           3.9226    2.1395   18.3295 C.ar    1  UNL1        0.0621
      5 CL          5.3542    1.6985   18.2511 Cl      1  UNL1       -0.0821
      6 C           2.8219    1.1207   18.3083 C.ar    1  UNL1        0.0654
      7 C           1.3902    1.5617   18.3867 C.ar    1  UNL1        0.0247
      8 N          -2.4437    4.1391   19.9790 N.ar    1  UNL1       -0.2434
      9 C          -3.2353    4.3441   18.7214 C.ar    1  UNL1        0.2855
     10 O          -4.6669    4.7851   18.7999 O.2     1  UNL1       -0.2651
     11 C          -2.5953    4.1082   17.3855 C.ar    1  UNL1        0.1813
     12 N          -1.1636    3.6673   17.3071 N.ar    1  UNL1       -0.1547
     13 N          -0.3721    3.4623   18.5646 N.ar    1  UNL1       -0.1797
     14 C          -1.0122    3.6982   19.9006 C.ar    1  UNL1        0.3536
     15 O          -0.2206    3.4932   21.1581 O.2     1  UNL1       -0.2443
     16 C          -3.0838    4.3750   21.3149 C.3     1  UNL1        0.1453
     17 C          -4.0845    3.3945   21.8507 C.3     1  UNL1        0.1627
     18 O          -4.6477    2.3320   20.9541 O.3     1  UNL1       -0.3799
     19 H          -5.3077    1.8144   21.4412 H       1  UNL1        0.2105
     20 C          -4.5221    3.4766   23.2831 C.3     1  UNL1        0.1733
     21 C          -6.9829    4.2394   22.9470 C.3     1  UNL1        0.1742
     22 O          -5.6723    4.3599   23.6665 O.3     1  UNL1       -0.3485
     23 C           3.1526   -0.3389   18.2088 C.2     1  UNL1        0.2468
     24 O           3.5672   -0.9259   16.8920 O.2     1  UNL1       -0.2701
     25 N           3.0689   -1.2116   19.4259 N.am    1  UNL1       -0.2986
     26 H           2.7969   -0.8264   20.2901 H       1  UNL1        0.1498
     27 C           3.3997   -2.6714   19.3263 C.3     1  UNL1        0.1165
     28 C           4.7179   -3.1779   19.8322 C.3     1  UNL1        0.1063
     29 O           4.8600   -3.3058   18.3444 O.3     1  UNL1       -0.3851
     30 C           6.0993   -3.7413   19.6759 C.3     1  UNL1        0.0286
     31 C           7.0932   -4.0906   20.7438 C.3     1  UNL1        0.0025
     32 C           6.9511   -3.9627   22.2314 C.3     1  UNL1        0.0001
     33 C           5.7802   -3.4540   23.0189 C.3     1  UNL1        0.0001
     34 C           4.4620   -2.9475   22.5130 C.3     1  UNL1        0.0025
     35 C           3.9893   -2.8246   21.0947 C.3     1  UNL1        0.0286
     36 H           5.7347   -3.6679   18.1331 H       1  UNL1        0.2103
@<TRIPOS>BOND
     1    21    22    1
     2    22    20    1
     3    20    17    1
     4    17    18    1
     5    17    16    1
     6    16     8    1
     7     8     9   ar
     8     9    10    2
     9     9    11   ar
    10    11    12   ar
    11    12    13   ar
    12    13     1    1
    13     1     2   ar
    14     2     3   ar
    15     3     4   ar
    16     4     5    1
    17     4     6   ar
    18     6    23    1
    19    23    24    2
    20    23    25   am
    21    25    27    1
    22    27    28    1
    23    28    29    1
    24    28    30    1
    25    30    31    1
    26    31    32    1
    27    32    33    1
    28    33    34    1
    29    34    35    1
    30     6     7   ar
    31    13    14   ar
    32    14    15    2
    33    14     8   ar
    34     7     1   ar
    35    35    28    1
    36    18    19    1
    37    25    26    1
    38    29    36    1
@<TRIPOS>MOLECULE
*****
 36 38 0 0 0
SMALL
GASTEIGER

@<TRIPOS>ATOM
      1 C           5.0191   -0.4706   27.6671 C.ar    1  UNL1        0.0876
      2 C           5.1546    0.9697   27.2708 C.ar    1  UNL1        0.0202
      3 C           5.4354    1.3312   25.8423 C.ar    1  UNL1        0.0131
      4 C           5.5806    0.2525   24.8102 C.ar    1  UNL1        0.0621
      5 CL          5.8614    0.6140   23.3818 Cl      1  UNL1       -0.0821
      6 C           5.4451   -1.1879   25.2066 C.ar    1  UNL1        0.0654
      7 C           5.1643   -1.5494   26.6351 C.ar    1  UNL1        0.0247
      8 N           5.5335   -1.8125   31.3664 N.ar    1  UNL1       -0.2434
      9 C           4.1768   -1.5553   31.9525 C.ar    1  UNL1        0.2855
     10 O           3.8961   -1.9169   33.3809 O.2     1  UNL1       -0.2651
     11 C           3.1010   -0.9366   31.1101 C.ar    1  UNL1        0.1813
     12 N           3.3817   -0.5750   29.6816 N.ar    1  UNL1       -0.1547
     13 N           4.7383   -0.8322   29.0955 N.ar    1  UNL1       -0.1797
     14 C           5.8142   -1.4509   29.9380 C.ar    1  UNL1        0.3536
     15 O           7.1708   -1.7081   29.3520 O.2     1  UNL1       -0.2443
     16 C           6.6094   -2.4313   32.2089 C.3     1  UNL1        0.1453
     17 C           6.8976   -3.8991   32.0980 C.3     1  UNL1        0.1627
     18 O           5.9973   -4.8931   32.7699 O.3     1  UNL1       -0.3799
     19 H           6.3474   -5.7879   32.6371 H       1  UNL1        0.2105
     20 C           8.0863   -4.3729   31.3154 C.3     1  UNL1        0.1733
     21 C           6.6834   -5.2603   29.3168 C.3     1  UNL1        0.1742
     22 O           7.9026   -5.3435   30.1866 O.3     1  UNL1       -0.3485
     23 C           5.5903   -2.2666   24.1746 C.2     1  UNL1        0.2468
     24 O           6.8879   -3.0074   24.0414 O.2     1  UNL1       -0.2701
     25 N           4.4380   -2.6046   23.2757 N.am    1  UNL1       -0.2986
     26 H           3.5864   -2.1184   23.3630 H       1  UNL1        0.1498
     27 C           4.5833   -3.6835   22.2436 C.3     1  UNL1        0.1165
     28 C           5.0504   -3.3399   20.8602 C.3     1  UNL1        0.1063
     29 O           6.1016   -4.2966   21.3393 O.3     1  UNL1       -0.3851
     30 C           5.9853   -3.4221   19.6900 C.3     1  UNL1        0.0286
     31 C           5.8920   -2.7208   18.3673 C.3     1  UNL1        0.0025
     32 C           4.8408   -1.7642   17.8881 C.3     1  UNL1        0.0001
     33 C           3.6232   -1.2725   18.6132 C.3     1  UNL1        0.0001
     34 C           3.1561   -1.6161   19.9966 C.3     1  UNL1        0.0025
     35 C           3.7914   -2.5362   20.9966 C.3     1  UNL1        0.0286
     36 H           6.7666   -4.4210   20.6441 H       1  UNL1        0.2103
@<TRIPOS>BOND
     1    21    22    1
     2    22    20    1
     3    20    17    1
     4    17    18    1
     5    17    16    1
     6    16     8    1
     7     8     9   ar
     8     9    10    2
     9     9    11   ar
    10    11    12   ar
    11    12    13   ar
    12    13     1    1
    13     1     2   ar
    14     2     3   ar
    15     3     4   ar
    16     4     5    1
    17     4     6   ar
    18     6    23    1
    19    23    24    2
    20    23    25   am
    21    25    27    1
    22    27    28    1
    23    28    29    1
    24    28    30    1
    25    30    31    1
    26    31    32    1
    27    32    33    1
    28    33    34    1
    29    34    35    1
    30     6     7   ar
    31    13    14   ar
    32    14    15    2
    33    14     8   ar
    34     7     1   ar
    35    35    28    1
    36    18    19    1
    37    25    26    1
    38    29    36    1
@<TRIPOS>MOLECULE
*****
 36 38 0 0 0
SMALL
GASTEIGER

@<TRIPOS>ATOM
      1 C           4.6429   -0.9391   23.7236 C.ar    1  UNL1        0.0876
      2 C           5.9242   -0.1915   23.9459 C.ar    1  UNL1        0.0202
      3 C           6.1597    0.5238   25.2430 C.ar    1  UNL1        0.0131
      4 C           5.1140    0.4917   26.3180 C.ar    1  UNL1        0.0621
      5 CL          5.3495    1.2070   27.6151 Cl      1  UNL1       -0.0821
      6 C           3.8327   -0.2560   26.0957 C.ar    1  UNL1        0.0654
      7 C           3.5972   -0.9714   24.7984 C.ar    1  UNL1        0.0247
      8 N           3.7456   -1.5998   19.9146 N.ar    1  UNL1       -0.2434
      9 C           3.9363   -3.0853   19.8320 C.ar    1  UNL1        0.2855
     10 O           3.7007   -3.8007   18.5347 O.2     1  UNL1       -0.2651
     11 C           4.3625   -3.8555   21.0465 C.ar    1  UNL1        0.1813
     12 N           4.5980   -3.1401   22.3438 N.ar    1  UNL1       -0.1547
     13 N           4.4074   -1.6545   22.4264 N.ar    1  UNL1       -0.1797
     14 C           3.9812   -0.8844   21.2118 C.ar    1  UNL1        0.3536
     15 O           3.7905    0.6012   21.2944 O.2     1  UNL1       -0.2443
     16 C           3.3194   -0.8296   18.6999 C.3     1  UNL1        0.1453
     17 C           4.1701   -0.8462   17.4647 C.3     1  UNL1        0.1627
     18 O           3.6759   -1.5268   16.2227 O.3     1  UNL1       -0.3799
     19 H           4.3601   -1.4838   15.5364 H       1  UNL1        0.2105
     20 C           5.5151   -0.1821   17.4714 C.3     1  UNL1        0.1733
     21 C           7.0083   -2.1981   18.1468 C.3     1  UNL1        0.1742
     22 O           6.7569   -1.0011   17.2785 O.3     1  UNL1       -0.3485
     23 C           2.7870   -0.2882   27.1705 C.2     1  UNL1        0.2468
     24 O           2.9650   -1.1798   28.3636 O.2     1  UNL1       -0.2701
     25 N           1.5632    0.5712   27.0524 N.am    1  UNL1       -0.2986
     26 H           1.4464    1.1564   26.2693 H       1  UNL1        0.1498
     27 C           0.5175    0.5389   28.1273 C.3     1  UNL1        0.1165
     28 C           0.6098    1.4798   29.2919 C.3     1  UNL1        0.1063
     29 O           0.7409    0.1332   29.9396 O.3     1  UNL1       -0.3851
     30 C           0.7605    1.8212   30.7448 C.3     1  UNL1        0.0286
     31 C           0.7762    3.1751   31.3905 C.3     1  UNL1        0.0025
     32 C           0.6451    4.5216   30.7430 C.3     1  UNL1        0.0001
     33 C           0.4659    4.8471   29.2897 C.3     1  UNL1        0.0001
     34 C           0.3736    3.9063   28.1251 C.3     1  UNL1        0.0025
     35 C           0.4376    2.4077   28.1261 C.3     1  UNL1        0.0286
     36 H           0.8451    0.2439   30.8976 H       1  UNL1        0.2103
@<TRIPOS>BOND
     1    21    22    1
     2    22    20    1
     3    20    17    1
     4    17    18    1
     5    17    16    1
     6    16     8    1
     7     8     9   ar
     8     9    10    2
     9     9    11   ar
    10    11    12   ar
    11    12    13   ar
    12    13     1    1
    13     1     2   ar
    14     2     3   ar
    15     3     4   ar
    16     4     5    1
    17     4     6   ar
    18     6    23    1
    19    23    24    2
    20    23    25   am
    21    25    27    1
    22    27    28    1
    23    28    29    1
    24    28    30    1
    25    30    31    1
    26    31    32    1
    27    32    33    1
    28    33    34    1
    29    34    35    1
    30     6     7   ar
    31    13    14   ar
    32    14    15    2
    33    14     8   ar
    34     7     1   ar
    35    35    28    1
    36    18    19    1
    37    25    26    1
    38    29    36    1
@<TRIPOS>MOLECULE
*****
 36 38 0 0 0
SMALL
GASTEIGER

@<TRIPOS>ATOM
      1 C           6.7330   -3.6217   24.0526 C.ar    1  UNL1        0.0876
      2 C           7.2047   -4.9507   24.5636 C.ar    1  UNL1        0.0202
      3 C           7.1216   -5.2635   26.0283 C.ar    1  UNL1        0.0131
      4 C           6.5667   -4.2472   26.9819 C.ar    1  UNL1        0.0621
      5 CL          6.4836   -4.5600   28.4466 Cl      1  UNL1       -0.0821
      6 C           6.0950   -2.9182   26.4709 C.ar    1  UNL1        0.0654
      7 C           6.1781   -2.6055   25.0061 C.ar    1  UNL1        0.0247
      8 N           5.6821   -3.1322   20.2571 N.ar    1  UNL1       -0.2434
      9 C           6.9822   -2.6834   19.6586 C.ar    1  UNL1        0.2855
     10 O           7.0653   -2.3706   18.1938 O.2     1  UNL1       -0.2651
     11 C           8.1993   -2.5474   20.5247 C.ar    1  UNL1        0.1813
     12 N           8.1162   -2.8601   21.9894 N.ar    1  UNL1       -0.1547
     13 N           6.8161   -3.3089   22.5879 N.ar    1  UNL1       -0.1797
     14 C           5.5990   -3.4449   21.7217 C.ar    1  UNL1        0.3536
     15 O           4.2988   -3.8937   22.3202 O.2     1  UNL1       -0.2443
     16 C           4.4650   -3.2682   19.3908 C.3     1  UNL1        0.1453
     17 C           3.9807   -2.0969   18.5887 C.3     1  UNL1        0.1627
     18 O           4.2859   -2.0144   17.1224 O.3     1  UNL1       -0.3799
     19 H           3.9414   -1.1803   16.7668 H       1  UNL1        0.2105
     20 C           3.1911   -1.0081   19.2528 C.3     1  UNL1        0.1733
     21 C           0.8651   -0.3692   20.2180 C.3     1  UNL1        0.1742
     22 O           1.9901   -1.3522   20.0830 O.3     1  UNL1       -0.3485
     23 C           5.5401   -1.9020   27.4245 C.2     1  UNL1        0.2468
     24 O           6.4694   -1.0607   28.2484 O.2     1  UNL1       -0.2701
     25 N           4.0561   -1.7269   27.5541 N.am    1  UNL1       -0.2986
     26 H           3.4461   -2.2790   27.0133 H       1  UNL1        0.1498
     27 C           3.5012   -0.7106   28.5078 C.3     1  UNL1        0.1165
     28 C           2.0682   -0.2817   28.3966 C.3     1  UNL1        0.1063
     29 O           2.0942   -1.0240   29.6998 O.3     1  UNL1       -0.3851
     30 C           0.6466   -0.1832   28.8655 C.3     1  UNL1        0.0286
     31 C          -0.5142    0.4912   28.1963 C.3     1  UNL1        0.0025
     32 C          -0.5403    1.2335   26.8932 C.3     1  UNL1        0.0001
     33 C           0.5880    1.4848   25.9372 C.3     1  UNL1        0.0001
     34 C           2.0211    1.0559   26.0484 C.3     1  UNL1        0.0025
     35 C           2.6797    0.2697   27.1430 C.3     1  UNL1        0.0286
     36 H           1.2072   -1.0190   30.0925 H       1  UNL1        0.2103
@<TRIPOS>BOND
     1    21    22    1
     2    22    20    1
     3    20    17    1
     4    17    18    1
     5    17    16    1
     6    16     8    1
     7     8     9   ar
     8     9    10    2
     9     9    11   ar
    10    11    12   ar
    11    12    13   ar
    12    13     1    1
    13     1     2   ar
    14     2     3   ar
    15     3     4   ar
    16     4     5    1
    17     4     6   ar
    18     6    23    1
    19    23    24    2
    20    23    25   am
    21    25    27    1
    22    27    28    1
    23    28    29    1
    24    28    30    1
    25    30    31    1
    26    31    32    1
    27    32    33    1
    28    33    34    1
    29    34    35    1
    30     6     7   ar
    31    13    14   ar
    32    14    15    2
    33    14     8   ar
    34     7     1   ar
    35    35    28    1
    36    18    19    1
    37    25    26    1
    38    29    36    1
@<TRIPOS>MOLECULE
*****
 36 38 0 0 0
SMALL
GASTEIGER

@<TRIPOS>ATOM
      1 C          -1.3279    3.7062   25.7356 C.ar    1  UNL1        0.0876
      2 C          -2.8138    3.9101   25.7534 C.ar    1  UNL1        0.0202
      3 C          -3.5906    3.8790   24.4706 C.ar    1  UNL1        0.0131
      4 C          -2.8814    3.6439   23.1699 C.ar    1  UNL1        0.0621
      5 CL         -3.6581    3.6127   21.8871 Cl      1  UNL1       -0.0821
      6 C          -1.3954    3.4399   23.1521 C.ar    1  UNL1        0.0654
      7 C          -0.6187    3.4711   24.4350 C.ar    1  UNL1        0.0247
      8 N           0.3753    2.5192   29.1179 N.ar    1  UNL1       -0.2434
      9 C           1.0024    3.7996   29.5841 C.ar    1  UNL1        0.2855
     10 O           1.7792    3.8307   30.8670 O.2     1  UNL1       -0.2651
     11 C           0.8527    5.0489   28.7675 C.ar    1  UNL1        0.1813
     12 N           0.0759    5.0178   27.4846 N.ar    1  UNL1       -0.1547
     13 N          -0.5511    3.7373   27.0184 N.ar    1  UNL1       -0.1797
     14 C          -0.4014    2.4880   27.8351 C.ar    1  UNL1        0.3536
     15 O          -1.0284    1.2076   27.3689 O.2     1  UNL1       -0.2443
     16 C           0.5251    1.2699   29.9346 C.3     1  UNL1        0.1453
     17 C           1.5211    0.2240   29.5296 C.3     1  UNL1        0.1627
     18 O           1.2922   -0.5897   28.2904 O.3     1  UNL1       -0.3799
     19 H           2.0017   -1.2447   28.1981 H       1  UNL1        0.2105
     20 C           2.7458   -0.0083   30.3637 C.3     1  UNL1        0.1733
     21 C           4.0173   -1.4298   32.1280 C.3     1  UNL1        0.1742
     22 O           2.7451   -1.0775   31.4159 O.3     1  UNL1       -0.3485
     23 C          -0.6862    3.2048   21.8514 C.2     1  UNL1        0.2468
     24 O           0.0233    4.3366   21.1687 O.2     1  UNL1       -0.2701
     25 N          -0.6863    1.8381   21.2334 N.am    1  UNL1       -0.2986
     26 H          -1.1519    1.0953   21.6815 H       1  UNL1        0.1498
     27 C           0.0230    1.6030   19.9327 C.3     1  UNL1        0.1165
     28 C           1.0206    0.4893   19.8131 C.3     1  UNL1        0.1063
     29 O          -0.0891   -0.1401   20.6021 O.3     1  UNL1       -0.3851
     30 C           1.5243   -0.9046   20.0446 C.3     1  UNL1        0.0286
     31 C           2.8183   -1.5177   19.5975 C.3     1  UNL1        0.0025
     32 C           3.9280   -0.8884   18.8086 C.3     1  UNL1        0.0001
     33 C           4.0179    0.5094   18.2718 C.3     1  UNL1        0.0001
     34 C           3.0203    1.6231   18.3914 C.3     1  UNL1        0.0025
     35 C           1.6863    1.6141   19.0774 C.3     1  UNL1        0.0286
     36 H           0.1412   -1.0597   20.8071 H       1  UNL1        0.2103
@<TRIPOS>BOND
     1    21    22    1
     2    22    20    1
     3    20    17    1
     4    17    18    1
     5    17    16    1
     6    16     8    1
     7     8     9   ar
     8     9    10    2
     9     9    11   ar
    10    11    12   ar
    11    12    13   ar
    12    13     1    1
    13     1     2   ar
    14     2     3   ar
    15     3     4   ar
    16     4     5    1
    17     4     6   ar
    18     6    23    1
    19    23    24    2
    20    23    25   am
    21    25    27    1
    22    27    28    1
    23    28    29    1
    24    28    30    1
    25    30    31    1
    26    31    32    1
    27    32    33    1
    28    33    34    1
    29    34    35    1
    30     6     7   ar
    31    13    14   ar
    32    14    15    2
    33    14     8   ar
    34     7     1   ar
    35    35    28    1
    36    18    19    1
    37    25    26    1
    38    29    36    1
@<TRIPOS>MOLECULE
*****
 36 38 0 0 0
SMALL
GASTEIGER

@<TRIPOS>ATOM
      1 C          -0.9764    2.6116   26.1705 C.ar    1  UNL1        0.0876
      2 C          -2.2865    3.3235   26.3346 C.ar    1  UNL1        0.0202
      3 C          -2.9628    3.9340   25.1430 C.ar    1  UNL1        0.0131
      4 C          -2.3290    3.8325   23.7872 C.ar    1  UNL1        0.0621
      5 CL         -3.0053    4.4430   22.5956 Cl      1  UNL1       -0.0821
      6 C          -1.0189    3.1206   23.6231 C.ar    1  UNL1        0.0654
      7 C          -0.3427    2.5102   24.8148 C.ar    1  UNL1        0.0247
      8 N           0.9398    2.2716   29.6291 N.ar    1  UNL1       -0.2434
      9 C           1.0525    0.7803   29.7453 C.ar    1  UNL1        0.2855
     10 O           1.7288    0.1699   30.9370 O.2     1  UNL1       -0.2651
     11 C           0.4889   -0.1005   28.6699 C.ar    1  UNL1        0.1813
     12 N          -0.1874    0.5100   27.4782 N.ar    1  UNL1       -0.1547
     13 N          -0.3001    2.0012   27.3621 N.ar    1  UNL1       -0.1797
     14 C           0.2635    2.8820   28.4375 C.ar    1  UNL1        0.3536
     15 O           0.1507    4.3732   28.3214 O.2     1  UNL1       -0.2443
     16 C           1.5034    3.1524   30.7046 C.3     1  UNL1        0.1453
     17 C           0.8573    3.1908   32.0578 C.3     1  UNL1        0.1627
     18 O           1.0708    2.0628   33.0232 O.3     1  UNL1       -0.3799
     19 H           0.5518    2.2225   33.8269 H       1  UNL1        0.2105
     20 C          -0.0023    4.3573   32.4455 C.3     1  UNL1        0.1733
     21 C          -0.8909    6.4858   31.2497 C.3     1  UNL1        0.1742
     22 O           0.2470    5.7068   31.8399 O.3     1  UNL1       -0.3485
     23 C          -0.3852    3.0192   22.2674 C.2     1  UNL1        0.2468
     24 O           0.4667    4.1411   21.7518 O.2     1  UNL1       -0.2701
     25 N          -0.6032    1.7958   21.4272 N.am    1  UNL1       -0.2986
     26 H          -1.1622    1.0595   21.7655 H       1  UNL1        0.1498
     27 C           0.0307    1.6944   20.0714 C.3     1  UNL1        0.1165
     28 C           1.0619    0.6388   19.8027 C.3     1  UNL1        0.1063
     29 O           0.0075   -0.1104   20.5623 O.3     1  UNL1       -0.3851
     30 C           1.6238   -0.7503   19.8720 C.3     1  UNL1        0.0286
     31 C           2.9201   -1.2635   19.3184 C.3     1  UNL1        0.0025
     32 C           3.9744   -0.5144   18.5589 C.3     1  UNL1        0.0001
     33 C           3.9931    0.9329   18.1652 C.3     1  UNL1        0.0001
     34 C           2.9619    1.9886   18.4339 C.3     1  UNL1        0.0025
     35 C           1.6574    1.8576   19.1627 C.3     1  UNL1        0.0286
     36 H           0.2784   -1.0363   20.6637 H       1  UNL1        0.2103
@<TRIPOS>BOND
     1    21    22    1
     2    22    20    1
     3    20    17    1
     4    17    18    1
     5    17    16    1
     6    16     8    1
     7     8     9   ar
     8     9    10    2
     9     9    11   ar
    10    11    12   ar
    11    12    13   ar
    12    13     1    1
    13     1     2   ar
    14     2     3   ar
    15     3     4   ar
    16     4     5    1
    17     4     6   ar
    18     6    23    1
    19    23    24    2
    20    23    25   am
    21    25    27    1
    22    27    28    1
    23    28    29    1
    24    28    30    1
    25    30    31    1
    26    31    32    1
    27    32    33    1
    28    33    34    1
    29    34    35    1
    30     6     7   ar
    31    13    14   ar
    32    14    15    2
    33    14     8   ar
    34     7     1   ar
    35    35    28    1
    36    18    19    1
    37    25    26    1
    38    29    36    1
@<TRIPOS>MOLECULE
*****
 36 38 0 0 0
SMALL
GASTEIGER

@<TRIPOS>ATOM
      1 C         -16.8651    1.2381   20.2145 C.ar    1  UNL1        0.0876
      2 C         -17.2386    1.6725   18.8282 C.ar    1  UNL1        0.0202
      3 C         -16.9882    0.7610   17.6635 C.ar    1  UNL1        0.0131
      4 C         -16.3641   -0.5849   17.8852 C.ar    1  UNL1        0.0621
      5 CL        -16.1136   -1.4964   16.7205 Cl      1  UNL1       -0.0821
      6 C         -15.9906   -1.0193   19.2715 C.ar    1  UNL1        0.0654
      7 C         -16.2411   -0.1078   20.4361 C.ar    1  UNL1        0.0247
      8 N         -16.5862    4.3352   22.6803 N.ar    1  UNL1       -0.2434
      9 C         -17.6166    3.9727   23.7084 C.ar    1  UNL1        0.2855
     10 O         -17.8670    4.8842   24.8730 O.2     1  UNL1       -0.2651
     11 C         -18.3964    2.6986   23.5719 C.ar    1  UNL1        0.1813
     12 N         -18.1459    1.7871   22.4072 N.ar    1  UNL1       -0.1547
     13 N         -17.1156    2.1496   21.3791 N.ar    1  UNL1       -0.1797
     14 C         -16.3357    3.4237   21.5156 C.ar    1  UNL1        0.3536
     15 O         -15.3054    3.7862   20.4875 O.2     1  UNL1       -0.2443
     16 C         -15.8064    5.6093   22.8168 C.3     1  UNL1        0.1453
     17 C         -14.4067    5.5778   23.3551 C.3     1  UNL1        0.1627
     18 O         -13.4099    4.6061   22.7963 O.3     1  UNL1       -0.3799
     19 H         -12.5735    4.6862   23.2811 H       1  UNL1        0.2105
     20 C         -14.0037    6.5181   24.4521 C.3     1  UNL1        0.1733
     21 C         -14.7860    5.0486   26.4468 C.3     1  UNL1        0.1742
     22 O         -13.7957    6.0008   25.8447 O.3     1  UNL1       -0.3485
     23 C         -15.3666   -2.3652   19.4931 C.2     1  UNL1        0.2468
     24 O         -16.2106   -3.6035   19.4263 O.2     1  UNL1       -0.2701
     25 N         -13.8985   -2.4729   19.7816 N.am    1  UNL1       -0.2986
     26 H         -13.3445   -1.6603   19.8254 H       1  UNL1        0.1498
     27 C         -13.2745   -3.8189   20.0032 C.3     1  UNL1        0.1165
     28 C         -11.9816   -4.1667   19.3268 C.3     1  UNL1        0.1063
     29 O         -11.8554   -2.6885   19.5479 O.3     1  UNL1       -0.3851
     30 C         -10.6326   -3.8566   18.7488 C.3     1  UNL1        0.0286
     31 C          -9.6519   -4.7935   18.1080 C.3     1  UNL1        0.0025
     32 C          -9.7780   -6.2717   17.8870 C.3     1  UNL1        0.0001
     33 C         -10.9160   -7.1782   18.2521 C.3     1  UNL1        0.0001
     34 C         -12.2088   -6.8304   18.9284 C.3     1  UNL1        0.0025
     35 C         -12.6830   -5.4901   19.4067 C.3     1  UNL1        0.0286
     36 H         -11.0022   -2.3817   19.2033 H       1  UNL1        0.2103
@<TRIPOS>BOND
     1    21    22    1
     2    22    20    1
     3    20    17    1
     4    17    18    1
     5    17    16    1
     6    16     8    1
     7     8     9   ar
     8     9    10    2
     9     9    11   ar
    10    11    12   ar
    11    12    13   ar
    12    13     1    1
    13     1     2   ar
    14     2     3   ar
    15     3     4   ar
    16     4     5    1
    17     4     6   ar
    18     6    23    1
    19    23    24    2
    20    23    25   am
    21    25    27    1
    22    27    28    1
    23    28    29    1
    24    28    30    1
    25    30    31    1
    26    31    32    1
    27    32    33    1
    28    33    34    1
    29    34    35    1
    30     6     7   ar
    31    13    14   ar
    32    14    15    2
    33    14     8   ar
    34     7     1   ar
    35    35    28    1
    36    18    19    1
    37    25    26    1
    38    29    36    1
