@<TRIPOS>MOLECULE
*****
 29 32 0 0 0
SMALL
GASTEIGER

@<TRIPOS>ATOM
      1 C           3.9435    3.4863   18.1714 C.3     1  UNL1        0.0282
      2 C           2.6751    2.8848   18.7001 C.3     1  UNL1        0.1189
      3 C           1.3790    3.6273   18.5635 C.ar    1  UNL1        0.1138
      4 N           1.0440    4.9590   17.9599 N.ar    1  UNL1       -0.1315
      5 N          -0.4314    5.1804   18.1155 N.ar    1  UNL1       -0.0576
      6 N          -1.0082    3.9856   18.8153 N.ar    1  UNL1       -0.1813
      7 C           0.1107    3.0257   19.0922 C.ar    1  UNL1        0.0837
      8 C           0.1385    1.6816   19.7575 C.3     1  UNL1        0.0688
      9 C           1.4346    0.9391   19.8940 C.3     1  UNL1        0.1004
     10 N           2.7029    1.5406   19.3654 N.am    1  UNL1       -0.2719
     11 C           3.9991    0.7980   19.5020 C.2     1  UNL1        0.2501
     12 O           5.2674    1.3996   18.9733 O.2     1  UNL1       -0.2699
     13 C           4.0269   -0.5461   20.1672 C.ar    1  UNL1        0.0641
     14 C           3.8837   -0.6488   21.6568 C.ar    1  UNL1        0.0054
     15 C           3.9116   -1.9930   22.3220 C.ar    1  UNL1        0.0001
     16 C           4.0825   -3.2344   21.4977 C.ar    1  UNL1        0.0047
     17 C           4.2257   -3.1317   20.0080 C.ar    1  UNL1        0.0821
     18 C           4.1979   -1.7875   19.3427 C.ar    1  UNL1        0.0659
     19 CL          4.3410   -1.6849   17.8531 Cl      1  UNL1       -0.0822
     20 C           4.3967   -4.3731   19.1836 C.3     1  UNL1        0.4194
     21 F           4.5676   -5.6146   18.3592 F       1  UNL1       -0.1658
     22 F           2.9119   -4.4439   18.9823 F       1  UNL1       -0.1658
     23 F           5.8814   -4.3023   19.3849 F       1  UNL1       -0.1658
     24 C          -2.4507    3.7858   19.1751 C.ar    1  UNL1        0.2541
     25 N          -2.8289    3.4107   20.5773 N.ar    1  UNL1       -0.2084
     26 C          -4.2714    3.2109   20.9371 C.ar    1  UNL1        0.1037
     27 C          -5.3356    3.3862   19.8947 C.ar    1  UNL1        0.0415
     28 C          -4.9573    3.7613   18.4924 C.ar    1  UNL1        0.1037
     29 N          -3.5149    3.9611   18.1326 N.ar    1  UNL1       -0.2084
@<TRIPOS>BOND
     1     2     1    1
     2     2     3    1
     3     3     4   ar
     4     4     5   ar
     5     5     6   ar
     6     6    24    1
     7    24    25   ar
     8    25    26   ar
     9    26    27   ar
    10    27    28   ar
    11    28    29   ar
    12     6     7   ar
    13     7     8    1
    14     8     9    1
    15     9    10    1
    16    10    11   am
    17    11    12    2
    18    11    13    1
    19    13    14   ar
    20    14    15   ar
    21    15    16   ar
    22    16    17   ar
    23    17    20    1
    24    20    21    1
    25    20    22    1
    26    20    23    1
    27    17    18   ar
    28    18    19    1
    29    10     2    1
    30    18    13   ar
    31     7     3   ar
    32    29    24   ar
@<TRIPOS>MOLECULE
*****
 29 32 0 0 0
SMALL
GASTEIGER

@<TRIPOS>ATOM
      1 C           8.6017   -6.8776   23.0195 C.3     1  UNL1        0.0282
      2 C           8.0462   -5.9296   24.0408 C.3     1  UNL1        0.1189
      3 C           8.1098   -6.2761   25.4988 C.ar    1  UNL1        0.1138
      4 N           8.6564   -7.4702   26.2237 N.ar    1  UNL1       -0.1315
      5 N           8.4387   -7.2601   27.6928 N.ar    1  UNL1       -0.0576
      6 N           7.7575   -5.9363   27.8760 N.ar    1  UNL1       -0.1813
      7 C           7.5542   -5.3282   26.5199 C.ar    1  UNL1        0.0837
      8 C           6.9351   -4.0337   26.0830 C.3     1  UNL1        0.0688
      9 C           6.8714   -3.6871   24.6250 C.3     1  UNL1        0.1004
     10 N           7.4269   -4.6350   23.6039 N.am    1  UNL1       -0.2719
     11 C           7.3633   -4.2885   22.1458 C.2     1  UNL1        0.2501
     12 O           7.9189   -5.2365   21.1247 O.2     1  UNL1       -0.2699
     13 C           6.7441   -2.9940   21.7089 C.ar    1  UNL1        0.0641
     14 C           7.5741   -1.7457   21.6565 C.ar    1  UNL1        0.0054
     15 C           6.9548   -0.4511   21.2196 C.ar    1  UNL1        0.0001
     16 C           5.5058   -0.4050   20.8351 C.ar    1  UNL1        0.0047
     17 C           4.6757   -1.6534   20.8876 C.ar    1  UNL1        0.0821
     18 C           5.2949   -2.9479   21.3244 C.ar    1  UNL1        0.0659
     19 CL          4.4649   -4.1963   21.3769 Cl      1  UNL1       -0.0822
     20 C           3.2266   -1.6073   20.5031 C.3     1  UNL1        0.4194
     21 F           1.7774   -1.5611   20.1186 F       1  UNL1       -0.1658
     22 F           2.8669   -1.2155   21.9057 F       1  UNL1       -0.1658
     23 F           3.5862   -1.9990   19.1005 F       1  UNL1       -0.1658
     24 C           7.3510   -5.3276   29.1852 C.ar    1  UNL1        0.2541
     25 N           6.9968   -3.8718   29.2576 N.ar    1  UNL1       -0.2084
     26 C           6.5902   -3.2630   30.5669 C.ar    1  UNL1        0.1037
     27 C           6.5379   -4.1100   31.8037 C.ar    1  UNL1        0.0415
     28 C           6.8922   -5.5658   31.7313 C.ar    1  UNL1        0.1037
     29 N           7.2987   -6.1746   30.4221 N.ar    1  UNL1       -0.2084
@<TRIPOS>BOND
     1     2     1    1
     2     2     3    1
     3     3     4   ar
     4     4     5   ar
     5     5     6   ar
     6     6    24    1
     7    24    25   ar
     8    25    26   ar
     9    26    27   ar
    10    27    28   ar
    11    28    29   ar
    12     6     7   ar
    13     7     8    1
    14     8     9    1
    15     9    10    1
    16    10    11   am
    17    11    12    2
    18    11    13    1
    19    13    14   ar
    20    14    15   ar
    21    15    16   ar
    22    16    17   ar
    23    17    20    1
    24    20    21    1
    25    20    22    1
    26    20    23    1
    27    17    18   ar
    28    18    19    1
    29    10     2    1
    30    18    13   ar
    31     7     3   ar
    32    29    24   ar
@<TRIPOS>MOLECULE
*****
 29 32 0 0 0
SMALL
GASTEIGER

@<TRIPOS>ATOM
      1 C           2.8056    3.5498   23.0606 C.3     1  UNL1        0.0282
      2 C           2.9536    2.0571   23.0695 C.3     1  UNL1        0.1189
      3 C           3.3560    1.3359   21.8173 C.ar    1  UNL1        0.1138
      4 N           3.6710    1.8247   20.4347 N.ar    1  UNL1       -0.1315
      5 N           4.0136    0.6341   19.5890 N.ar    1  UNL1       -0.0576
      6 N           3.9104   -0.5905   20.4490 N.ar    1  UNL1       -0.1813
      7 C           3.5040   -0.1568   21.8262 C.ar    1  UNL1        0.0837
      8 C           3.2495   -0.9282   23.0873 C.3     1  UNL1        0.0688
      9 C           2.8471   -0.2069   24.3394 C.3     1  UNL1        0.1004
     10 N           2.6991    1.2856   24.3305 N.am    1  UNL1       -0.2719
     11 C           2.2966    2.0069   25.5827 C.2     1  UNL1        0.2501
     12 O           2.1487    3.4996   25.5738 O.2     1  UNL1       -0.2699
     13 C           2.0421    1.2355   26.8437 C.ar    1  UNL1        0.0641
     14 C           3.1900    0.6367   27.6011 C.ar    1  UNL1        0.0054
     15 C           2.9355   -0.1348   28.8622 C.ar    1  UNL1        0.0001
     16 C           1.5332   -0.3073   29.3657 C.ar    1  UNL1        0.0047
     17 C           0.3852    0.2916   28.6083 C.ar    1  UNL1        0.0821
     18 C           0.6397    1.0630   27.3472 C.ar    1  UNL1        0.0659
     19 CL         -0.5082    1.6619   26.5898 Cl      1  UNL1       -0.0822
     20 C          -1.0171    0.1191   29.1119 C.3     1  UNL1        0.4194
     21 F          -2.4195   -0.0534   29.6155 F       1  UNL1       -0.1658
     22 F          -0.7945    1.2180   30.1083 F       1  UNL1       -0.1658
     23 F          -1.2398   -0.9798   28.1154 F       1  UNL1       -0.1658
     24 C           4.1683   -2.0011   20.0091 C.ar    1  UNL1        0.2541
     25 N           3.0430   -2.8388   19.4781 N.ar    1  UNL1       -0.2084
     26 C           3.3009   -4.2495   19.0381 C.ar    1  UNL1        0.1037
     27 C           4.6841   -4.8224   19.1291 C.ar    1  UNL1        0.0415
     28 C           5.8095   -3.9847   19.6601 C.ar    1  UNL1        0.1037
     29 N           5.5516   -2.5741   20.1001 N.ar    1  UNL1       -0.2084
@<TRIPOS>BOND
     1     2     1    1
     2     2     3    1
     3     3     4   ar
     4     4     5   ar
     5     5     6   ar
     6     6    24    1
     7    24    25   ar
     8    25    26   ar
     9    26    27   ar
    10    27    28   ar
    11    28    29   ar
    12     6     7   ar
    13     7     8    1
    14     8     9    1
    15     9    10    1
    16    10    11   am
    17    11    12    2
    18    11    13    1
    19    13    14   ar
    20    14    15   ar
    21    15    16   ar
    22    16    17   ar
    23    17    20    1
    24    20    21    1
    25    20    22    1
    26    20    23    1
    27    17    18   ar
    28    18    19    1
    29    10     2    1
    30    18    13   ar
    31     7     3   ar
    32    29    24   ar
@<TRIPOS>MOLECULE
*****
 29 32 0 0 0
SMALL
GASTEIGER

@<TRIPOS>ATOM
      1 C           2.5984    1.9239   23.7691 C.3     1  UNL1        0.0282
      2 C           1.7361    1.8256   22.5456 C.3     1  UNL1        0.1189
      3 C           0.3988    2.5042   22.5139 C.ar    1  UNL1        0.1138
      4 N          -0.3299    3.3340   23.5290 N.ar    1  UNL1       -0.1315
      5 N          -1.6425    3.7484   22.9329 N.ar    1  UNL1       -0.0576
      6 N          -1.7250    3.1748   21.5493 N.ar    1  UNL1       -0.1813
      7 C          -0.4633    2.4058   21.2904 C.ar    1  UNL1        0.0837
      8 C           0.0118    1.6288   20.0986 C.3     1  UNL1        0.0688
      9 C           1.3491    0.9501   20.1303 C.3     1  UNL1        0.1004
     10 N           2.2112    1.0485   21.3537 N.am    1  UNL1       -0.2719
     11 C           3.5486    0.3698   21.3854 C.2     1  UNL1        0.2501
     12 O           4.4108    0.4682   22.6089 O.2     1  UNL1       -0.2699
     13 C           4.0237   -0.4073   20.1936 C.ar    1  UNL1        0.0641
     14 C           4.4927    0.3152   18.9655 C.ar    1  UNL1        0.0054
     15 C           4.9678   -0.4620   17.7737 C.ar    1  UNL1        0.0001
     16 C           4.9739   -1.9614   17.8099 C.ar    1  UNL1        0.0047
     17 C           4.5049   -2.6840   19.0381 C.ar    1  UNL1        0.0821
     18 C           4.0298   -1.9069   20.2299 C.ar    1  UNL1        0.0659
     19 CL          3.5609   -2.6294   21.4579 Cl      1  UNL1       -0.0822
     20 C           4.5111   -4.1835   19.0743 C.3     1  UNL1        0.4194
     21 F           4.5172   -5.6831   19.1105 F       1  UNL1       -0.1658
     22 F           5.9581   -4.1681   19.4690 F       1  UNL1       -0.1658
     23 F           3.0640   -4.1990   18.6795 F       1  UNL1       -0.1658
     24 C          -2.8683    3.3409   20.5927 C.ar    1  UNL1        0.2541
     25 N          -2.6104    3.8002   19.1883 N.ar    1  UNL1       -0.2084
     26 C          -3.7538    3.9664   18.2316 C.ar    1  UNL1        0.1037
     27 C          -5.1550    3.6733   18.6794 C.ar    1  UNL1        0.0415
     28 C          -5.4129    3.2140   20.0839 C.ar    1  UNL1        0.1037
     29 N          -4.2696    3.0478   21.0406 N.ar    1  UNL1       -0.2084
@<TRIPOS>BOND
     1     2     1    1
     2     2     3    1
     3     3     4   ar
     4     4     5   ar
     5     5     6   ar
     6     6    24    1
     7    24    25   ar
     8    25    26   ar
     9    26    27   ar
    10    27    28   ar
    11    28    29   ar
    12     6     7   ar
    13     7     8    1
    14     8     9    1
    15     9    10    1
    16    10    11   am
    17    11    12    2
    18    11    13    1
    19    13    14   ar
    20    14    15   ar
    21    15    16   ar
    22    16    17   ar
    23    17    20    1
    24    20    21    1
    25    20    22    1
    26    20    23    1
    27    17    18   ar
    28    18    19    1
    29    10     2    1
    30    18    13   ar
    31     7     3   ar
    32    29    24   ar
@<TRIPOS>MOLECULE
*****
 29 32 0 0 0
SMALL
GASTEIGER

@<TRIPOS>ATOM
      1 C           7.3161   -2.8625   26.2527 C.3     1  UNL1        0.0282
      2 C           6.0455   -2.1714   25.8551 C.3     1  UNL1        0.1189
      3 C           5.1168   -1.6447   26.9086 C.ar    1  UNL1        0.1138
      4 N           5.1872   -1.6592   28.4069 N.ar    1  UNL1       -0.1315
      5 N           3.9601   -0.9771   28.9352 N.ar    1  UNL1       -0.0576
      6 N           3.1314   -0.5410   27.7634 N.ar    1  UNL1       -0.1813
      7 C           3.8462   -0.9536   26.5109 C.ar    1  UNL1        0.0837
      8 C           3.5044   -0.7894   25.0597 C.3     1  UNL1        0.0688
      9 C           4.4331   -1.3161   24.0061 C.3     1  UNL1        0.1004
     10 N           5.7036   -2.0071   24.4038 N.am    1  UNL1       -0.2719
     11 C           6.6323   -2.5339   23.3501 C.2     1  UNL1        0.2501
     12 O           7.9029   -3.2250   23.7479 O.2     1  UNL1       -0.2699
     13 C           6.2905   -2.3697   21.8989 C.ar    1  UNL1        0.0641
     14 C           7.0502   -1.3889   21.0558 C.ar    1  UNL1        0.0054
     15 C           6.7083   -1.2246   19.6045 C.ar    1  UNL1        0.0001
     16 C           5.6068   -2.0412   18.9964 C.ar    1  UNL1        0.0047
     17 C           4.8471   -3.0221   19.8395 C.ar    1  UNL1        0.0821
     18 C           5.1889   -3.1863   21.2908 C.ar    1  UNL1        0.0659
     19 CL          4.4293   -4.1672   22.1339 Cl      1  UNL1       -0.0822
     20 C           3.7456   -3.8386   19.2314 C.3     1  UNL1        0.4194
     21 F           2.6440   -4.6552   18.6232 F       1  UNL1       -0.1658
     22 F           2.7490   -2.7905   19.6291 F       1  UNL1       -0.1658
     23 F           4.7422   -4.8868   18.8336 F       1  UNL1       -0.1658
     24 C           1.8183    0.1808   27.8321 C.ar    1  UNL1        0.2541
     25 N           1.5651    1.3632   26.9444 N.ar    1  UNL1       -0.2084
     26 C           0.2520    2.0851   27.0131 C.ar    1  UNL1        0.1037
     27 C          -0.8078    1.6247   27.9694 C.ar    1  UNL1        0.0415
     28 C          -0.5546    0.4423   28.8571 C.ar    1  UNL1        0.1037
     29 N           0.7584   -0.2796   28.7885 N.ar    1  UNL1       -0.2084
@<TRIPOS>BOND
     1     2     1    1
     2     2     3    1
     3     3     4   ar
     4     4     5   ar
     5     5     6   ar
     6     6    24    1
     7    24    25   ar
     8    25    26   ar
     9    26    27   ar
    10    27    28   ar
    11    28    29   ar
    12     6     7   ar
    13     7     8    1
    14     8     9    1
    15     9    10    1
    16    10    11   am
    17    11    12    2
    18    11    13    1
    19    13    14   ar
    20    14    15   ar
    21    15    16   ar
    22    16    17   ar
    23    17    20    1
    24    20    21    1
    25    20    22    1
    26    20    23    1
    27    17    18   ar
    28    18    19    1
    29    10     2    1
    30    18    13   ar
    31     7     3   ar
    32    29    24   ar
@<TRIPOS>MOLECULE
*****
 29 32 0 0 0
SMALL
GASTEIGER

@<TRIPOS>ATOM
      1 C           2.1415    1.4054   23.9156 C.3     1  UNL1        0.0282
      2 C           1.4365    1.4367   22.5920 C.3     1  UNL1        0.1189
      3 C           0.1690    2.2235   22.4356 C.ar    1  UNL1        0.1138
      4 N          -0.6180    3.0607   23.3998 N.ar    1  UNL1       -0.1315
      5 N          -1.8093    3.6094   22.6720 N.ar    1  UNL1       -0.0576
      6 N          -1.7586    3.1112   21.2580 N.ar    1  UNL1       -0.1813
      7 C          -0.5359    2.2547   21.1119 C.ar    1  UNL1        0.0837
      8 C           0.0267    1.4991   19.9446 C.3     1  UNL1        0.0688
      9 C           1.2941    0.7123   20.1010 C.3     1  UNL1        0.1004
     10 N           1.9990    0.6811   21.4245 N.am    1  UNL1       -0.2719
     11 C           3.2666   -0.1058   21.5809 C.2     1  UNL1        0.2501
     12 O           3.9715   -0.1370   22.9046 O.2     1  UNL1       -0.2699
     13 C           3.8291   -0.8613   20.4136 C.ar    1  UNL1        0.0641
     14 C           3.5053   -2.3150   20.2347 C.ar    1  UNL1        0.0054
     15 C           4.0679   -3.0705   19.0673 C.ar    1  UNL1        0.0001
     16 C           4.9542   -2.3725   18.0789 C.ar    1  UNL1        0.0047
     17 C           5.2781   -0.9187   18.2579 C.ar    1  UNL1        0.0821
     18 C           4.7155   -0.1632   19.4252 C.ar    1  UNL1        0.0659
     19 CL          5.0394    1.2905   19.6041 Cl      1  UNL1       -0.0822
     20 C           6.1645   -0.2206   17.2694 C.3     1  UNL1        0.4194
     21 F           7.0509    0.4774   16.2810 F       1  UNL1       -0.1658
     22 F           4.9771    0.0452   16.3923 F       1  UNL1       -0.1658
     23 F           7.3519   -0.4865   18.1465 F       1  UNL1       -0.1658
     24 C          -2.7555    3.4161   20.1795 C.ar    1  UNL1        0.2541
     25 N          -4.2175    3.1848   20.4225 N.ar    1  UNL1       -0.2084
     26 C          -5.2145    3.4897   19.3440 C.ar    1  UNL1        0.1037
     27 C          -4.7495    4.0259   18.0226 C.ar    1  UNL1        0.0415
     28 C          -3.2874    4.2572   17.7797 C.ar    1  UNL1        0.1037
     29 N          -2.2905    3.9523   18.8581 N.ar    1  UNL1       -0.2084
@<TRIPOS>BOND
     1     2     1    1
     2     2     3    1
     3     3     4   ar
     4     4     5   ar
     5     5     6   ar
     6     6    24    1
     7    24    25   ar
     8    25    26   ar
     9    26    27   ar
    10    27    28   ar
    11    28    29   ar
    12     6     7   ar
    13     7     8    1
    14     8     9    1
    15     9    10    1
    16    10    11   am
    17    11    12    2
    18    11    13    1
    19    13    14   ar
    20    14    15   ar
    21    15    16   ar
    22    16    17   ar
    23    17    20    1
    24    20    21    1
    25    20    22    1
    26    20    23    1
    27    17    18   ar
    28    18    19    1
    29    10     2    1
    30    18    13   ar
    31     7     3   ar
    32    29    24   ar
@<TRIPOS>MOLECULE
*****
 29 32 0 0 0
SMALL
GASTEIGER

@<TRIPOS>ATOM
      1 C           7.3652   -4.1607   25.2772 C.3     1  UNL1        0.0282
      2 C           6.1936   -3.2366   25.1241 C.3     1  UNL1        0.1189
      3 C           5.6522   -2.5076   26.3181 C.ar    1  UNL1        0.1138
      4 N           6.0632   -2.5001   27.7607 N.ar    1  UNL1       -0.1315
      5 N           5.1455   -1.5713   28.4991 N.ar    1  UNL1       -0.0576
      6 N           4.1674   -1.0049   27.5129 N.ar    1  UNL1       -0.1813
      7 C           4.4806   -1.5836   26.1649 C.ar    1  UNL1        0.0837
      8 C           3.8504   -1.3885   24.8178 C.3     1  UNL1        0.0688
      9 C           4.3917   -2.1175   23.6239 C.3     1  UNL1        0.1004
     10 N           5.5632   -3.0415   23.7770 N.am    1  UNL1       -0.2719
     11 C           6.1046   -3.7705   22.5830 C.2     1  UNL1        0.2501
     12 O           7.2762   -4.6946   22.7361 O.2     1  UNL1       -0.2699
     13 C           5.4743   -3.5754   21.2359 C.ar    1  UNL1        0.0641
     14 C           4.2621   -4.3714   20.8526 C.ar    1  UNL1        0.0054
     15 C           3.6318   -4.1763   19.5055 C.ar    1  UNL1        0.0001
     16 C           4.2138   -3.1852   18.5417 C.ar    1  UNL1        0.0047
     17 C           5.4260   -2.3891   18.9249 C.ar    1  UNL1        0.0821
     18 C           6.0563   -2.5842   20.2720 C.ar    1  UNL1        0.0659
     19 CL          7.2685   -1.7882   20.6553 Cl      1  UNL1       -0.0822
     20 C           6.0080   -1.3980   17.9611 C.3     1  UNL1        0.4194
     21 F           6.5899   -0.4069   16.9972 F       1  UNL1       -0.1658
     22 F           7.0205   -2.4156   17.5260 F       1  UNL1       -0.1658
     23 F           4.9954   -0.3804   18.3961 F       1  UNL1       -0.1658
     24 C           3.0691   -0.0308   27.8207 C.ar    1  UNL1        0.2541
     25 N           1.9064   -0.4547   28.6683 N.ar    1  UNL1       -0.2084
     26 C           0.8080    0.5193   28.9761 C.ar    1  UNL1        0.1037
     27 C           0.8723    1.9173   28.4363 C.ar    1  UNL1        0.0415
     28 C           2.0350    2.3412   27.5886 C.ar    1  UNL1        0.1037
     29 N           3.1334    1.3672   27.2808 N.ar    1  UNL1       -0.2084
@<TRIPOS>BOND
     1     2     1    1
     2     2     3    1
     3     3     4   ar
     4     4     5   ar
     5     5     6   ar
     6     6    24    1
     7    24    25   ar
     8    25    26   ar
     9    26    27   ar
    10    27    28   ar
    11    28    29   ar
    12     6     7   ar
    13     7     8    1
    14     8     9    1
    15     9    10    1
    16    10    11   am
    17    11    12    2
    18    11    13    1
    19    13    14   ar
    20    14    15   ar
    21    15    16   ar
    22    16    17   ar
    23    17    20    1
    24    20    21    1
    25    20    22    1
    26    20    23    1
    27    17    18   ar
    28    18    19    1
    29    10     2    1
    30    18    13   ar
    31     7     3   ar
    32    29    24   ar
@<TRIPOS>MOLECULE
*****
 29 32 0 0 0
SMALL
GASTEIGER

@<TRIPOS>ATOM
      1 C           6.6988   -0.3700   26.8047 C.3     1  UNL1        0.0282
      2 C           5.7433   -0.7192   25.7024 C.3     1  UNL1        0.1189
      3 C           6.2002   -1.5712   24.5555 C.ar    1  UNL1        0.1138
      4 N           7.5220   -2.2072   24.2419 N.ar    1  UNL1       -0.1315
      5 N           7.3833   -2.9494   22.9459 N.ar    1  UNL1       -0.0576
      6 N           5.9758   -2.7722   22.4584 N.ar    1  UNL1       -0.1813
      7 C           5.2446   -1.9203   23.4533 C.ar    1  UNL1        0.0837
      8 C           3.8321   -1.4175   23.4979 C.3     1  UNL1        0.0688
      9 C           3.3752   -0.5655   24.6448 C.3     1  UNL1        0.1004
     10 N           4.3307   -0.2164   25.7470 N.am    1  UNL1       -0.2719
     11 C           3.8738    0.6357   26.8939 C.2     1  UNL1        0.2501
     12 O           4.8294    0.9848   27.9962 O.2     1  UNL1       -0.2699
     13 C           2.4613    1.1385   26.9385 C.ar    1  UNL1        0.0641
     14 C           2.0371    2.2637   26.0419 C.ar    1  UNL1        0.0054
     15 C           0.6245    2.7665   26.0866 C.ar    1  UNL1        0.0001
     16 C          -0.3637    2.1442   27.0278 C.ar    1  UNL1        0.0047
     17 C           0.0605    1.0189   27.9245 C.ar    1  UNL1        0.0821
     18 C           1.4730    0.5161   27.8799 C.ar    1  UNL1        0.0659
     19 CL          1.8972   -0.6091   28.7765 Cl      1  UNL1       -0.0822
     20 C          -0.9278    0.3966   28.8658 C.3     1  UNL1        0.4194
     21 F          -1.9161   -0.2258   29.8070 F       1  UNL1       -0.1658
     22 F          -0.5511    1.3941   29.9208 F       1  UNL1       -0.1658
     23 F          -1.3044   -0.6010   27.8107 F       1  UNL1       -0.1658
     24 C           5.4005   -3.3460   21.1975 C.ar    1  UNL1        0.2541
     25 N           4.3734   -4.4367   21.2703 N.ar    1  UNL1       -0.2084
     26 C           3.7981   -5.0105   20.0094 C.ar    1  UNL1        0.1037
     27 C           4.2500   -4.4936   18.6758 C.ar    1  UNL1        0.0415
     28 C           5.2771   -3.4029   18.6031 C.ar    1  UNL1        0.1037
     29 N           5.8524   -2.8290   19.8639 N.ar    1  UNL1       -0.2084
@<TRIPOS>BOND
     1     2     1    1
     2     2     3    1
     3     3     4   ar
     4     4     5   ar
     5     5     6   ar
     6     6    24    1
     7    24    25   ar
     8    25    26   ar
     9    26    27   ar
    10    27    28   ar
    11    28    29   ar
    12     6     7   ar
    13     7     8    1
    14     8     9    1
    15     9    10    1
    16    10    11   am
    17    11    12    2
    18    11    13    1
    19    13    14   ar
    20    14    15   ar
    21    15    16   ar
    22    16    17   ar
    23    17    20    1
    24    20    21    1
    25    20    22    1
    26    20    23    1
    27    17    18   ar
    28    18    19    1
    29    10     2    1
    30    18    13   ar
    31     7     3   ar
    32    29    24   ar
@<TRIPOS>MOLECULE
*****
 29 32 0 0 0
SMALL
GASTEIGER

@<TRIPOS>ATOM
      1 C          -1.2474    3.6423   20.9477 C.3     1  UNL1        0.0282
      2 C          -0.4908    3.0128   22.0797 C.3     1  UNL1        0.1189
      3 C          -0.9867    3.1612   23.4876 C.ar    1  UNL1        0.1138
      4 N          -2.1805    3.8645   24.0623 N.ar    1  UNL1       -0.1315
      5 N          -2.1617    3.6696   25.5495 N.ar    1  UNL1       -0.0576
      6 N          -0.9563    2.8459   25.8939 N.ar    1  UNL1       -0.1813
      7 C          -0.2301    2.5317   24.6195 C.ar    1  UNL1        0.0837
      8 C           1.0224    1.7538   24.3436 C.3     1  UNL1        0.0688
      9 C           1.5182    1.6053   22.9357 C.3     1  UNL1        0.1004
     10 N           0.7617    2.2348   21.8039 N.am    1  UNL1       -0.2719
     11 C           1.2576    2.0863   20.3959 C.2     1  UNL1        0.2501
     12 O           0.5010    2.7158   19.2640 O.2     1  UNL1       -0.2699
     13 C           2.5100    1.3084   20.1200 C.ar    1  UNL1        0.0641
     14 C           3.8250    2.0206   20.0035 C.ar    1  UNL1        0.0054
     15 C           5.0774    1.2426   19.7276 C.ar    1  UNL1        0.0001
     16 C           5.0149   -0.2475   19.5681 C.ar    1  UNL1        0.0047
     17 C           3.6998   -0.9598   19.6846 C.ar    1  UNL1        0.0821
     18 C           2.4474   -0.1819   19.9605 C.ar    1  UNL1        0.0659
     19 CL          1.1324   -0.8941   20.0770 Cl      1  UNL1       -0.0822
     20 C           3.6373   -2.4500   19.5252 C.3     1  UNL1        0.4194
     21 F           3.5748   -3.9402   19.3657 F       1  UNL1       -0.1658
     22 F           3.6567   -2.2912   18.0337 F       1  UNL1       -0.1658
     23 F           3.6180   -2.6088   21.0166 F       1  UNL1       -0.1658
     24 C          -0.5486    2.4125   27.2708 C.ar    1  UNL1        0.2541
     25 N           0.2533    3.3346   28.1406 N.ar    1  UNL1       -0.2084
     26 C           0.6609    2.9012   29.5177 C.ar    1  UNL1        0.1037
     27 C           0.2666    1.5458   30.0248 C.ar    1  UNL1        0.0415
     28 C          -0.5353    0.6237   29.1549 C.ar    1  UNL1        0.1037
     29 N          -0.9430    1.0570   27.7780 N.ar    1  UNL1       -0.2084
@<TRIPOS>BOND
     1     2     1    1
     2     2     3    1
     3     3     4   ar
     4     4     5   ar
     5     5     6   ar
     6     6    24    1
     7    24    25   ar
     8    25    26   ar
     9    26    27   ar
    10    27    28   ar
    11    28    29   ar
    12     6     7   ar
    13     7     8    1
    14     8     9    1
    15     9    10    1
    16    10    11   am
    17    11    12    2
    18    11    13    1
    19    13    14   ar
    20    14    15   ar
    21    15    16   ar
    22    16    17   ar
    23    17    20    1
    24    20    21    1
    25    20    22    1
    26    20    23    1
    27    17    18   ar
    28    18    19    1
    29    10     2    1
    30    18    13   ar
    31     7     3   ar
    32    29    24   ar
