@<TRIPOS>MOLECULE
*****
 22 24 0 0 0
SMALL
GASTEIGER

@<TRIPOS>ATOM
      1 N          -6.0998  -17.8428   22.8657 N.ar    1  UNL1       -0.2970
      2 C          -7.0091  -18.9233   22.3602 C.ar    1  UNL1        0.2012
      3 N          -6.1730  -19.9226   21.6170 N.ar    1  UNL1       -0.2136
      4 C          -4.7470  -19.4597   21.6632 C.ar    1  UNL1        0.0999
      5 C          -3.4839  -20.0426   21.1022 C.ar    1  UNL1        0.0207
      6 C          -2.1755  -19.3401   21.3130 C.ar    1  UNL1        0.0016
      7 C          -2.1302  -18.0546   22.0847 C.ar    1  UNL1        0.0016
      8 C          -3.3933  -17.4717   22.6457 C.ar    1  UNL1        0.0188
      9 C          -4.7017  -18.1743   22.4350 C.ar    1  UNL1        0.0799
     10 N          -8.4938  -18.9924   22.5624 N.pl3   1  UNL1       -0.2781
     11 C          -9.2393  -20.0963   23.2521 C.3     1  UNL1        0.0950
     12 C         -10.6999  -19.7559   23.2264 C.3     1  UNL1        0.0392
     13 C         -10.8572  -18.4416   22.5208 C.3     1  UNL1        0.0792
     14 C          -9.4937  -17.9697   22.1105 C.3     1  UNL1        0.1095
     15 N         -12.1508  -17.7249   22.2697 N.3     1  UNL1       -0.2699
     16 C         -12.3290  -16.9149   21.0198 C.3     1  UNL1        0.0897
     17 C         -13.2660  -17.8183   23.2683 C.3     1  UNL1        0.0897
     18 C          -6.5154  -16.6416   23.6622 C.3     1  UNL1        0.1407
     19 C          -5.5855  -15.4726   23.7971 C.3     1  UNL1        0.1666
     20 O          -5.4419  -14.7768   25.1182 O.3     1  UNL1       -0.3517
     21 C          -6.8806  -15.4185   27.1842 C.3     1  UNL1        0.0346
     22 C          -5.6121  -15.5471   26.3939 C.3     1  UNL1        0.1423
@<TRIPOS>BOND
     1    21    22    1
     2    22    20    1
     3    20    19    1
     4    19    18    1
     5    18     1    1
     6     1     2   ar
     7     2    10    1
     8    10    11    1
     9    11    12    1
    10    12    13    1
    11    13    15    1
    12    15    16    1
    13    15    17    1
    14    13    14    1
    15     2     3   ar
    16     3     4   ar
    17     4     5   ar
    18     5     6   ar
    19     6     7   ar
    20     7     8   ar
    21     8     9   ar
    22     9     1   ar
    23    14    10    1
    24     9     4   ar
@<TRIPOS>MOLECULE
*****
 22 24 0 0 0
SMALL
GASTEIGER

@<TRIPOS>ATOM
      1 N          -6.0998  -18.8250   21.9474 N.ar    1  UNL1       -0.2970
      2 C          -6.3773  -17.6582   22.8483 C.ar    1  UNL1        0.2012
      3 N          -5.0620  -17.0571   23.2465 N.ar    1  UNL1       -0.2136
      4 C          -3.9716  -17.8523   22.5918 C.ar    1  UNL1        0.0999
      5 C          -2.4776  -17.7226   22.6230 C.ar    1  UNL1        0.0207
      6 C          -1.6249  -18.6857   21.8513 C.ar    1  UNL1        0.0016
      7 C          -2.2663  -19.7783   21.0484 C.ar    1  UNL1        0.0016
      8 C          -3.7604  -19.9080   21.0172 C.ar    1  UNL1        0.0188
      9 C          -4.6130  -18.9450   21.7889 C.ar    1  UNL1        0.0799
     10 N          -7.7322  -17.1771   23.2758 N.pl3   1  UNL1       -0.2781
     11 C          -8.0097  -16.1460   24.3293 C.3     1  UNL1        0.0950
     12 C          -9.4965  -15.9742   24.4295 C.3     1  UNL1        0.0392
     13 C         -10.1378  -16.8991   23.4380 C.3     1  UNL1        0.0792
     14 C          -9.0474  -17.6425   22.7250 C.3     1  UNL1        0.1095
     15 N         -11.6109  -17.0535   23.2010 N.3     1  UNL1       -0.2699
     16 C         -12.3608  -16.0063   22.4323 C.3     1  UNL1        0.0897
     17 C         -12.3341  -18.2552   23.7328 C.3     1  UNL1        0.0897
     18 C          -7.1284  -19.7156   21.3159 C.3     1  UNL1        0.1407
     19 C          -7.4619  -19.5624   19.8616 C.3     1  UNL1        0.1666
     20 O          -8.7413  -18.8954   19.4516 O.3     1  UNL1       -0.3517
     21 C         -10.9061  -19.7650   20.5951 C.3     1  UNL1        0.0346
     22 C         -10.0141  -19.6869   19.3917 C.3     1  UNL1        0.1423
@<TRIPOS>BOND
     1    21    22    1
     2    22    20    1
     3    20    19    1
     4    19    18    1
     5    18     1    1
     6     1     2   ar
     7     2    10    1
     8    10    11    1
     9    11    12    1
    10    12    13    1
    11    13    15    1
    12    15    16    1
    13    15    17    1
    14    13    14    1
    15     2     3   ar
    16     3     4   ar
    17     4     5   ar
    18     5     6   ar
    19     6     7   ar
    20     7     8   ar
    21     8     9   ar
    22     9     1   ar
    23    14    10    1
    24     9     4   ar
@<TRIPOS>MOLECULE
*****
 22 24 0 0 0
SMALL
GASTEIGER

@<TRIPOS>ATOM
      1 N          -8.3503  -17.7486   22.2205 N.ar    1  UNL1       -0.2970
      2 C          -7.9790  -18.7593   21.1761 C.ar    1  UNL1        0.2012
      3 N          -9.2375  -19.1991   20.4886 N.ar    1  UNL1       -0.2136
      4 C         -10.3866  -18.4603   21.1081 C.ar    1  UNL1        0.0999
      5 C         -11.8614  -18.4881   20.8358 C.ar    1  UNL1        0.0207
      6 C         -12.7879  -17.6194   21.6339 C.ar    1  UNL1        0.0016
      7 C         -12.2396  -16.7230   22.7043 C.ar    1  UNL1        0.0016
      8 C         -10.7648  -16.6952   22.9766 C.ar    1  UNL1        0.0188
      9 C          -9.8383  -17.5639   22.1785 C.ar    1  UNL1        0.0799
     10 N          -6.5926  -19.2448   20.8726 N.pl3   1  UNL1       -0.2781
     11 C          -6.2236  -20.6200   20.4007 C.3     1  UNL1        0.0950
     12 C          -4.7347  -20.6655   20.2240 C.3     1  UNL1        0.0392
     13 C          -4.1835  -19.3184   20.5868 C.3     1  UNL1        0.0792
     14 C          -5.3318  -18.4404   20.9876 C.3     1  UNL1        0.1095
     15 N          -2.7379  -18.9194   20.5544 N.3     1  UNL1       -0.2699
     16 C          -2.1081  -18.4863   19.2637 C.3     1  UNL1        0.0897
     17 C          -1.9221  -18.9535   21.8127 C.3     1  UNL1        0.0897
     18 C          -7.4004  -17.0461   23.1447 C.3     1  UNL1        0.1407
     19 C          -7.4350  -15.5511   23.2611 C.3     1  UNL1        0.1666
     20 O          -7.7832  -14.9085   24.5710 O.3     1  UNL1       -0.3517
     21 C          -8.1279  -15.4174   27.0953 C.3     1  UNL1        0.0346
     22 C          -8.4263  -15.7195   25.6567 C.3     1  UNL1        0.1423
@<TRIPOS>BOND
     1    21    22    1
     2    22    20    1
     3    20    19    1
     4    19    18    1
     5    18     1    1
     6     1     2   ar
     7     2    10    1
     8    10    11    1
     9    11    12    1
    10    12    13    1
    11    13    15    1
    12    15    16    1
    13    15    17    1
    14    13    14    1
    15     2     3   ar
    16     3     4   ar
    17     4     5   ar
    18     5     6   ar
    19     6     7   ar
    20     7     8   ar
    21     8     9   ar
    22     9     1   ar
    23    14    10    1
    24     9     4   ar
@<TRIPOS>MOLECULE
*****
 22 24 0 0 0
SMALL
GASTEIGER

@<TRIPOS>ATOM
      1 N          -9.5540  -19.2019   22.4365 N.ar    1  UNL1       -0.2970
      2 C          -8.5612  -18.6678   21.4470 C.ar    1  UNL1        0.2012
      3 N          -9.2346  -17.5894   20.6510 N.ar    1  UNL1       -0.2136
      4 C         -10.6435  -17.4572   21.1484 C.ar    1  UNL1        0.0999
      5 C         -11.7722  -16.5580   20.7391 C.ar    1  UNL1        0.0207
      6 C         -13.0982  -16.6555   21.4333 C.ar    1  UNL1        0.0016
      7 C         -13.2956  -17.6521   22.5368 C.ar    1  UNL1        0.0016
      8 C         -12.1670  -18.5513   22.9462 C.ar    1  UNL1        0.0188
      9 C         -10.8409  -18.4538   22.2519 C.ar    1  UNL1        0.0799
     10 N          -7.1439  -19.1306   21.2825 N.pl3   1  UNL1       -0.2781
     11 C          -6.6829  -20.2717   20.4250 C.3     1  UNL1        0.0950
     12 C          -5.1929  -20.3800   20.5591 C.3     1  UNL1        0.0392
     13 C          -4.7329  -19.3058   21.4996 C.3     1  UNL1        0.0792
     14 C          -5.9387  -18.5337   21.9467 C.3     1  UNL1        0.1095
     15 N          -3.3159  -19.0488   21.9194 N.3     1  UNL1       -0.2699
     16 C          -2.1925  -19.7977   21.2657 C.3     1  UNL1        0.0897
     17 C          -3.0224  -18.0430   22.9928 C.3     1  UNL1        0.0897
     18 C          -9.3037  -20.2928   23.4352 C.3     1  UNL1        0.1407
     19 C          -9.8806  -20.1923   24.8161 C.3     1  UNL1        0.1666
     20 O          -9.3882  -19.1352   25.7595 O.3     1  UNL1       -0.3517
     21 C          -8.8135  -16.7364   24.9437 C.3     1  UNL1        0.0346
     22 C          -9.7844  -17.7031   25.5542 C.3     1  UNL1        0.1423
@<TRIPOS>BOND
     1    21    22    1
     2    22    20    1
     3    20    19    1
     4    19    18    1
     5    18     1    1
     6     1     2   ar
     7     2    10    1
     8    10    11    1
     9    11    12    1
    10    12    13    1
    11    13    15    1
    12    15    16    1
    13    15    17    1
    14    13    14    1
    15     2     3   ar
    16     3     4   ar
    17     4     5   ar
    18     5     6   ar
    19     6     7   ar
    20     7     8   ar
    21     8     9   ar
    22     9     1   ar
    23    14    10    1
    24     9     4   ar
@<TRIPOS>MOLECULE
*****
 22 24 0 0 0
SMALL
GASTEIGER

@<TRIPOS>ATOM
      1 N          -6.8637  -19.2520   22.3109 N.ar    1  UNL1       -0.2970
      2 C          -5.9663  -18.0751   22.5552 C.ar    1  UNL1        0.2012
      3 N          -6.7878  -16.9881   23.1826 N.ar    1  UNL1       -0.2136
      4 C          -8.1929  -17.4932   23.3260 C.ar    1  UNL1        0.0999
      5 C          -9.4357  -16.8599   23.8776 C.ar    1  UNL1        0.0207
      6 C         -10.7254  -17.6257   23.8905 C.ar    1  UNL1        0.0016
      7 C         -10.7723  -19.0249   23.3518 C.ar    1  UNL1        0.0016
      8 C          -9.5295  -19.6582   22.8002 C.ar    1  UNL1        0.0188
      9 C          -8.2398  -18.8924   22.7873 C.ar    1  UNL1        0.0799
     10 N          -4.5041  -17.9986   22.2293 N.pl3   1  UNL1       -0.2781
     11 C          -3.3841  -17.8914   23.2213 C.3     1  UNL1        0.0950
     12 C          -2.0930  -17.8424   22.4593 C.3     1  UNL1        0.0392
     13 C          -2.4150  -17.9193   20.9963 C.3     1  UNL1        0.0792
     14 C          -3.9052  -18.0158   20.8542 C.3     1  UNL1        0.1095
     15 N          -1.4214  -17.9026   19.8727 N.3     1  UNL1       -0.2699
     16 C           0.0485  -17.8965   20.1714 C.3     1  UNL1        0.0897
     17 C          -1.8978  -17.8920   18.4504 C.3     1  UNL1        0.0897
     18 C          -6.4564  -20.5590   21.6979 C.3     1  UNL1        0.1407
     19 C          -6.5145  -20.7400   20.2101 C.3     1  UNL1        0.1666
     20 O          -7.3068  -19.7840   19.3685 O.3     1  UNL1       -0.3517
     21 C          -9.8597  -19.3019   19.3517 C.3     1  UNL1        0.0346
     22 C          -8.6942  -20.1453   18.9273 C.3     1  UNL1        0.1423
@<TRIPOS>BOND
     1    21    22    1
     2    22    20    1
     3    20    19    1
     4    19    18    1
     5    18     1    1
     6     1     2   ar
     7     2    10    1
     8    10    11    1
     9    11    12    1
    10    12    13    1
    11    13    15    1
    12    15    16    1
    13    15    17    1
    14    13    14    1
    15     2     3   ar
    16     3     4   ar
    17     4     5   ar
    18     5     6   ar
    19     6     7   ar
    20     7     8   ar
    21     8     9   ar
    22     9     1   ar
    23    14    10    1
    24     9     4   ar
@<TRIPOS>MOLECULE
*****
 22 24 0 0 0
SMALL
GASTEIGER

@<TRIPOS>ATOM
      1 N         -13.8630   -7.0262   17.9758 N.ar    1  UNL1       -0.2970
      2 C         -14.2256   -5.7561   18.6868 C.ar    1  UNL1        0.2012
      3 N         -15.4745   -6.0085   19.4783 N.ar    1  UNL1       -0.2136
      4 C         -15.8837   -7.4344   19.2566 C.ar    1  UNL1        0.0999
      5 C         -17.0345   -8.2414   19.7804 C.ar    1  UNL1        0.0207
      6 C         -17.1893   -9.6774   19.3755 C.ar    1  UNL1        0.0016
      7 C         -16.1933  -10.3064   18.4468 C.ar    1  UNL1        0.0016
      8 C         -15.0425   -9.4994   17.9231 C.ar    1  UNL1        0.0188
      9 C         -14.8877   -8.0634   18.3280 C.ar    1  UNL1        0.0799
     10 N         -13.4718   -4.4611   18.6182 N.pl3   1  UNL1       -0.2781
     11 C         -12.9428   -3.6858   19.7882 C.3     1  UNL1        0.0950
     12 C         -12.2586   -2.4596   19.2606 C.3     1  UNL1        0.0392
     13 C         -12.3648   -2.4770   17.7645 C.3     1  UNL1        0.0792
     14 C         -13.1146   -3.7140   17.3675 C.3     1  UNL1        0.1095
     15 N         -11.8173   -1.4396   16.8296 N.3     1  UNL1       -0.2699
     16 C         -10.3941   -1.5261   16.3637 C.3     1  UNL1        0.0897
     17 C         -12.6931   -0.3158   16.3605 C.3     1  UNL1        0.0897
     18 C         -12.6828   -7.2242   17.0714 C.3     1  UNL1        0.1407
     19 C         -11.3272   -7.4919   17.6550 C.3     1  UNL1        0.1666
     20 O         -10.9173   -6.8272   18.9357 O.3     1  UNL1       -0.3517
     21 C          -9.5857   -5.0265   17.6189 C.3     1  UNL1        0.0346
     22 C          -9.9213   -5.7059   18.9134 C.3     1  UNL1        0.1423
@<TRIPOS>BOND
     1    21    22    1
     2    22    20    1
     3    20    19    1
     4    19    18    1
     5    18     1    1
     6     1     2   ar
     7     2    10    1
     8    10    11    1
     9    11    12    1
    10    12    13    1
    11    13    15    1
    12    15    16    1
    13    15    17    1
    14    13    14    1
    15     2     3   ar
    16     3     4   ar
    17     4     5   ar
    18     5     6   ar
    19     6     7   ar
    20     7     8   ar
    21     8     9   ar
    22     9     1   ar
    23    14    10    1
    24     9     4   ar
@<TRIPOS>MOLECULE
*****
 22 24 0 0 0
SMALL
GASTEIGER

@<TRIPOS>ATOM
      1 N          -6.4309  -17.1609   23.3605 N.ar    1  UNL1       -0.2970
      2 C          -4.9402  -17.2264   23.5142 C.ar    1  UNL1        0.2012
      3 N          -4.5775  -16.5537   24.8049 N.ar    1  UNL1       -0.2136
      4 C          -5.8439  -16.0724   25.4488 C.ar    1  UNL1        0.0999
      5 C          -6.1020  -15.3410   26.7327 C.ar    1  UNL1        0.0207
      6 C          -7.5055  -14.9849   27.1238 C.ar    1  UNL1        0.0016
      7 C          -8.6511  -15.3601   26.2311 C.ar    1  UNL1        0.0016
      8 C          -8.3930  -16.0915   24.9472 C.ar    1  UNL1        0.0188
      9 C          -6.9894  -16.4477   24.5561 C.ar    1  UNL1        0.0799
     10 N          -3.9808  -17.8543   22.5471 N.pl3   1  UNL1       -0.2781
     11 C          -3.7575  -19.3252   22.3562 C.3     1  UNL1        0.0950
     12 C          -2.7150  -19.5016   21.2923 C.3     1  UNL1        0.0392
     13 C          -2.2940  -18.1396   20.8256 C.3     1  UNL1        0.0792
     14 C          -3.0763  -17.1216   21.6011 C.3     1  UNL1        0.1095
     15 N          -1.2704  -17.8470   19.7689 N.3     1  UNL1       -0.2699
     16 C           0.1578  -17.6008   20.1558 C.3     1  UNL1        0.0897
     17 C          -1.6749  -17.8007   18.3252 C.3     1  UNL1        0.0897
     18 C          -7.2239  -17.7118   22.2126 C.3     1  UNL1        0.1407
     19 C          -8.1834  -18.8425   22.4380 C.3     1  UNL1        0.1666
     20 O          -9.6501  -18.5639   22.5833 O.3     1  UNL1       -0.3517
     21 C          -9.8397  -20.1927   24.5985 C.3     1  UNL1        0.0346
     22 C         -10.3904  -19.0539   23.7923 C.3     1  UNL1        0.1423
@<TRIPOS>BOND
     1    21    22    1
     2    22    20    1
     3    20    19    1
     4    19    18    1
     5    18     1    1
     6     1     2   ar
     7     2    10    1
     8    10    11    1
     9    11    12    1
    10    12    13    1
    11    13    15    1
    12    15    16    1
    13    15    17    1
    14    13    14    1
    15     2     3   ar
    16     3     4   ar
    17     4     5   ar
    18     5     6   ar
    19     6     7   ar
    20     7     8   ar
    21     8     9   ar
    22     9     1   ar
    23    14    10    1
    24     9     4   ar
@<TRIPOS>MOLECULE
*****
 22 24 0 0 0
SMALL
GASTEIGER

@<TRIPOS>ATOM
      1 N          -6.8948  -19.1266   21.3023 N.ar    1  UNL1       -0.2970
      2 C          -7.8991  -18.0512   21.5935 C.ar    1  UNL1        0.2012
      3 N          -9.0533  -18.2275   20.6518 N.ar    1  UNL1       -0.2136
      4 C          -8.7623  -19.4120   19.7786 C.ar    1  UNL1        0.0999
      5 C          -9.5397  -20.0563   18.6694 C.ar    1  UNL1        0.0207
      6 C          -8.9831  -21.2563   17.9622 C.ar    1  UNL1        0.0016
      7 C          -7.6491  -21.8119   18.3642 C.ar    1  UNL1        0.0016
      8 C          -6.8717  -21.1676   19.4734 C.ar    1  UNL1        0.0188
      9 C          -7.4283  -19.9676   20.1806 C.ar    1  UNL1        0.0799
     10 N          -7.7716  -16.9863   22.6422 N.pl3   1  UNL1       -0.2781
     11 C          -7.8433  -15.5063   22.4093 C.3     1  UNL1        0.0950
     12 C          -7.6660  -14.8198   23.7311 C.3     1  UNL1        0.0392
     13 C          -7.4848  -15.8756   24.7811 C.3     1  UNL1        0.0792
     14 C          -7.5500  -17.2146   24.1081 C.3     1  UNL1        0.1095
     15 N          -7.2751  -15.6348   26.2467 N.3     1  UNL1       -0.2699
     16 C          -6.0003  -15.0084   26.7290 C.3     1  UNL1        0.0897
     17 C          -8.3402  -16.0203   27.2300 C.3     1  UNL1        0.0897
     18 C          -5.5867  -19.3261   22.0087 C.3     1  UNL1        0.1407
     19 C          -4.3071  -19.3459   21.2263 C.3     1  UNL1        0.1666
     20 O          -3.6114  -18.0594   20.8934 O.3     1  UNL1       -0.3517
     21 C          -2.0878  -16.1504   21.7791 C.3     1  UNL1        0.0346
     22 C          -2.4388  -17.6072   21.7122 C.3     1  UNL1        0.1423
@<TRIPOS>BOND
     1    21    22    1
     2    22    20    1
     3    20    19    1
     4    19    18    1
     5    18     1    1
     6     1     2   ar
     7     2    10    1
     8    10    11    1
     9    11    12    1
    10    12    13    1
    11    13    15    1
    12    15    16    1
    13    15    17    1
    14    13    14    1
    15     2     3   ar
    16     3     4   ar
    17     4     5   ar
    18     5     6   ar
    19     6     7   ar
    20     7     8   ar
    21     8     9   ar
    22     9     1   ar
    23    14    10    1
    24     9     4   ar
@<TRIPOS>MOLECULE
*****
 22 24 0 0 0
SMALL
GASTEIGER

@<TRIPOS>ATOM
      1 N           4.9570   -1.4046   20.8808 N.ar    1  UNL1       -0.2970
      2 C           4.4075   -1.7046   22.2439 C.ar    1  UNL1        0.2012
      3 N           2.9675   -1.2850   22.2657 N.ar    1  UNL1       -0.2136
      4 C           2.6271   -0.7258   20.9161 C.ar    1  UNL1        0.0999
      5 C           1.3564   -0.1589   20.3560 C.ar    1  UNL1        0.0207
      6 C           1.3153    0.3342   18.9399 C.ar    1  UNL1        0.0016
      7 C           2.5449    0.2603   18.0840 C.ar    1  UNL1        0.0016
      8 C           3.8156   -0.3067   18.6441 C.ar    1  UNL1        0.0188
      9 C           3.8567   -0.7997   20.0602 C.ar    1  UNL1        0.0799
     10 N           5.1649   -2.3166   23.3848 N.pl3   1  UNL1       -0.2781
     11 C           5.5200   -1.6358   24.6734 C.3     1  UNL1        0.0950
     12 C           6.2748   -2.6153   25.5225 C.3     1  UNL1        0.0392
     13 C           6.3861   -3.9014   24.7587 C.3     1  UNL1        0.0792
     14 C           5.7002   -3.7168   23.4376 C.3     1  UNL1        0.1095
     15 N           7.0644   -5.1525   25.2328 N.3     1  UNL1       -0.2699
     16 C           7.9535   -5.9225   24.3019 C.3     1  UNL1        0.0897
     17 C           6.8534   -5.6337   26.6378 C.3     1  UNL1        0.0897
     18 C           6.3605   -1.6640   20.4193 C.3     1  UNL1        0.1407
     19 C           6.6967   -2.9517   19.7275 C.3     1  UNL1        0.1666
     20 O           5.7713   -4.1270   19.8393 O.3     1  UNL1       -0.3517
     21 C           3.2778   -4.4524   19.1864 C.3     1  UNL1        0.0346
     22 C           4.7220   -4.3576   18.7925 C.3     1  UNL1        0.1423
@<TRIPOS>BOND
     1    21    22    1
     2    22    20    1
     3    20    19    1
     4    19    18    1
     5    18     1    1
     6     1     2   ar
     7     2    10    1
     8    10    11    1
     9    11    12    1
    10    12    13    1
    11    13    15    1
    12    15    16    1
    13    15    17    1
    14    13    14    1
    15     2     3   ar
    16     3     4   ar
    17     4     5   ar
    18     5     6   ar
    19     6     7   ar
    20     7     8   ar
    21     8     9   ar
    22     9     1   ar
    23    14    10    1
    24     9     4   ar
