@<TRIPOS>MOLECULE
*****
 26 28 0 0 0
SMALL
GASTEIGER

@<TRIPOS>ATOM
      1 C           7.3362   -5.6269   29.7193 C.2     1  UNL1        0.0412
      2 C           7.2385   -5.3294   28.2524 C.2     1  UNL1       -0.0326
      3 C           6.7078   -4.0050   27.7894 C.3     1  UNL1        0.0443
      4 C           6.6101   -3.7075   26.3225 C.3     1  UNL1        0.1011
      5 N           7.0431   -4.7345   25.3185 N.am    1  UNL1       -0.2453
      6 C           6.9454   -4.4370   23.8515 C.2     1  UNL1        0.4052
      7 O           7.3784   -5.4639   22.8476 O.2     1  UNL1       -0.2262
      8 C           7.5738   -6.0588   25.7814 C.3     1  UNL1        0.1011
      9 C           7.6715   -6.3563   27.2485 C.3     1  UNL1        0.0443
     10 C           6.4703   -3.5731   31.7273 C.1     1  UNL1       -0.0405
     11 C           6.9032   -4.6000   30.7234 C.1     1  UNL1       -0.0583
     12 C           7.5352    0.5828   34.6590 C.3     1  UNL1        0.0521
     13 C           6.5698   -0.4682   34.1972 C.ar    1  UNL1        0.0600
     14 C           5.1714   -0.4924   34.7393 C.ar    1  UNL1        0.0148
     15 C           4.2060   -1.5434   34.2775 C.ar    1  UNL1        0.0034
     16 C           4.6389   -2.5703   33.2735 C.ar    1  UNL1        0.0276
     17 C           6.0373   -2.5461   32.7314 C.ar    1  UNL1        0.1224
     18 N           7.0027   -1.4951   33.1932 N.ar    1  UNL1       -0.2414
     19 O           6.4147   -3.1126   23.3886 O.3     1  UNL1       -0.4295
     20 C           4.9391   -2.9204   23.1998 C.3     1  UNL1        0.2367
     21 C           4.3563   -2.8994   21.8178 C.ar    1  UNL1        0.0213
     22 C           3.5768   -1.7060   21.3507 C.ar    1  UNL1       -0.0007
     23 C           2.9939   -1.6850   19.9687 C.ar    1  UNL1       -0.0002
     24 C           3.1905   -2.8574   19.0539 C.ar    1  UNL1       -0.0000
     25 C           3.9700   -4.0508   19.5211 C.ar    1  UNL1       -0.0002
     26 C           4.5529   -4.0718   20.9030 C.ar    1  UNL1       -0.0007
@<TRIPOS>BOND
     1    12    13    1
     2    13    14   ar
     3    14    15   ar
     4    15    16   ar
     5    16    17   ar
     6    17    10    1
     7    10    11    3
     8    11     1    1
     9     1     2    2
    10     2     3    1
    11     3     4    1
    12     4     5    1
    13     5     6   am
    14     6     7    2
    15     6    19    1
    16    19    20    1
    17    20    21    1
    18    21    22   ar
    19    22    23   ar
    20    23    24   ar
    21    24    25   ar
    22    25    26   ar
    23     5     8    1
    24     8     9    1
    25    17    18   ar
    26    18    13   ar
    27     9     2    1
    28    26    21   ar
@<TRIPOS>MOLECULE
*****
 26 28 0 0 0
SMALL
GASTEIGER

@<TRIPOS>ATOM
      1 C           1.9621    4.1339   18.8323 C.2     1  UNL1        0.0412
      2 C           2.7862    2.9282   18.4901 C.2     1  UNL1       -0.0326
      3 C           2.1479    1.5716   18.4453 C.3     1  UNL1        0.0443
      4 C           2.9720    0.3659   18.1031 C.3     1  UNL1        0.1011
      5 N           4.4345    0.5168   17.8057 N.am    1  UNL1       -0.2453
      6 C           5.2586   -0.6889   17.4635 C.2     1  UNL1        0.4052
      7 O           6.7211   -0.5379   17.1662 O.2     1  UNL1       -0.2262
      8 C           5.0729    1.8735   17.8506 C.3     1  UNL1        0.1011
      9 C           4.2487    3.0792   18.1928 C.3     1  UNL1        0.0443
     10 C          -0.9628    3.8320   19.4270 C.1     1  UNL1       -0.0405
     11 C           0.4996    3.9830   19.1297 C.1     1  UNL1       -0.0583
     12 C          -4.7915    2.8591   22.8026 C.3     1  UNL1        0.0521
     13 C          -4.3396    3.1946   21.4121 C.ar    1  UNL1        0.0600
     14 C          -5.3502    3.3792   20.3191 C.ar    1  UNL1        0.0148
     15 C          -4.8983    3.7147   18.9287 C.ar    1  UNL1        0.0034
     16 C          -3.4359    3.8657   18.6313 C.ar    1  UNL1        0.0276
     17 C          -2.4253    3.6811   19.7243 C.ar    1  UNL1        0.1224
     18 N          -2.8772    3.3456   21.1147 N.ar    1  UNL1       -0.2414
     19 O           4.6203   -2.0455   17.4187 O.3     1  UNL1       -0.4295
     20 C           5.1500   -3.1525   18.2812 C.3     1  UNL1        0.2367
     21 C           4.9977   -3.0804   19.7717 C.ar    1  UNL1        0.0213
     22 C           6.0127   -3.7340   20.6619 C.ar    1  UNL1       -0.0007
     23 C           5.8603   -3.6619   22.1524 C.ar    1  UNL1       -0.0002
     24 C           4.6930   -2.9361   22.7527 C.ar    1  UNL1       -0.0000
     25 C           3.6779   -2.2824   21.8625 C.ar    1  UNL1       -0.0002
     26 C           3.8302   -2.3546   20.3720 C.ar    1  UNL1       -0.0007
@<TRIPOS>BOND
     1    12    13    1
     2    13    14   ar
     3    14    15   ar
     4    15    16   ar
     5    16    17   ar
     6    17    10    1
     7    10    11    3
     8    11     1    1
     9     1     2    2
    10     2     3    1
    11     3     4    1
    12     4     5    1
    13     5     6   am
    14     6     7    2
    15     6    19    1
    16    19    20    1
    17    20    21    1
    18    21    22   ar
    19    22    23   ar
    20    23    24   ar
    21    24    25   ar
    22    25    26   ar
    23     5     8    1
    24     8     9    1
    25    17    18   ar
    26    18    13   ar
    27     9     2    1
    28    26    21   ar
@<TRIPOS>MOLECULE
*****
 26 28 0 0 0
SMALL
GASTEIGER

@<TRIPOS>ATOM
      1 C           6.0746   -2.3338   26.2698 C.2     1  UNL1        0.0412
      2 C           5.2290   -1.8069   27.3911 C.2     1  UNL1       -0.0326
      3 C           3.8223   -1.3602   27.1238 C.3     1  UNL1        0.0443
      4 C           2.9768   -0.8333   28.2451 C.3     1  UNL1        0.1011
      5 N           3.5380   -0.7531   29.6339 N.am    1  UNL1       -0.2453
      6 C           2.6925   -0.2262   30.7552 C.2     1  UNL1        0.4052
      7 O           3.2538   -0.1460   32.1439 O.2     1  UNL1       -0.2262
      8 C           4.9448   -1.1997   29.9013 C.3     1  UNL1        0.1011
      9 C           5.7903   -1.7267   28.7798 C.3     1  UNL1        0.0443
     10 C           4.9521   -2.4943   23.4923 C.1     1  UNL1       -0.0405
     11 C           5.5133   -2.4140   24.8810 C.1     1  UNL1       -0.0583
     12 C           4.5578   -4.9561   18.9334 C.3     1  UNL1        0.0521
     13 C           4.1937   -3.8055   19.8241 C.ar    1  UNL1        0.0600
     14 C           3.2685   -2.7350   19.3261 C.ar    1  UNL1        0.0148
     15 C           2.9044   -1.5844   20.2168 C.ar    1  UNL1        0.0034
     16 C           3.4656   -1.5041   21.6055 C.ar    1  UNL1        0.0276
     17 C           4.3908   -2.5745   22.1035 C.ar    1  UNL1        0.1224
     18 N           4.7549   -3.7252   21.2128 N.ar    1  UNL1       -0.2414
     19 O           1.2857    0.2205   30.4879 O.3     1  UNL1       -0.4295
     20 C           0.9831    1.6787   30.3088 C.3     1  UNL1        0.2367
     21 C           0.4153    2.1730   29.0114 C.ar    1  UNL1        0.0213
     22 C          -0.1387    1.1980   28.0153 C.ar    1  UNL1       -0.0007
     23 C          -0.7065    1.6923   26.7178 C.ar    1  UNL1       -0.0002
     24 C          -0.7203    3.1616   26.4166 C.ar    1  UNL1       -0.0000
     25 C          -0.1663    4.1367   27.4128 C.ar    1  UNL1       -0.0002
     26 C           0.4015    3.6424   28.7102 C.ar    1  UNL1       -0.0007
@<TRIPOS>BOND
     1    12    13    1
     2    13    14   ar
     3    14    15   ar
     4    15    16   ar
     5    16    17   ar
     6    17    10    1
     7    10    11    3
     8    11     1    1
     9     1     2    2
    10     2     3    1
    11     3     4    1
    12     4     5    1
    13     5     6   am
    14     6     7    2
    15     6    19    1
    16    19    20    1
    17    20    21    1
    18    21    22   ar
    19    22    23   ar
    20    23    24   ar
    21    24    25   ar
    22    25    26   ar
    23     5     8    1
    24     8     9    1
    25    17    18   ar
    26    18    13   ar
    27     9     2    1
    28    26    21   ar
@<TRIPOS>MOLECULE
*****
 26 28 0 0 0
SMALL
GASTEIGER

@<TRIPOS>ATOM
      1 C           0.1951    1.6968   21.3754 C.2     1  UNL1        0.0412
      2 C           1.1640    0.9953   20.4704 C.2     1  UNL1       -0.0326
      3 C           2.2966    0.2034   21.0536 C.3     1  UNL1        0.0443
      4 C           3.2654   -0.4981   20.1485 C.3     1  UNL1        0.1011
      5 N           3.1016   -0.4078   18.6601 N.am    1  UNL1       -0.2453
      6 C           4.0705   -1.1093   17.7551 C.2     1  UNL1        0.4052
      7 O           3.9066   -1.0190   16.2668 O.2     1  UNL1       -0.2262
      8 C           1.9690    0.3840   18.0770 C.3     1  UNL1        0.1011
      9 C           1.0001    1.0856   18.9821 C.3     1  UNL1        0.0443
     10 C           0.5226    1.5162   24.3521 C.1     1  UNL1       -0.0405
     11 C           0.3589    1.6065   22.8638 C.1     1  UNL1       -0.0583
     12 C          -1.4107    0.3362   29.0286 C.3     1  UNL1        0.0521
     13 C          -0.2803    0.8359   28.1786 C.ar    1  UNL1        0.0600
     14 C           1.0139    1.2453   28.8169 C.ar    1  UNL1        0.0148
     15 C           2.1443    1.7450   27.9670 C.ar    1  UNL1        0.0034
     16 C           1.9806    1.8353   26.4787 C.ar    1  UNL1        0.0276
     17 C           0.6864    1.4259   25.8404 C.ar    1  UNL1        0.1224
     18 N          -0.4440    0.9262   26.6904 N.ar    1  UNL1       -0.2414
     19 O           5.2031   -1.9012   18.3383 O.3     1  UNL1       -0.4295
     20 C           4.9353   -3.2261   18.9885 C.3     1  UNL1        0.2367
     21 C           5.4830   -3.5154   20.3546 C.ar    1  UNL1        0.0213
     22 C           4.5727   -3.4985   21.5467 C.ar    1  UNL1       -0.0007
     23 C           5.1204   -3.7878   22.9128 C.ar    1  UNL1       -0.0002
     24 C           6.5784   -4.0941   23.0869 C.ar    1  UNL1       -0.0000
     25 C           7.4888   -4.1110   21.8948 C.ar    1  UNL1       -0.0002
     26 C           6.9411   -3.8217   20.5287 C.ar    1  UNL1       -0.0007
@<TRIPOS>BOND
     1    12    13    1
     2    13    14   ar
     3    14    15   ar
     4    15    16   ar
     5    16    17   ar
     6    17    10    1
     7    10    11    3
     8    11     1    1
     9     1     2    2
    10     2     3    1
    11     3     4    1
    12     4     5    1
    13     5     6   am
    14     6     7    2
    15     6    19    1
    16    19    20    1
    17    20    21    1
    18    21    22   ar
    19    22    23   ar
    20    23    24   ar
    21    24    25   ar
    22    25    26   ar
    23     5     8    1
    24     8     9    1
    25    17    18   ar
    26    18    13   ar
    27     9     2    1
    28    26    21   ar
@<TRIPOS>MOLECULE
*****
 26 28 0 0 0
SMALL
GASTEIGER

@<TRIPOS>ATOM
      1 C          -0.4662    2.2284   27.1908 C.2     1  UNL1        0.0412
      2 C           0.3540    1.6931   26.0547 C.2     1  UNL1       -0.0326
      3 C          -0.1248    1.8553   24.6424 C.3     1  UNL1        0.0443
      4 C           0.6954    1.3200   23.5063 C.3     1  UNL1        0.1011
      5 N           1.9943    0.6223   23.7825 N.am    1  UNL1       -0.2453
      6 C           2.8144    0.0869   22.6464 C.2     1  UNL1        0.4052
      7 O           4.1132   -0.6107   22.9226 O.2     1  UNL1       -0.2262
      8 C           2.4730    0.4600   25.1948 C.3     1  UNL1        0.1011
      9 C           1.6528    0.9954   26.3309 C.3     1  UNL1        0.0443
     10 C          -3.0639    3.6238   26.6385 C.1     1  UNL1       -0.0405
     11 C          -1.7651    2.9261   26.9146 C.1     1  UNL1       -0.0583
     12 C          -6.8796    6.8011   28.1698 C.3     1  UNL1        0.0521
     13 C          -6.2706    5.9101   27.1280 C.ar    1  UNL1        0.0600
     14 C          -6.9604    5.7168   25.8102 C.ar    1  UNL1        0.0148
     15 C          -6.3514    4.8258   24.7684 C.ar    1  UNL1        0.0034
     16 C          -5.0526    4.1282   25.0445 C.ar    1  UNL1        0.0276
     17 C          -4.3628    4.3215   26.3624 C.ar    1  UNL1        0.1224
     18 N          -4.9718    5.2124   27.4041 N.ar    1  UNL1       -0.2414
     19 O           2.3357    0.2492   21.2341 O.3     1  UNL1       -0.4295
     20 C           2.0643   -0.9610   20.3905 C.3     1  UNL1        0.2367
     21 C           3.1843   -1.6190   19.6406 C.ar    1  UNL1        0.0213
     22 C           3.8431   -0.9050   18.4977 C.ar    1  UNL1       -0.0007
     23 C           4.9632   -1.5630   17.7478 C.ar    1  UNL1       -0.0002
     24 C           5.4245   -2.9351   18.1407 C.ar    1  UNL1       -0.0000
     25 C           4.7657   -3.6493   19.2836 C.ar    1  UNL1       -0.0002
     26 C           3.6457   -2.9912   20.0335 C.ar    1  UNL1       -0.0007
@<TRIPOS>BOND
     1    12    13    1
     2    13    14   ar
     3    14    15   ar
     4    15    16   ar
     5    16    17   ar
     6    17    10    1
     7    10    11    3
     8    11     1    1
     9     1     2    2
    10     2     3    1
    11     3     4    1
    12     4     5    1
    13     5     6   am
    14     6     7    2
    15     6    19    1
    16    19    20    1
    17    20    21    1
    18    21    22   ar
    19    22    23   ar
    20    23    24   ar
    21    24    25   ar
    22    25    26   ar
    23     5     8    1
    24     8     9    1
    25    17    18   ar
    26    18    13   ar
    27     9     2    1
    28    26    21   ar
@<TRIPOS>MOLECULE
*****
 26 28 0 0 0
SMALL
GASTEIGER

@<TRIPOS>ATOM
      1 C           8.0585   -4.9938   22.7172 C.2     1  UNL1        0.0412
      2 C           8.0105   -5.3010   24.1845 C.2     1  UNL1       -0.0326
      3 C           6.9002   -4.7512   25.0300 C.3     1  UNL1        0.0443
      4 C           6.8523   -5.0584   26.4974 C.3     1  UNL1        0.1011
      5 N           7.9147   -5.9155   27.1194 N.am    1  UNL1       -0.2453
      6 C           7.8667   -6.2228   28.5868 C.2     1  UNL1        0.4052
      7 O           8.9291   -7.0798   29.2086 O.2     1  UNL1       -0.2262
      8 C           9.0250   -6.4653   26.2739 C.3     1  UNL1        0.1011
      9 C           9.0729   -6.1581   24.8064 C.3     1  UNL1        0.0443
     10 C           5.9337   -3.2797   21.4733 C.1     1  UNL1       -0.0405
     11 C           6.9961   -4.1367   22.0952 C.1     1  UNL1       -0.0583
     12 C           3.9061   -0.9493   17.2949 C.3     1  UNL1        0.0521
     13 C           3.8575   -1.2574   18.7621 C.ar    1  UNL1        0.0600
     14 C           2.7466   -0.7085   19.6074 C.ar    1  UNL1        0.0148
     15 C           2.6980   -1.0166   21.0746 C.ar    1  UNL1        0.0034
     16 C           3.7604   -1.8736   21.6966 C.ar    1  UNL1        0.0276
     17 C           4.8713   -2.4226   20.8513 C.ar    1  UNL1        0.1224
     18 N           4.9199   -2.1145   19.3841 N.ar    1  UNL1       -0.2414
     19 O           6.7564   -5.6730   29.4323 O.3     1  UNL1       -0.4295
     20 C           6.9175   -5.5913   30.9213 C.3     1  UNL1        0.2367
     21 C           7.2939   -4.2896   31.5647 C.ar    1  UNL1        0.0213
     22 C           6.2265   -3.3778   32.0930 C.ar    1  UNL1       -0.0007
     23 C           6.6029   -2.0761   32.7364 C.ar    1  UNL1       -0.0002
     24 C           8.0467   -1.6863   32.8516 C.ar    1  UNL1       -0.0000
     25 C           9.1143   -2.5982   32.3233 C.ar    1  UNL1       -0.0002
     26 C           8.7379   -3.8998   31.6799 C.ar    1  UNL1       -0.0007
@<TRIPOS>BOND
     1    12    13    1
     2    13    14   ar
     3    14    15   ar
     4    15    16   ar
     5    16    17   ar
     6    17    10    1
     7    10    11    3
     8    11     1    1
     9     1     2    2
    10     2     3    1
    11     3     4    1
    12     4     5    1
    13     5     6   am
    14     6     7    2
    15     6    19    1
    16    19    20    1
    17    20    21    1
    18    21    22   ar
    19    22    23   ar
    20    23    24   ar
    21    24    25   ar
    22    25    26   ar
    23     5     8    1
    24     8     9    1
    25    17    18   ar
    26    18    13   ar
    27     9     2    1
    28    26    21   ar
@<TRIPOS>MOLECULE
*****
 26 28 0 0 0
SMALL
GASTEIGER

@<TRIPOS>ATOM
      1 C           1.6812    1.2981   22.9398 C.2     1  UNL1        0.0412
      2 C           2.4217    0.0745   22.4878 C.2     1  UNL1       -0.0326
      3 C           2.0897   -0.5587   21.1692 C.3     1  UNL1        0.0443
      4 C           2.8302   -1.7823   20.7171 C.3     1  UNL1        0.1011
      5 N           3.9027   -2.3728   21.5838 N.am    1  UNL1       -0.2453
      6 C           4.6432   -3.5964   21.1318 C.2     1  UNL1        0.4052
      7 O           5.7158   -4.1868   21.9984 O.2     1  UNL1       -0.2262
      8 C           4.2348   -1.7396   22.9024 C.3     1  UNL1        0.1011
      9 C           3.4942   -0.5159   23.3544 C.3     1  UNL1        0.0443
     10 C          -0.4640    2.4791   21.2067 C.1     1  UNL1       -0.0405
     11 C           0.6086    1.8886   22.0732 C.1     1  UNL1       -0.0583
     12 C          -5.4845    3.4725   20.3082 C.3     1  UNL1        0.0521
     13 C          -4.0468    3.5663   19.8908 C.ar    1  UNL1        0.0600
     14 C          -3.6816    4.2504   18.6069 C.ar    1  UNL1        0.0148
     15 C          -2.2439    4.3441   18.1895 C.ar    1  UNL1        0.0034
     16 C          -1.1714    3.7537   19.0561 C.ar    1  UNL1        0.0276
     17 C          -1.5365    3.0695   20.3400 C.ar    1  UNL1        0.1224
     18 N          -2.9742    2.9758   20.7574 N.ar    1  UNL1       -0.2414
     19 O           4.3112   -4.2296   19.8131 O.3     1  UNL1       -0.4295
     20 C           5.1650   -3.9517   18.6116 C.3     1  UNL1        0.2367
     21 C           5.4527   -2.5362   18.2071 C.ar    1  UNL1        0.0213
     22 C           4.3714   -1.6970   17.5935 C.ar    1  UNL1       -0.0007
     23 C           4.6591   -0.2815   17.1890 C.ar    1  UNL1       -0.0002
     24 C           6.0281    0.2947   17.3981 C.ar    1  UNL1       -0.0000
     25 C           7.1095   -0.5445   18.0117 C.ar    1  UNL1       -0.0002
     26 C           6.8218   -1.9600   18.4162 C.ar    1  UNL1       -0.0007
@<TRIPOS>BOND
     1    12    13    1
     2    13    14   ar
     3    14    15   ar
     4    15    16   ar
     5    16    17   ar
     6    17    10    1
     7    10    11    3
     8    11     1    1
     9     1     2    2
    10     2     3    1
    11     3     4    1
    12     4     5    1
    13     5     6   am
    14     6     7    2
    15     6    19    1
    16    19    20    1
    17    20    21    1
    18    21    22   ar
    19    22    23   ar
    20    23    24   ar
    21    24    25   ar
    22    25    26   ar
    23     5     8    1
    24     8     9    1
    25    17    18   ar
    26    18    13   ar
    27     9     2    1
    28    26    21   ar
@<TRIPOS>MOLECULE
*****
 26 28 0 0 0
SMALL
GASTEIGER

@<TRIPOS>ATOM
      1 C           5.8949   -2.0665   26.7509 C.2     1  UNL1        0.0412
      2 C           5.7912   -2.4645   25.3084 C.2     1  UNL1       -0.0326
      3 C           4.5599   -2.1226   24.5228 C.3     1  UNL1        0.0443
      4 C           4.4562   -2.5206   23.0803 C.3     1  UNL1        0.1011
      5 N           5.5836   -3.2605   22.4234 N.am    1  UNL1       -0.2453
      6 C           5.4799   -3.6585   20.9809 C.2     1  UNL1        0.4052
      7 O           6.6073   -4.3983   20.3241 O.2     1  UNL1       -0.2262
      8 C           6.8149   -3.6023   23.2090 C.3     1  UNL1        0.1011
      9 C           6.9186   -3.2043   24.6516 C.3     1  UNL1        0.0443
     10 C           3.6400   -0.5869   28.0647 C.1     1  UNL1       -0.0405
     11 C           4.7674   -1.3266   27.4078 C.1     1  UNL1       -0.0583
     12 C          -1.4398   -0.0506   29.0176 C.3     1  UNL1        0.0521
     13 C          -0.0274    0.4211   29.1980 C.ar    1  UNL1        0.0600
     14 C           0.2575    1.6325   30.0353 C.ar    1  UNL1        0.0148
     15 C           1.6700    2.1042   30.2158 C.ar    1  UNL1        0.0034
     16 C           2.7974    1.3644   29.5589 C.ar    1  UNL1        0.0276
     17 C           2.5125    0.1530   28.7216 C.ar    1  UNL1        0.1224
     18 N           1.1000   -0.3187   28.5412 N.ar    1  UNL1       -0.2414
     19 O           4.2486   -3.3166   20.1953 O.3     1  UNL1       -0.4295
     20 C           4.2636   -2.1564   19.2447 C.3     1  UNL1        0.2367
     21 C           3.1504   -1.1514   19.2704 C.ar    1  UNL1        0.0213
     22 C           2.0403   -1.2872   20.2700 C.ar    1  UNL1       -0.0007
     23 C           0.9270   -0.2821   20.2957 C.ar    1  UNL1       -0.0002
     24 C           0.9239    0.8587   19.3218 C.ar    1  UNL1       -0.0000
     25 C           2.0341    0.9945   18.3221 C.ar    1  UNL1       -0.0002
     26 C           3.1473   -0.0105   18.2964 C.ar    1  UNL1       -0.0007
@<TRIPOS>BOND
     1    12    13    1
     2    13    14   ar
     3    14    15   ar
     4    15    16   ar
     5    16    17   ar
     6    17    10    1
     7    10    11    3
     8    11     1    1
     9     1     2    2
    10     2     3    1
    11     3     4    1
    12     4     5    1
    13     5     6   am
    14     6     7    2
    15     6    19    1
    16    19    20    1
    17    20    21    1
    18    21    22   ar
    19    22    23   ar
    20    23    24   ar
    21    24    25   ar
    22    25    26   ar
    23     5     8    1
    24     8     9    1
    25    17    18   ar
    26    18    13   ar
    27     9     2    1
    28    26    21   ar
@<TRIPOS>MOLECULE
*****
 26 28 0 0 0
SMALL
GASTEIGER

@<TRIPOS>ATOM
      1 C           3.0431    2.7500   18.3506 C.2     1  UNL1        0.0412
      2 C           1.6325    3.0175   18.7847 C.2     1  UNL1       -0.0326
      3 C           0.8842    1.9883   19.5789 C.3     1  UNL1        0.0443
      4 C          -0.5264    2.2558   20.0130 C.3     1  UNL1        0.1011
      5 N          -1.1888    3.5526   19.6529 N.am    1  UNL1       -0.2453
      6 C          -2.5995    3.8201   20.0870 C.2     1  UNL1        0.4052
      7 O          -3.2618    5.1169   19.7270 O.2     1  UNL1       -0.2262
      8 C          -0.4405    4.5818   18.8588 C.3     1  UNL1        0.1011
      9 C           0.9702    4.3143   18.4246 C.3     1  UNL1        0.0443
     10 C           4.3679    0.1564   19.0707 C.1     1  UNL1       -0.0405
     11 C           3.7055    1.4531   18.7107 C.1     1  UNL1       -0.0583
     12 C           4.5271   -5.0321   18.8379 C.3     1  UNL1        0.0521
     13 C           5.1099   -3.7347   19.3143 C.ar    1  UNL1        0.0600
     14 C           6.3550   -3.7340   20.1507 C.ar    1  UNL1        0.0148
     15 C           6.9377   -2.4365   20.6272 C.ar    1  UNL1        0.0034
     16 C           6.2754   -1.1397   20.2672 C.ar    1  UNL1        0.0276
     17 C           5.0303   -1.1404   19.4307 C.ar    1  UNL1        0.1224
     18 N           4.4475   -2.4379   18.9543 N.ar    1  UNL1       -0.2414
     19 O          -3.3478    2.7909   20.8812 O.3     1  UNL1       -0.4295
     20 C          -4.8089    2.9783   21.1639 C.3     1  UNL1        0.2367
     21 C          -5.2543    3.4925   22.5007 C.ar    1  UNL1        0.0213
     22 C          -4.3779    3.3102   23.7043 C.ar    1  UNL1       -0.0007
     23 C          -4.8233    3.8244   25.0412 C.ar    1  UNL1       -0.0002
     24 C          -6.1451    4.5209   25.1745 C.ar    1  UNL1       -0.0000
     25 C          -7.0215    4.7032   23.9709 C.ar    1  UNL1       -0.0002
     26 C          -6.5761    4.1890   22.6340 C.ar    1  UNL1       -0.0007
@<TRIPOS>BOND
     1    12    13    1
     2    13    14   ar
     3    14    15   ar
     4    15    16   ar
     5    16    17   ar
     6    17    10    1
     7    10    11    3
     8    11     1    1
     9     1     2    2
    10     2     3    1
    11     3     4    1
    12     4     5    1
    13     5     6   am
    14     6     7    2
    15     6    19    1
    16    19    20    1
    17    20    21    1
    18    21    22   ar
    19    22    23   ar
    20    23    24   ar
    21    24    25   ar
    22    25    26   ar
    23     5     8    1
    24     8     9    1
    25    17    18   ar
    26    18    13   ar
    27     9     2    1
    28    26    21   ar
