@<TRIPOS>MOLECULE
*****
 29 31 0 0 0
SMALL
GASTEIGER

@<TRIPOS>ATOM
      1 C          -6.0421  -15.9482   24.9489 C.3     1  UNL1        0.1533
      2 C          -5.7172  -15.3995   26.3065 C.3     1  UNL1        0.0293
      3 C          -6.8150  -15.1547   27.2989 C.3     1  UNL1        0.0040
      4 C          -8.2377  -15.4585   26.9336 C.3     1  UNL1        0.0216
      5 C          -8.5627  -16.0072   25.5759 C.3     1  UNL1        0.0954
      6 N          -7.4649  -16.2520   24.5836 N.am    1  UNL1       -0.2573
      7 C          -7.7898  -16.8008   23.2258 C.2     1  UNL1        0.3076
      8 O          -6.6920  -17.0456   22.2334 O.2     1  UNL1       -0.2523
      9 N          -9.2126  -17.1046   22.8605 N.am    1  UNL1       -0.2604
     10 C         -10.3104  -16.8597   23.8530 C.3     1  UNL1        0.1203
     11 C         -11.7332  -17.1636   23.4877 C.3     1  UNL1        0.1723
     12 S         -12.0581  -17.7123   22.1299 S.O2    1  UNL1       -0.0066
     13 O         -12.8612  -18.2395   20.9779 O.2     1  UNL1       -0.1729
     14 O         -13.4349  -17.6505   22.7223 O.2     1  UNL1       -0.1729
     15 C         -10.9603  -17.9571   21.1376 C.3     1  UNL1        0.1723
     16 C          -9.5376  -17.6533   21.5029 C.3     1  UNL1        0.1203
     17 N          -4.3476  -17.5626   23.8208 N.am    1  UNL1       -0.2654
     18 C          -4.9443  -16.1931   23.9564 C.2     1  UNL1        0.2454
     19 O          -4.4432  -15.0684   23.0996 O.2     1  UNL1       -0.2730
     20 H          -4.6765  -18.3007   24.3831 H       1  UNL1        0.1564
     21 C          -2.0173  -17.9749   20.7442 C.ar    1  UNL1        0.1549
     22 C          -3.3436  -17.6127   21.3440 C.ar    1  UNL1        0.0733
     23 C          -3.2498  -17.8074   22.8283 C.ar    1  UNL1        0.1760
     24 N          -1.8655  -18.2900   23.1459 N.ar    1  UNL1       -0.0621
     25 O          -1.1038  -18.3935   21.8579 O.2     1  UNL1       -0.3565
     26 C          -0.2080  -17.9139   19.6384 C.3     1  UNL1        0.0076
     27 C          -1.6661  -17.9269   19.2867 C.3     1  UNL1        0.0539
     28 C          -3.1242  -17.9399   18.9349 C.3     1  UNL1        0.0076
     29 C          -1.3149  -17.8790   17.8292 C.3     1  UNL1        0.0076
@<TRIPOS>BOND
     1    26    27    1
     2    27    28    1
     3    27    29    1
     4    27    21    1
     5    21    22   ar
     6    22    23   ar
     7    23    17    1
     8    17    18   am
     9    18    19    2
    10     1    18    1
    11     1     2    1
    12     2     3    1
    13     3     4    1
    14     4     5    1
    15     5     6    1
    16     6     7   am
    17     7     8    2
    18     7     9   am
    19     9    10    1
    20    10    11    1
    21    11    12    1
    22    12    13    2
    23    12    14    2
    24    12    15    1
    25    15    16    1
    26    23    24   ar
    27    24    25   ar
    28    25    21   ar
    29     6     1    1
    30    16     9    1
    31    17    20    1
@<TRIPOS>MOLECULE
*****
 29 31 0 0 0
SMALL
GASTEIGER

@<TRIPOS>ATOM
      1 C           8.4561   -6.1632   26.5554 C.3     1  UNL1        0.1533
      2 C           9.3036   -7.3866   26.3681 C.3     1  UNL1        0.0293
      3 C           9.4840   -7.9714   24.9987 C.3     1  UNL1        0.0040
      4 C           8.8169   -7.3330   23.8166 C.3     1  UNL1        0.0216
      5 C           7.9694   -6.1096   24.0039 C.3     1  UNL1        0.0954
      6 N           7.7890   -5.5247   25.3733 N.am    1  UNL1       -0.2573
      7 C           6.9415   -4.3013   25.5607 C.2     1  UNL1        0.3076
      8 O           6.7611   -3.7165   26.9301 O.2     1  UNL1       -0.2523
      9 N           6.2744   -3.6629   24.3786 N.am    1  UNL1       -0.2604
     10 C           6.4549   -4.2478   23.0091 C.3     1  UNL1        0.1203
     11 C           5.7878   -3.6093   21.8271 C.3     1  UNL1        0.1723
     12 S           4.9402   -2.3859   22.0144 S.O2    1  UNL1       -0.0066
     13 O           4.0477   -1.2257   21.6866 O.2     1  UNL1       -0.1729
     14 O           4.8107   -2.5679   20.5311 O.2     1  UNL1       -0.1729
     15 C           4.7598   -1.8010   23.3839 C.3     1  UNL1        0.1723
     16 C           5.4269   -2.4395   24.5659 C.3     1  UNL1        0.1203
     17 N           7.0451   -5.8978   28.7207 N.am    1  UNL1       -0.2654
     18 C           8.2757   -5.5783   27.9249 C.2     1  UNL1        0.2454
     19 O           9.3259   -4.6738   28.4984 O.2     1  UNL1       -0.2730
     20 H           6.3558   -6.4915   28.3443 H       1  UNL1        0.1564
     21 C           6.5586   -3.7249   31.8999 C.ar    1  UNL1        0.1549
     22 C           6.7126   -3.8561   30.4136 C.ar    1  UNL1        0.0733
     23 C           6.8646   -5.3129   30.0902 C.ar    1  UNL1        0.1760
     24 N           6.8045   -6.0821   31.3766 N.ar    1  UNL1       -0.0621
     25 O           6.6154   -5.1007   32.4950 O.2     1  UNL1       -0.3565
     26 C           4.9310   -2.7712   32.8703 C.3     1  UNL1        0.0076
     27 C           6.3792   -2.4430   32.6580 C.3     1  UNL1        0.0539
     28 C           7.8274   -2.1149   32.4457 C.3     1  UNL1        0.0076
     29 C           6.1999   -1.1612   33.4161 C.3     1  UNL1        0.0076
@<TRIPOS>BOND
     1    26    27    1
     2    27    28    1
     3    27    29    1
     4    27    21    1
     5    21    22   ar
     6    22    23   ar
     7    23    17    1
     8    17    18   am
     9    18    19    2
    10     1    18    1
    11     1     2    1
    12     2     3    1
    13     3     4    1
    14     4     5    1
    15     5     6    1
    16     6     7   am
    17     7     8    2
    18     7     9   am
    19     9    10    1
    20    10    11    1
    21    11    12    1
    22    12    13    2
    23    12    14    2
    24    12    15    1
    25    15    16    1
    26    23    24   ar
    27    24    25   ar
    28    25    21   ar
    29     6     1    1
    30    16     9    1
    31    17    20    1
@<TRIPOS>MOLECULE
*****
 29 31 0 0 0
SMALL
GASTEIGER

@<TRIPOS>ATOM
      1 C           4.4462   -2.0885   19.4528 C.3     1  UNL1        0.1533
      2 C           4.6318   -2.0175   17.9661 C.3     1  UNL1        0.0293
      3 C           3.9852   -0.9147   17.1814 C.3     1  UNL1        0.0040
      4 C           3.1531    0.1171   17.8835 C.3     1  UNL1        0.0216
      5 C           2.9675    0.0461   19.3703 C.3     1  UNL1        0.0954
      6 N           3.6141   -1.0568   20.1549 N.am    1  UNL1       -0.2573
      7 C           3.4285   -1.1278   21.6418 C.2     1  UNL1        0.3076
      8 O           4.0751   -2.2306   22.4264 O.2     1  UNL1       -0.2523
      9 N           2.5964   -0.0960   22.3439 N.am    1  UNL1       -0.2604
     10 C           1.9498    1.0068   21.5591 C.3     1  UNL1        0.1203
     11 C           1.1176    2.0386   22.2613 C.3     1  UNL1        0.1723
     12 S           0.9321    1.9675   23.7481 S.O2    1  UNL1       -0.0066
     13 O           0.4657    2.3223   25.1289 O.2     1  UNL1       -0.1729
     14 O           0.1235    3.1936   23.4430 O.2     1  UNL1       -0.1729
     15 C           1.5786    0.8647   24.5327 C.3     1  UNL1        0.1723
     16 C           2.4108   -0.1671   23.8306 C.3     1  UNL1        0.1203
     17 N           6.3997   -2.9504   20.9330 N.am    1  UNL1       -0.2654
     18 C           5.0928   -3.1914   20.2375 C.2     1  UNL1        0.2454
     19 O           4.4323   -4.5352   20.3268 O.2     1  UNL1       -0.2730
     20 H           6.8332   -2.0684   20.8744 H       1  UNL1        0.1564
     21 C           7.6860   -5.5185   23.5438 C.ar    1  UNL1        0.1549
     22 C           6.8515   -4.3263   23.1798 C.ar    1  UNL1        0.0733
     23 C           7.0463   -4.0533   21.7177 C.ar    1  UNL1        0.1760
     24 N           8.0011   -5.0766   21.1782 N.ar    1  UNL1       -0.0621
     25 O           8.3965   -5.9822   22.3068 O.2     1  UNL1       -0.3565
     26 C           8.4273   -7.3554   24.3027 C.3     1  UNL1        0.0076
     27 C           7.7915   -6.1381   24.9058 C.3     1  UNL1        0.0539
     28 C           7.1556   -4.9208   25.5089 C.3     1  UNL1        0.0076
     29 C           7.8969   -6.7577   26.2677 C.3     1  UNL1        0.0076
@<TRIPOS>BOND
     1    26    27    1
     2    27    28    1
     3    27    29    1
     4    27    21    1
     5    21    22   ar
     6    22    23   ar
     7    23    17    1
     8    17    18   am
     9    18    19    2
    10     1    18    1
    11     1     2    1
    12     2     3    1
    13     3     4    1
    14     4     5    1
    15     5     6    1
    16     6     7   am
    17     7     8    2
    18     7     9   am
    19     9    10    1
    20    10    11    1
    21    11    12    1
    22    12    13    2
    23    12    14    2
    24    12    15    1
    25    15    16    1
    26    23    24   ar
    27    24    25   ar
    28    25    21   ar
    29     6     1    1
    30    16     9    1
    31    17    20    1
@<TRIPOS>MOLECULE
*****
 29 31 0 0 0
SMALL
GASTEIGER

@<TRIPOS>ATOM
      1 C          -1.1164    2.9497   22.4643 C.3     1  UNL1        0.1533
      2 C          -0.7738    2.9374   23.9246 C.3     1  UNL1        0.0293
      3 C          -1.7702    3.4278   24.9328 C.3     1  UNL1        0.0040
      4 C          -3.1092    3.9307   24.4807 C.3     1  UNL1        0.0216
      5 C          -3.4517    3.9430   23.0204 C.3     1  UNL1        0.0954
      6 N          -2.4553    3.4526   22.0122 N.am    1  UNL1       -0.2573
      7 C          -2.7978    3.4649   20.5518 C.2     1  UNL1        0.3076
      8 O          -1.8014    2.9745   19.5436 O.2     1  UNL1       -0.2523
      9 N          -4.1368    3.9678   20.0998 N.am    1  UNL1       -0.2604
     10 C          -5.1332    4.4582   21.1081 C.3     1  UNL1        0.1203
     11 C          -6.4722    4.9611   20.6560 C.3     1  UNL1        0.1723
     12 S          -6.8147    4.9734   19.1957 S.O2    1  UNL1       -0.0066
     13 O          -7.5978    5.1812   17.9332 O.2     1  UNL1       -0.1729
     14 O          -8.0831    5.5360   19.7655 O.2     1  UNL1       -0.1729
     15 C          -5.8183    4.4829   18.1874 C.3     1  UNL1        0.1723
     16 C          -4.4793    3.9801   18.6395 C.3     1  UNL1        0.1203
     17 N          -0.2260    1.0648   20.9137 N.am    1  UNL1       -0.2654
     18 C          -0.1199    2.4593   21.4560 C.2     1  UNL1        0.2454
     19 O           0.9826    3.3633   20.9900 O.2     1  UNL1       -0.2730
     20 H          -0.9496    0.4714   21.2195 H       1  UNL1        0.1564
     21 C           2.6033   -0.6341   18.8706 C.ar    1  UNL1        0.1549
     22 C           1.8408   -0.4480   20.1489 C.ar    1  UNL1        0.0733
     23 C           0.7704    0.5743   19.9054 C.ar    1  UNL1        0.1760
     24 N           0.8714    1.0200   18.4767 N.ar    1  UNL1       -0.0621
     25 O           2.0042    0.2732   17.8371 O.2     1  UNL1       -0.3565
     26 C           3.5075   -2.1814   20.0056 C.3     1  UNL1        0.0076
     27 C           3.7616   -1.5642   18.6623 C.3     1  UNL1        0.0539
     28 C           4.0157   -0.9470   17.3190 C.3     1  UNL1        0.0076
     29 C           4.9198   -2.4943   18.4540 C.3     1  UNL1        0.0076
@<TRIPOS>BOND
     1    26    27    1
     2    27    28    1
     3    27    29    1
     4    27    21    1
     5    21    22   ar
     6    22    23   ar
     7    23    17    1
     8    17    18   am
     9    18    19    2
    10     1    18    1
    11     1     2    1
    12     2     3    1
    13     3     4    1
    14     4     5    1
    15     5     6    1
    16     6     7   am
    17     7     8    2
    18     7     9   am
    19     9    10    1
    20    10    11    1
    21    11    12    1
    22    12    13    2
    23    12    14    2
    24    12    15    1
    25    15    16    1
    26    23    24   ar
    27    24    25   ar
    28    25    21   ar
    29     6     1    1
    30    16     9    1
    31    17    20    1
@<TRIPOS>MOLECULE
*****
 29 31 0 0 0
SMALL
GASTEIGER

@<TRIPOS>ATOM
      1 C           7.6018   -5.1485   23.6761 C.3     1  UNL1        0.1533
      2 C           8.2661   -6.0768   22.7031 C.3     1  UNL1        0.0293
      3 C           9.0237   -7.2708   23.2034 C.3     1  UNL1        0.0040
      4 C           9.1170   -7.5366   24.6767 C.3     1  UNL1        0.0216
      5 C           8.4526   -6.6083   25.6497 C.3     1  UNL1        0.0954
      6 N           7.6950   -5.4143   25.1495 N.am    1  UNL1       -0.2573
      7 C           7.0306   -4.4859   26.1225 C.2     1  UNL1        0.3076
      8 O           6.2730   -3.2919   25.6223 O.2     1  UNL1       -0.2523
      9 N           7.1239   -4.7516   27.5959 N.am    1  UNL1       -0.2604
     10 C           7.8815   -5.9457   28.0961 C.3     1  UNL1        0.1203
     11 C           7.9748   -6.2115   29.5694 C.3     1  UNL1        0.1723
     12 S           7.3104   -5.2831   30.5425 S.O2    1  UNL1       -0.0066
     13 O           6.8541   -4.6990   31.8466 O.2     1  UNL1       -0.1729
     14 O           7.9095   -6.2743   31.4957 O.2     1  UNL1       -0.1729
     15 C           6.5528   -4.0891   30.0422 C.3     1  UNL1        0.1723
     16 C           6.4595   -3.8234   28.5689 C.3     1  UNL1        0.1203
     17 N           5.3561   -4.0290   23.0026 N.am    1  UNL1       -0.2654
     18 C           6.8441   -3.9544   23.1759 C.2     1  UNL1        0.2454
     19 O           7.5746   -2.6858   22.8490 O.2     1  UNL1       -0.2730
     20 H           4.8766   -4.8617   23.2172 H       1  UNL1        0.1564
     21 C           3.4978   -1.2506   21.0295 C.ar    1  UNL1        0.1549
     22 C           4.2586   -2.5428   21.0708 C.ar    1  UNL1        0.0733
     23 C           4.5984   -2.8349   22.5023 C.ar    1  UNL1        0.1760
     24 N           4.0476   -1.7235   23.3457 N.ar    1  UNL1       -0.0621
     25 O           3.3674   -0.7443   22.4355 O.2     1  UNL1       -0.3565
     26 C           1.5607   -0.8476   20.2645 C.3     1  UNL1        0.0076
     27 C           2.9615   -0.5822   19.7984 C.3     1  UNL1        0.0539
     28 C           4.3623   -0.3168   19.3323 C.3     1  UNL1        0.0076
     29 C           2.4252    0.0862   18.5673 C.3     1  UNL1        0.0076
@<TRIPOS>BOND
     1    26    27    1
     2    27    28    1
     3    27    29    1
     4    27    21    1
     5    21    22   ar
     6    22    23   ar
     7    23    17    1
     8    17    18   am
     9    18    19    2
    10     1    18    1
    11     1     2    1
    12     2     3    1
    13     3     4    1
    14     4     5    1
    15     5     6    1
    16     6     7   am
    17     7     8    2
    18     7     9   am
    19     9    10    1
    20    10    11    1
    21    11    12    1
    22    12    13    2
    23    12    14    2
    24    12    15    1
    25    15    16    1
    26    23    24   ar
    27    24    25   ar
    28    25    21   ar
    29     6     1    1
    30    16     9    1
    31    17    20    1
@<TRIPOS>MOLECULE
*****
 29 31 0 0 0
SMALL
GASTEIGER

@<TRIPOS>ATOM
      1 C           6.9626   -2.8698   27.3193 C.3     1  UNL1        0.1533
      2 C           8.1038   -3.5557   28.0102 C.3     1  UNL1        0.0293
      3 C           8.2031   -3.5232   29.5065 C.3     1  UNL1        0.0040
      4 C           7.1613   -2.8050   30.3120 C.3     1  UNL1        0.0216
      5 C           6.0201   -2.1192   29.6211 C.3     1  UNL1        0.0954
      6 N           5.9208   -2.1516   28.1247 N.am    1  UNL1       -0.2573
      7 C           4.7796   -1.4658   27.4338 C.2     1  UNL1        0.3076
      8 O           4.6803   -1.4982   25.9374 O.2     1  UNL1       -0.2523
      9 N           3.7378   -0.7475   28.2392 N.am    1  UNL1       -0.2604
     10 C           3.8371   -0.7151   29.7356 C.3     1  UNL1        0.1203
     11 C           2.7953    0.0031   30.5410 C.3     1  UNL1        0.1723
     12 S           1.6541    0.6889   29.8501 S.O2    1  UNL1       -0.0066
     13 O           0.3956    1.4816   29.6553 O.2     1  UNL1       -0.1729
     14 O           1.3164    0.9966   31.2788 O.2     1  UNL1       -0.1729
     15 C           1.5548    0.6565   28.3537 C.3     1  UNL1        0.1723
     16 C           2.5966   -0.0617   27.5483 C.3     1  UNL1        0.1203
     17 N           6.0266   -3.9492   25.1493 N.am    1  UNL1       -0.2654
     18 C           6.8633   -2.9022   25.8229 C.2     1  UNL1        0.2454
     19 O           7.6007   -1.8877   25.0002 O.2     1  UNL1       -0.2730
     20 H           5.5426   -4.6151   25.6893 H       1  UNL1        0.1564
     21 C           5.1308   -3.6475   21.3847 C.ar    1  UNL1        0.1549
     22 C           4.8276   -3.3795   22.8292 C.ar    1  UNL1        0.0733
     23 C           5.9272   -3.9816   23.6529 C.ar    1  UNL1        0.1760
     24 N           6.9098   -4.6216   22.7177 N.ar    1  UNL1       -0.0621
     25 O           6.4177   -4.4152   21.3158 O.2     1  UNL1       -0.3565
     26 C           3.7934   -2.0466   20.9998 C.3     1  UNL1        0.0076
     27 C           4.2940   -3.2225   20.2146 C.3     1  UNL1        0.0539
     28 C           4.7946   -4.3985   19.4294 C.3     1  UNL1        0.0076
     29 C           3.4572   -2.7975   19.0445 C.3     1  UNL1        0.0076
@<TRIPOS>BOND
     1    26    27    1
     2    27    28    1
     3    27    29    1
     4    27    21    1
     5    21    22   ar
     6    22    23   ar
     7    23    17    1
     8    17    18   am
     9    18    19    2
    10     1    18    1
    11     1     2    1
    12     2     3    1
    13     3     4    1
    14     4     5    1
    15     5     6    1
    16     6     7   am
    17     7     8    2
    18     7     9   am
    19     9    10    1
    20    10    11    1
    21    11    12    1
    22    12    13    2
    23    12    14    2
    24    12    15    1
    25    15    16    1
    26    23    24   ar
    27    24    25   ar
    28    25    21   ar
    29     6     1    1
    30    16     9    1
    31    17    20    1
@<TRIPOS>MOLECULE
*****
 29 31 0 0 0
SMALL
GASTEIGER

@<TRIPOS>ATOM
      1 C          -0.7372    2.8176   23.1150 C.3     1  UNL1        0.1533
      2 C          -1.9685    3.6243   22.8266 C.3     1  UNL1        0.0293
      3 C          -2.8968    4.0010   23.9430 C.3     1  UNL1        0.0040
      4 C          -2.5938    3.5710   25.3478 C.3     1  UNL1        0.0216
      5 C          -1.3625    2.7644   25.6361 C.3     1  UNL1        0.0954
      6 N          -0.4342    2.3876   24.5198 N.am    1  UNL1       -0.2573
      7 C           0.7971    1.5809   24.8081 C.2     1  UNL1        0.3076
      8 O           1.7254    1.2041   23.6917 O.2     1  UNL1       -0.2523
      9 N           1.1001    1.1509   26.2128 N.am    1  UNL1       -0.2604
     10 C           0.1718    1.5277   27.3293 C.3     1  UNL1        0.1203
     11 C           0.4748    1.0977   28.7340 C.3     1  UNL1        0.1723
     12 S           1.7061    0.2910   29.0223 S.O2    1  UNL1       -0.0066
     13 O           2.7397   -0.4776   29.7912 O.2     1  UNL1       -0.1729
     14 O           1.1368    0.4008   30.4058 O.2     1  UNL1       -0.1729
     15 C           2.6344   -0.0857   27.9059 C.3     1  UNL1        0.1723
     16 C           2.3314    0.3442   26.5012 C.3     1  UNL1        0.1203
     17 N           0.0436    1.1132   21.3163 N.am    1  UNL1       -0.2654
     18 C           0.1911    2.4408   21.9986 C.2     1  UNL1        0.2454
     19 O           1.2669    3.3917   21.5645 O.2     1  UNL1       -0.2730
     20 H          -0.6625    0.4891   21.6012 H       1  UNL1        0.1564
     21 C           2.6754   -0.4027   18.8994 C.ar    1  UNL1        0.1549
     22 C           1.9624   -0.3899   20.2191 C.ar    1  UNL1        0.0733
     23 C           0.9719    0.7364   20.1999 C.ar    1  UNL1        0.1760
     24 N           1.0727    1.4197   18.8684 N.ar    1  UNL1       -0.0621
     25 O           2.1255    0.7158   18.0646 O.2     1  UNL1       -0.3565
     26 C           3.7012   -2.0010   19.8444 C.3     1  UNL1        0.0076
     27 C           3.7497   -1.3649   18.4869 C.3     1  UNL1        0.0539
     28 C           3.7982   -0.7287   17.1293 C.3     1  UNL1        0.0076
     29 C           4.8239   -2.3271   18.0743 C.3     1  UNL1        0.0076
@<TRIPOS>BOND
     1    26    27    1
     2    27    28    1
     3    27    29    1
     4    27    21    1
     5    21    22   ar
     6    22    23   ar
     7    23    17    1
     8    17    18   am
     9    18    19    2
    10     1    18    1
    11     1     2    1
    12     2     3    1
    13     3     4    1
    14     4     5    1
    15     5     6    1
    16     6     7   am
    17     7     8    2
    18     7     9   am
    19     9    10    1
    20    10    11    1
    21    11    12    1
    22    12    13    2
    23    12    14    2
    24    12    15    1
    25    15    16    1
    26    23    24   ar
    27    24    25   ar
    28    25    21   ar
    29     6     1    1
    30    16     9    1
    31    17    20    1
@<TRIPOS>MOLECULE
*****
 29 31 0 0 0
SMALL
GASTEIGER

@<TRIPOS>ATOM
      1 C           2.8223   -0.3520   19.4679 C.3     1  UNL1        0.1533
      2 C           2.8220   -0.0053   18.0085 C.3     1  UNL1        0.0293
      3 C           3.8869   -0.5556   17.1068 C.3     1  UNL1        0.0040
      4 C           4.9520   -1.4526   17.6644 C.3     1  UNL1        0.0216
      5 C           4.9523   -1.7992   19.1238 C.3     1  UNL1        0.0954
      6 N           3.8874   -1.2489   20.0255 N.am    1  UNL1       -0.2573
      7 C           3.8876   -1.5956   21.4849 C.2     1  UNL1        0.3076
      8 O           2.8227   -1.0453   22.3867 O.2     1  UNL1       -0.2523
      9 N           4.9527   -2.4926   22.0426 N.am    1  UNL1       -0.2604
     10 C           6.0177   -3.0429   21.1407 C.3     1  UNL1        0.1203
     11 C           7.0828   -3.9399   21.6984 C.3     1  UNL1        0.1723
     12 S           7.0830   -4.2865   23.1578 S.O2    1  UNL1       -0.0066
     13 O           7.5038   -4.8981   24.4613 O.2     1  UNL1       -0.1729
     14 O           8.2941   -5.0492   22.7087 O.2     1  UNL1       -0.1729
     15 C           6.0181   -3.7362   24.0595 C.3     1  UNL1        0.1723
     16 C           4.9530   -2.8393   23.5019 C.3     1  UNL1        0.1203
     17 N           2.0265    1.4289   21.1841 N.am    1  UNL1       -0.2654
     18 C           1.7574    0.1983   20.3697 C.2     1  UNL1        0.2454
     19 O           0.4234   -0.4820   20.4570 O.2     1  UNL1       -0.2730
     20 H           2.9020    1.8754   21.1267 H       1  UNL1        0.1564
     21 C          -0.3794    2.4534   24.0525 C.ar    1  UNL1        0.1549
     22 C           0.8175    1.6998   23.5526 C.ar    1  UNL1        0.0733
     23 C           0.9616    1.9792   22.0859 C.ar    1  UNL1        0.1760
     24 N          -0.1461    2.9054   21.6793 N.ar    1  UNL1       -0.0621
     25 O          -0.9748    3.1985   22.8947 O.2     1  UNL1       -0.3565
     26 C          -1.8270    3.5806   25.1172 C.3     1  UNL1        0.0076
     27 C          -0.8908    2.4607   25.4626 C.3     1  UNL1        0.0539
     28 C           0.0453    1.3407   25.8079 C.3     1  UNL1        0.0076
     29 C          -1.4023    2.4680   26.8727 C.3     1  UNL1        0.0076
@<TRIPOS>BOND
     1    26    27    1
     2    27    28    1
     3    27    29    1
     4    27    21    1
     5    21    22   ar
     6    22    23   ar
     7    23    17    1
     8    17    18   am
     9    18    19    2
    10     1    18    1
    11     1     2    1
    12     2     3    1
    13     3     4    1
    14     4     5    1
    15     5     6    1
    16     6     7   am
    17     7     8    2
    18     7     9   am
    19     9    10    1
    20    10    11    1
    21    11    12    1
    22    12    13    2
    23    12    14    2
    24    12    15    1
    25    15    16    1
    26    23    24   ar
    27    24    25   ar
    28    25    21   ar
    29     6     1    1
    30    16     9    1
    31    17    20    1
