@<TRIPOS>MOLECULE
*****
 31 34 0 0 0
SMALL
GASTEIGER

@<TRIPOS>ATOM
      1 C          -9.0287  -18.7589   20.6687 C.ar    1  UNL1        0.0678
      2 C          -9.7059  -19.3582   19.4720 C.ar    1  UNL1        0.0055
      3 C          -8.9887  -20.3764   18.6360 C.ar    1  UNL1        0.0016
      4 C          -7.5942  -20.7952   18.9967 C.ar    1  UNL1        0.0181
      5 C          -6.9170  -20.1959   20.1935 C.ar    1  UNL1        0.0922
      6 C          -7.6342  -19.1777   21.0295 C.ar    1  UNL1        0.1576
      7 F          -6.9570  -18.5784   22.2262 F       1  UNL1       -0.2027
      8 C          -9.7459  -17.7407   21.5047 C.2     1  UNL1        0.2014
      9 O         -10.1506  -16.4273   20.9037 O.2     1  UNL1       -0.2864
     10 C          -7.5852  -16.2467   25.6054 C.2     1  UNL1        0.0974
     11 C          -8.2377  -16.7943   26.8401 C.2     1  UNL1        0.2421
     12 N          -9.4273  -17.7002   26.7208 N.2     1  UNL1       -0.0304
     13 C          -9.9644  -18.0585   25.3669 C.2     1  UNL1        0.3721
     14 N         -11.1141  -18.9219   24.9396 N.2     1  UNL1       -0.0307
     15 C         -11.1722  -18.9079   23.4407 C.2     1  UNL1        0.2390
     16 C         -10.0584  -18.0359   22.9418 C.2     1  UNL1        0.0895
     17 C          -9.3119  -17.5109   24.1323 C.2     1  UNL1        0.0782
     18 C          -8.1223  -16.6050   24.2515 C.3     1  UNL1        0.0751
     19 N          -5.2060  -14.4349   25.8439 N.1     1  UNL1       -0.1910
     20 C          -6.3956  -15.3408   25.7246 C.1     1  UNL1        0.1003
     21 N          -5.5226  -20.6147   20.5542 N.pl3   1  UNL1       -0.2128
     22 H          -5.3213  -21.5639   20.7206 H       1  UNL1        0.1738
     23 S          -4.4349  -19.5874   20.6614 S.O2    1  UNL1        0.0736
     24 O          -4.6296  -19.2305   19.2176 O.2     1  UNL1       -0.1499
     25 O          -4.2402  -19.9442   22.1053 O.2     1  UNL1       -0.1499
     26 C          -3.3472  -18.5600   20.7687 C.ar    1  UNL1        0.1252
     27 C          -2.3666  -18.3861   19.6470 C.ar    1  UNL1        0.0202
     28 C          -1.2789  -17.3588   19.7542 C.ar    1  UNL1        0.0014
     29 C          -1.1718  -16.5053   20.9831 C.ar    1  UNL1        0.0001
     30 C          -2.1525  -16.6792   22.1048 C.ar    1  UNL1        0.0014
     31 C          -3.2401  -17.7065   21.9976 C.ar    1  UNL1        0.0202
@<TRIPOS>BOND
     1    19    20    3
     2    20    10    1
     3    10    11    2
     4    11    12    1
     5    12    13    2
     6    13    14    1
     7    14    15    2
     8    15    16    1
     9    16     8    1
    10     8     9    2
    11     8     1    1
    12     1     2   ar
    13     2     3   ar
    14     3     4   ar
    15     4     5   ar
    16     5    21    1
    17    21    23    1
    18    23    24    2
    19    23    25    2
    20    23    26    1
    21    26    27   ar
    22    27    28   ar
    23    28    29   ar
    24    29    30   ar
    25    30    31   ar
    26     5     6   ar
    27     6     7    1
    28    16    17    2
    29    17    18    1
    30    18    10    1
    31    17    13    1
    32     6     1   ar
    33    31    26   ar
    34    21    22    1
@<TRIPOS>MOLECULE
*****
 31 34 0 0 0
SMALL
GASTEIGER

@<TRIPOS>ATOM
      1 C          -5.5723  -15.7940   24.4437 C.ar    1  UNL1        0.0678
      2 C          -5.1145  -15.7474   25.8714 C.ar    1  UNL1        0.0055
      3 C          -6.1202  -15.7918   26.9834 C.ar    1  UNL1        0.0016
      4 C          -7.5838  -15.8827   26.6677 C.ar    1  UNL1        0.0181
      5 C          -8.0416  -15.9293   25.2400 C.ar    1  UNL1        0.0922
      6 C          -7.0359  -15.8849   24.1280 C.ar    1  UNL1        0.1576
      7 F          -7.4938  -15.9315   22.7004 F       1  UNL1       -0.2027
      8 C          -4.5666  -15.7496   23.3317 C.2     1  UNL1        0.2014
      9 O          -4.3122  -14.4644   22.6014 O.2     1  UNL1       -0.2864
     10 C          -5.8646  -19.5288   20.5479 C.2     1  UNL1        0.0974
     11 C          -4.7860  -20.5649   20.4333 C.2     1  UNL1        0.2421
     12 N          -3.4778  -20.3671   21.1398 N.2     1  UNL1       -0.0304
     13 C          -3.2480  -19.1331   21.9611 C.2     1  UNL1        0.3721
     14 N          -2.0702  -18.6671   22.7645 N.2     1  UNL1       -0.0307
     15 C          -2.4208  -17.3429   23.3758 C.2     1  UNL1        0.2390
     16 C          -3.8152  -16.9905   22.9501 C.2     1  UNL1        0.0895
     17 C          -4.3265  -18.0970   22.0757 C.2     1  UNL1        0.0782
     18 C          -5.6348  -18.2948   21.3692 C.3     1  UNL1        0.0751
     19 N          -8.4811  -19.9244   19.1348 N.1     1  UNL1       -0.1910
     20 C          -7.1728  -19.7266   19.8414 C.1     1  UNL1        0.1003
     21 N          -9.5052  -16.0202   24.9243 N.pl3   1  UNL1       -0.2128
     22 H         -10.1527  -15.4788   25.4312 H       1  UNL1        0.1738
     23 S          -9.9824  -16.9361   23.8365 S.O2    1  UNL1        0.0736
     24 O         -10.5258  -15.7584   23.0832 O.2     1  UNL1       -0.1499
     25 O          -9.4390  -18.1139   24.5898 O.2     1  UNL1       -0.1499
     26 C         -10.4595  -17.8521   22.7486 C.ar    1  UNL1        0.1252
     27 C         -10.9399  -17.2834   21.4464 C.ar    1  UNL1        0.0202
     28 C         -11.4170  -18.1993   20.3585 C.ar    1  UNL1        0.0014
     29 C         -11.4138  -19.6839   20.5729 C.ar    1  UNL1        0.0001
     30 C         -10.9335  -20.2526   21.8751 C.ar    1  UNL1        0.0014
     31 C         -10.4563  -19.3367   22.9630 C.ar    1  UNL1        0.0202
@<TRIPOS>BOND
     1    19    20    3
     2    20    10    1
     3    10    11    2
     4    11    12    1
     5    12    13    2
     6    13    14    1
     7    14    15    2
     8    15    16    1
     9    16     8    1
    10     8     9    2
    11     8     1    1
    12     1     2   ar
    13     2     3   ar
    14     3     4   ar
    15     4     5   ar
    16     5    21    1
    17    21    23    1
    18    23    24    2
    19    23    25    2
    20    23    26    1
    21    26    27   ar
    22    27    28   ar
    23    28    29   ar
    24    29    30   ar
    25    30    31   ar
    26     5     6   ar
    27     6     7    1
    28    16    17    2
    29    17    18    1
    30    18    10    1
    31    17    13    1
    32     6     1   ar
    33    31    26   ar
    34    21    22    1
@<TRIPOS>MOLECULE
*****
 31 34 0 0 0
SMALL
GASTEIGER

@<TRIPOS>ATOM
      1 C          -8.5964  -17.0435   25.5271 C.ar    1  UNL1        0.0678
      2 C          -8.8415  -16.6009   26.9392 C.ar    1  UNL1        0.0055
      3 C          -7.9061  -15.6278   27.5934 C.ar    1  UNL1        0.0016
      4 C          -6.7254  -15.0972   26.8354 C.ar    1  UNL1        0.0181
      5 C          -6.4802  -15.5398   25.4233 C.ar    1  UNL1        0.0922
      6 C          -7.4157  -16.5129   24.7691 C.ar    1  UNL1        0.1576
      7 F          -7.1704  -16.9554   23.3570 F       1  UNL1       -0.2027
      8 C          -9.5318  -18.0166   24.8729 C.2     1  UNL1        0.2014
      9 O          -9.9735  -19.2449   25.6119 O.2     1  UNL1       -0.2864
     10 C          -7.8910  -19.6052   20.5717 C.2     1  UNL1        0.0974
     11 C          -8.6989  -19.0945   19.4157 C.2     1  UNL1        0.2421
     12 N          -9.8725  -18.1930   19.6610 N.2     1  UNL1       -0.0304
     13 C         -10.2381  -17.8023   21.0623 C.2     1  UNL1        0.3721
     14 N         -11.3329  -16.9350   21.6092 N.2     1  UNL1       -0.0307
     15 C         -11.2016  -16.9097   23.1033 C.2     1  UNL1        0.2390
     16 C         -10.0256  -17.7614   23.4797 C.2     1  UNL1        0.0895
     17 C          -9.4302  -18.3131   22.2183 C.2     1  UNL1        0.0782
     18 C          -8.2566  -19.2145   21.9730 C.3     1  UNL1        0.0751
     19 N          -5.5439  -21.4081   20.0811 N.1     1  UNL1       -0.1910
     20 C          -6.7174  -20.5067   20.3264 C.1     1  UNL1        0.1003
     21 N          -5.2995  -15.0092   24.6654 N.pl3   1  UNL1       -0.2128
     22 H          -5.0522  -14.0593   24.7415 H       1  UNL1        0.1738
     23 S          -4.4957  -15.9258   23.7915 S.O2    1  UNL1        0.0736
     24 O          -4.5524  -14.9179   22.6821 O.2     1  UNL1       -0.1499
     25 O          -4.4391  -16.9338   24.9008 O.2     1  UNL1       -0.1499
     26 C          -3.6919  -16.8425   22.9176 C.ar    1  UNL1        0.1252
     27 C          -4.0260  -18.3035   22.8555 C.ar    1  UNL1        0.0202
     28 C          -3.2223  -19.2202   21.9817 C.ar    1  UNL1        0.0014
     29 C          -2.0844  -18.6759   21.1699 C.ar    1  UNL1        0.0001
     30 C          -1.7503  -17.2149   21.2319 C.ar    1  UNL1        0.0014
     31 C          -2.5540  -16.2982   22.1058 C.ar    1  UNL1        0.0202
@<TRIPOS>BOND
     1    19    20    3
     2    20    10    1
     3    10    11    2
     4    11    12    1
     5    12    13    2
     6    13    14    1
     7    14    15    2
     8    15    16    1
     9    16     8    1
    10     8     9    2
    11     8     1    1
    12     1     2   ar
    13     2     3   ar
    14     3     4   ar
    15     4     5   ar
    16     5    21    1
    17    21    23    1
    18    23    24    2
    19    23    25    2
    20    23    26    1
    21    26    27   ar
    22    27    28   ar
    23    28    29   ar
    24    29    30   ar
    25    30    31   ar
    26     5     6   ar
    27     6     7    1
    28    16    17    2
    29    17    18    1
    30    18    10    1
    31    17    13    1
    32     6     1   ar
    33    31    26   ar
    34    21    22    1
@<TRIPOS>MOLECULE
*****
 31 34 0 0 0
SMALL
GASTEIGER

@<TRIPOS>ATOM
      1 C          -3.8519  -17.0099   22.7330 C.ar    1  UNL1        0.0678
      2 C          -2.3723  -17.2495   22.7888 C.ar    1  UNL1        0.0055
      3 C          -1.7998  -18.5321   22.2624 C.ar    1  UNL1        0.0016
      4 C          -2.7070  -19.5752   21.6801 C.ar    1  UNL1        0.0181
      5 C          -4.1868  -19.3355   21.6243 C.ar    1  UNL1        0.0922
      6 C          -4.7592  -18.0528   22.1507 C.ar    1  UNL1        0.1576
      7 F          -6.2389  -17.8133   22.0949 F       1  UNL1       -0.2027
      8 C          -4.4244  -15.7272   23.2595 C.2     1  UNL1        0.2014
      9 O          -3.9216  -14.4127   22.7405 O.2     1  UNL1       -0.2864
     10 C          -9.2717  -15.9306   22.8369 C.2     1  UNL1        0.0974
     11 C          -9.9717  -15.9439   24.1635 C.2     1  UNL1        0.2421
     12 N          -9.1740  -15.8965   25.4329 N.2     1  UNL1       -0.0304
     13 C          -7.6763  -15.8359   25.3758 C.2     1  UNL1        0.3721
     14 N          -6.6323  -15.7806   26.4513 N.2     1  UNL1       -0.0307
     15 C          -5.2870  -15.7332   25.7895 C.2     1  UNL1        0.2390
     16 C          -5.4996  -15.7591   24.3049 C.2     1  UNL1        0.0895
     17 C          -6.9764  -15.8226   24.0492 C.2     1  UNL1        0.0782
     18 C          -7.7741  -15.8700   22.7798 C.3     1  UNL1        0.0751
     19 N         -10.8671  -16.0254   20.2980 N.1     1  UNL1       -0.1910
     20 C         -10.0694  -15.9780   21.5675 C.1     1  UNL1        0.1003
     21 N          -5.0940  -20.3785   21.0420 N.pl3   1  UNL1       -0.2128
     22 H          -4.7173  -21.2161   20.6873 H       1  UNL1        0.1738
     23 S          -6.5751  -20.1453   20.9999 S.O2    1  UNL1        0.0736
     24 O          -6.7146  -20.7881   22.3480 O.2     1  UNL1       -0.1499
     25 O          -6.4357  -19.5025   19.6519 O.2     1  UNL1       -0.1499
     26 C          -8.0564  -19.9122   20.9579 C.ar    1  UNL1        0.1252
     27 C          -8.8448  -19.8663   22.2331 C.ar    1  UNL1        0.0202
     28 C         -10.3260  -19.6331   22.1911 C.ar    1  UNL1        0.0014
     29 C         -11.0187  -19.4458   20.8738 C.ar    1  UNL1        0.0001
     30 C         -10.2302  -19.4917   19.5986 C.ar    1  UNL1        0.0014
     31 C          -8.7491  -19.7249   19.6406 C.ar    1  UNL1        0.0202
@<TRIPOS>BOND
     1    19    20    3
     2    20    10    1
     3    10    11    2
     4    11    12    1
     5    12    13    2
     6    13    14    1
     7    14    15    2
     8    15    16    1
     9    16     8    1
    10     8     9    2
    11     8     1    1
    12     1     2   ar
    13     2     3   ar
    14     3     4   ar
    15     4     5   ar
    16     5    21    1
    17    21    23    1
    18    23    24    2
    19    23    25    2
    20    23    26    1
    21    26    27   ar
    22    27    28   ar
    23    28    29   ar
    24    29    30   ar
    25    30    31   ar
    26     5     6   ar
    27     6     7    1
    28    16    17    2
    29    17    18    1
    30    18    10    1
    31    17    13    1
    32     6     1   ar
    33    31    26   ar
    34    21    22    1
@<TRIPOS>MOLECULE
*****
 31 34 0 0 0
SMALL
GASTEIGER

@<TRIPOS>ATOM
      1 C         -15.7328   -1.4495   19.1243 C.ar    1  UNL1        0.0678
      2 C         -15.8154   -1.1651   17.6538 C.ar    1  UNL1        0.0055
      3 C         -14.6373   -1.4449   16.7685 C.ar    1  UNL1        0.0016
      4 C         -13.3766   -2.0089   17.3536 C.ar    1  UNL1        0.0181
      5 C         -13.2940   -2.2933   18.8242 C.ar    1  UNL1        0.0922
      6 C         -14.4721   -2.0136   19.7095 C.ar    1  UNL1        0.1576
      7 F         -14.3895   -2.2980   21.1800 F       1  UNL1       -0.2027
      8 C         -16.9109   -1.1697   20.0096 C.2     1  UNL1        0.2014
      9 O         -16.9312    0.0631   20.8639 O.2     1  UNL1       -0.2864
     10 C         -17.0773   -5.9991   19.4043 C.2     1  UNL1        0.0974
     11 C         -18.4668   -6.5525   19.5183 C.2     1  UNL1        0.2421
     12 N         -19.6201   -5.6334   19.7921 N.2     1  UNL1       -0.0304
     13 C         -19.3840   -4.1607   19.9519 C.2     1  UNL1        0.3721
     14 N         -20.3170   -3.0184   20.2252 N.2     1  UNL1       -0.0307
     15 C         -19.5041   -1.7590   20.2801 C.2     1  UNL1        0.2390
     16 C         -18.0688   -2.1228   20.0407 C.2     1  UNL1        0.0895
     17 C         -17.9946   -3.6073   19.8379 C.2     1  UNL1        0.0782
     18 C         -16.8412   -4.5264   19.5641 C.3     1  UNL1        0.0751
     19 N         -14.7707   -7.8374   18.8568 N.1     1  UNL1       -0.1910
     20 C         -15.9240   -6.9182   19.1306 C.1     1  UNL1        0.1003
     21 N         -12.0333   -2.8574   19.4093 N.pl3   1  UNL1       -0.2128
     22 H         -11.5264   -2.3410   20.0769 H       1  UNL1        0.1738
     23 S         -11.5448   -4.2082   18.9772 S.O2    1  UNL1        0.0736
     24 O         -12.7566   -4.8432   19.5921 O.2     1  UNL1       -0.1499
     25 O         -10.3329   -3.5732   18.3622 O.2     1  UNL1       -0.1499
     26 C         -11.0562   -5.5590   18.5451 C.ar    1  UNL1        0.1252
     27 C          -9.8142   -6.1378   19.1553 C.ar    1  UNL1        0.0202
     28 C          -9.3256   -7.4886   18.7233 C.ar    1  UNL1        0.0014
     29 C         -10.0790   -8.2605   17.6809 C.ar    1  UNL1        0.0001
     30 C         -11.3210   -7.6818   17.0707 C.ar    1  UNL1        0.0014
     31 C         -11.8096   -6.3310   17.5027 C.ar    1  UNL1        0.0202
@<TRIPOS>BOND
     1    19    20    3
     2    20    10    1
     3    10    11    2
     4    11    12    1
     5    12    13    2
     6    13    14    1
     7    14    15    2
     8    15    16    1
     9    16     8    1
    10     8     9    2
    11     8     1    1
    12     1     2   ar
    13     2     3   ar
    14     3     4   ar
    15     4     5   ar
    16     5    21    1
    17    21    23    1
    18    23    24    2
    19    23    25    2
    20    23    26    1
    21    26    27   ar
    22    27    28   ar
    23    28    29   ar
    24    29    30   ar
    25    30    31   ar
    26     5     6   ar
    27     6     7    1
    28    16    17    2
    29    17    18    1
    30    18    10    1
    31    17    13    1
    32     6     1   ar
    33    31    26   ar
    34    21    22    1
@<TRIPOS>MOLECULE
*****
 31 34 0 0 0
SMALL
GASTEIGER

@<TRIPOS>ATOM
      1 C           4.6905   -3.1839   22.4790 C.ar    1  UNL1        0.0678
      2 C           3.8345   -2.0853   23.0362 C.ar    1  UNL1        0.0055
      3 C           4.1721   -1.4707   24.3621 C.ar    1  UNL1        0.0016
      4 C           5.3657   -1.9546   25.1310 C.ar    1  UNL1        0.0181
      5 C           6.2217   -3.0532   24.5738 C.ar    1  UNL1        0.0922
      6 C           5.8841   -3.6679   23.2478 C.ar    1  UNL1        0.1576
      7 F           6.7401   -4.7664   22.6907 F       1  UNL1       -0.2027
      8 C           4.3529   -3.7985   21.1530 C.2     1  UNL1        0.2014
      9 O           3.8414   -5.2071   21.0877 O.2     1  UNL1       -0.2864
     10 C           1.8208   -0.0322   19.3867 C.2     1  UNL1        0.0974
     11 C           2.3512    0.4611   18.0733 C.2     1  UNL1        0.2421
     12 N           3.5427   -0.2024   17.4487 N.2     1  UNL1       -0.0304
     13 C           4.2038   -1.3592   18.1376 C.2     1  UNL1        0.3721
     14 N           5.3849   -2.2063   17.7670 N.2     1  UNL1       -0.0307
     15 C           5.5846   -3.2232   18.8515 C.2     1  UNL1        0.2390
     16 C           4.5268   -3.0046   19.8923 C.2     1  UNL1        0.0895
     17 C           3.6734   -1.8525   19.4510 C.2     1  UNL1        0.0782
     18 C           2.4819   -1.1890   20.0756 C.3     1  UNL1        0.0751
     19 N          -0.5622    1.2948   20.6359 N.1     1  UNL1       -0.1910
     20 C           0.6293    0.6313   20.0113 C.1     1  UNL1        0.1003
     21 N           7.4153   -3.5371   25.3427 N.pl3   1  UNL1       -0.2128
     22 H           8.2823   -3.6452   24.8890 H       1  UNL1        0.1738
     23 S           7.2879   -3.8564   26.8028 S.O2    1  UNL1        0.0736
     24 O           8.0366   -2.6018   27.1425 O.2     1  UNL1       -0.1499
     25 O           6.5391   -5.1110   26.4631 O.2     1  UNL1       -0.1499
     26 C           7.1604   -4.1757   28.2629 C.ar    1  UNL1        0.1252
     27 C           7.4103   -5.5723   28.7497 C.ar    1  UNL1        0.0202
     28 C           7.2828   -5.8916   30.2098 C.ar    1  UNL1        0.0014
     29 C           6.9055   -4.8144   31.1830 C.ar    1  UNL1        0.0001
     30 C           6.6556   -3.4178   30.6962 C.ar    1  UNL1        0.0014
     31 C           6.7831   -3.0984   29.2361 C.ar    1  UNL1        0.0202
@<TRIPOS>BOND
     1    19    20    3
     2    20    10    1
     3    10    11    2
     4    11    12    1
     5    12    13    2
     6    13    14    1
     7    14    15    2
     8    15    16    1
     9    16     8    1
    10     8     9    2
    11     8     1    1
    12     1     2   ar
    13     2     3   ar
    14     3     4   ar
    15     4     5   ar
    16     5    21    1
    17    21    23    1
    18    23    24    2
    19    23    25    2
    20    23    26    1
    21    26    27   ar
    22    27    28   ar
    23    28    29   ar
    24    29    30   ar
    25    30    31   ar
    26     5     6   ar
    27     6     7    1
    28    16    17    2
    29    17    18    1
    30    18    10    1
    31    17    13    1
    32     6     1   ar
    33    31    26   ar
    34    21    22    1
@<TRIPOS>MOLECULE
*****
 31 34 0 0 0
SMALL
GASTEIGER

@<TRIPOS>ATOM
      1 C           5.1114   -3.5412   21.8977 C.ar    1  UNL1        0.0678
      2 C           4.2960   -2.7312   22.8615 C.ar    1  UNL1        0.0055
      3 C           4.8552   -2.3825   24.2089 C.ar    1  UNL1        0.0016
      4 C           6.2299   -2.8438   24.5927 C.ar    1  UNL1        0.0181
      5 C           7.0454   -3.6539   23.6289 C.ar    1  UNL1        0.0922
      6 C           6.4862   -4.0026   22.2814 C.ar    1  UNL1        0.1576
      7 F           7.3017   -4.8126   21.3177 F       1  UNL1       -0.2027
      8 C           4.5522   -3.8898   20.5502 C.2     1  UNL1        0.2014
      9 O           3.8579   -5.2033   20.3433 O.2     1  UNL1       -0.2864
     10 C           1.9059    0.0199   19.3558 C.2     1  UNL1        0.0974
     11 C           2.4034    0.7033   18.1167 C.2     1  UNL1        0.2421
     12 N           3.5996    0.1626   17.3909 N.2     1  UNL1       -0.0304
     13 C           4.2982   -1.0615   17.9042 C.2     1  UNL1        0.3721
     14 N           5.4924   -1.8194   17.4047 N.2     1  UNL1       -0.0307
     15 C           5.7329   -2.9711   18.3351 C.2     1  UNL1        0.2390
     16 C           4.6874   -2.9251   19.4096 C.2     1  UNL1        0.0895
     17 C           3.8007   -1.7448   19.1433 C.2     1  UNL1        0.0782
     18 C           2.6045   -1.2041   19.8691 C.3     1  UNL1        0.0751
     19 N          -0.4865    1.1014   20.8073 N.1     1  UNL1       -0.1910
     20 C           0.7097    0.5606   20.0816 C.1     1  UNL1        0.1003
     21 N           8.4202   -4.1153   24.0126 N.pl3   1  UNL1       -0.2128
     22 H           9.2101   -3.7325   23.5669 H       1  UNL1        0.1738
     23 S           8.5913   -5.1598   25.0754 S.O2    1  UNL1        0.0736
     24 O           9.2014   -4.1348   25.9847 O.2     1  UNL1       -0.1499
     25 O           7.9811   -6.1850   24.1661 O.2     1  UNL1       -0.1499
     26 C           8.7623   -6.2045   26.1383 C.ar    1  UNL1        0.1252
     27 C           9.3649   -5.8363   27.4616 C.ar    1  UNL1        0.0202
     28 C           9.5360   -6.8809   28.5244 C.ar    1  UNL1        0.0014
     29 C           9.1045   -8.2937   28.2639 C.ar    1  UNL1        0.0001
     30 C           8.5020   -8.6619   26.9405 C.ar    1  UNL1        0.0014
     31 C           8.3309   -7.6173   25.8777 C.ar    1  UNL1        0.0202
@<TRIPOS>BOND
     1    19    20    3
     2    20    10    1
     3    10    11    2
     4    11    12    1
     5    12    13    2
     6    13    14    1
     7    14    15    2
     8    15    16    1
     9    16     8    1
    10     8     9    2
    11     8     1    1
    12     1     2   ar
    13     2     3   ar
    14     3     4   ar
    15     4     5   ar
    16     5    21    1
    17    21    23    1
    18    23    24    2
    19    23    25    2
    20    23    26    1
    21    26    27   ar
    22    27    28   ar
    23    28    29   ar
    24    29    30   ar
    25    30    31   ar
    26     5     6   ar
    27     6     7    1
    28    16    17    2
    29    17    18    1
    30    18    10    1
    31    17    13    1
    32     6     1   ar
    33    31    26   ar
    34    21    22    1
@<TRIPOS>MOLECULE
*****
 31 34 0 0 0
SMALL
GASTEIGER

@<TRIPOS>ATOM
      1 C           6.4299   -4.0049   21.2500 C.ar    1  UNL1        0.0678
      2 C           7.9053   -4.2143   21.0790 C.ar    1  UNL1        0.0055
      3 C           8.8014   -4.2555   22.2812 C.ar    1  UNL1        0.0016
      4 C           8.2221   -4.0873   23.6545 C.ar    1  UNL1        0.0181
      5 C           6.7466   -3.8779   23.8256 C.ar    1  UNL1        0.0922
      6 C           5.8505   -3.8366   22.6234 C.ar    1  UNL1        0.1576
      7 F           4.3751   -3.6272   22.7945 F       1  UNL1       -0.2027
      8 C           5.5338   -3.9636   20.0478 C.2     1  UNL1        0.2014
      9 O           4.5683   -5.0830   19.7933 O.2     1  UNL1       -0.2864
     10 C           2.4495   -0.2684   19.3071 C.2     1  UNL1        0.0974
     11 C           2.9221    0.6806   18.2459 C.2     1  UNL1        0.2421
     12 N           4.2234    0.4316   17.5426 N.2     1  UNL1       -0.0304
     13 C           5.0522   -0.7663   17.9005 C.2     1  UNL1        0.3721
     14 N           6.3678   -1.2676   17.3830 N.2     1  UNL1       -0.0307
     15 C           6.7084   -2.5263   18.1244 C.2     1  UNL1        0.2390
     16 C           5.6032   -2.8030   19.1001 C.2     1  UNL1        0.0895
     17 C           4.5796   -1.7152   18.9618 C.2     1  UNL1        0.0782
     18 C           3.2783   -1.4662   19.6650 C.3     1  UNL1        0.0751
     19 N          -0.1531    0.2296   20.7136 N.1     1  UNL1       -0.1910
     20 C           1.1482   -0.0194   20.0103 C.1     1  UNL1        0.1003
     21 N           6.1673   -3.7097   25.1989 N.pl3   1  UNL1       -0.2128
     22 H           5.2724   -3.3148   25.3107 H       1  UNL1        0.1738
     23 S           6.9514   -4.1431   26.4020 S.O2    1  UNL1        0.0736
     24 O           7.3113   -2.7142   26.6823 O.2     1  UNL1       -0.1499
     25 O           6.5915   -5.5721   26.1217 O.2     1  UNL1       -0.1499
     26 C           7.7356   -4.5766   27.6050 C.ar    1  UNL1        0.1252
     27 C           8.7506   -3.6535   28.2111 C.ar    1  UNL1        0.0202
     28 C           9.5348   -4.0869   29.4141 C.ar    1  UNL1        0.0014
     29 C           9.3039   -5.4435   30.0110 C.ar    1  UNL1        0.0001
     30 C           8.2889   -6.3667   29.4049 C.ar    1  UNL1        0.0014
     31 C           7.5047   -5.9333   28.2019 C.ar    1  UNL1        0.0202
@<TRIPOS>BOND
     1    19    20    3
     2    20    10    1
     3    10    11    2
     4    11    12    1
     5    12    13    2
     6    13    14    1
     7    14    15    2
     8    15    16    1
     9    16     8    1
    10     8     9    2
    11     8     1    1
    12     1     2   ar
    13     2     3   ar
    14     3     4   ar
    15     4     5   ar
    16     5    21    1
    17    21    23    1
    18    23    24    2
    19    23    25    2
    20    23    26    1
    21    26    27   ar
    22    27    28   ar
    23    28    29   ar
    24    29    30   ar
    25    30    31   ar
    26     5     6   ar
    27     6     7    1
    28    16    17    2
    29    17    18    1
    30    18    10    1
    31    17    13    1
    32     6     1   ar
    33    31    26   ar
    34    21    22    1
@<TRIPOS>MOLECULE
*****
 31 34 0 0 0
SMALL
GASTEIGER

@<TRIPOS>ATOM
      1 C         -15.1099   -0.5078   18.7488 C.ar    1  UNL1        0.0678
      2 C         -15.5438   -1.2451   19.9809 C.ar    1  UNL1        0.0055
      3 C         -14.7342   -2.4021   20.4868 C.ar    1  UNL1        0.0016
      4 C         -13.4907   -2.8219   19.7605 C.ar    1  UNL1        0.0181
      5 C         -13.0568   -2.0846   18.5284 C.ar    1  UNL1        0.0922
      6 C         -13.8663   -0.9275   18.0225 C.ar    1  UNL1        0.1576
      7 F         -13.4324   -0.1903   16.7904 F       1  UNL1       -0.2027
      8 C         -15.9194    0.6492   18.2429 C.2     1  UNL1        0.2014
      9 O         -16.9828    0.4254   17.2089 O.2     1  UNL1       -0.2864
     10 C         -17.4194    2.8182   22.3371 C.2     1  UNL1        0.0974
     11 C         -16.9215    4.2274   22.4654 C.2     1  UNL1        0.2421
     12 N         -16.0569    4.8181   21.3914 N.2     1  UNL1       -0.0304
     13 C         -15.6901    3.9997   20.1891 C.2     1  UNL1        0.3721
     14 N         -14.8601    4.3100   18.9788 N.2     1  UNL1       -0.0307
     15 C         -14.8450    3.0927   18.1025 C.2     1  UNL1        0.2390
     16 C         -15.6656    2.0300   18.7711 C.2     1  UNL1        0.0895
     17 C         -16.1879    2.5906   20.0607 C.2     1  UNL1        0.0782
     18 C         -17.0526    1.9998   21.1347 C.3     1  UNL1        0.0751
     19 N         -19.1486    1.6368   24.4851 N.1     1  UNL1       -0.1910
     20 C         -18.2840    2.2275   23.4111 C.1     1  UNL1        0.1003
     21 N         -11.8133   -2.5044   17.8021 N.pl3   1  UNL1       -0.2128
     22 H         -11.3009   -1.8445   17.2813 H       1  UNL1        0.1738
     23 S         -11.3504   -3.9296   17.8694 S.O2    1  UNL1        0.0736
     24 O         -10.2210   -3.5204   18.7676 O.2     1  UNL1       -0.1499
     25 O         -12.4799   -4.3388   16.9712 O.2     1  UNL1       -0.1499
     26 C         -10.8875   -5.3548   17.9367 C.ar    1  UNL1        0.1252
     27 C          -9.8440   -5.7581   18.9359 C.ar    1  UNL1        0.0202
     28 C          -9.3811   -7.1833   19.0032 C.ar    1  UNL1        0.0014
     29 C          -9.9618   -8.2052   18.0713 C.ar    1  UNL1        0.0001
     30 C         -11.0053   -7.8020   17.0721 C.ar    1  UNL1        0.0014
     31 C         -11.4682   -6.3768   17.0048 C.ar    1  UNL1        0.0202
@<TRIPOS>BOND
     1    19    20    3
     2    20    10    1
     3    10    11    2
     4    11    12    1
     5    12    13    2
     6    13    14    1
     7    14    15    2
     8    15    16    1
     9    16     8    1
    10     8     9    2
    11     8     1    1
    12     1     2   ar
    13     2     3   ar
    14     3     4   ar
    15     4     5   ar
    16     5    21    1
    17    21    23    1
    18    23    24    2
    19    23    25    2
    20    23    26    1
    21    26    27   ar
    22    27    28   ar
    23    28    29   ar
    24    29    30   ar
    25    30    31   ar
    26     5     6   ar
    27     6     7    1
    28    16    17    2
    29    17    18    1
    30    18    10    1
    31    17    13    1
    32     6     1   ar
    33    31    26   ar
    34    21    22    1
