@<TRIPOS>MOLECULE
*****
 32 34 0 0 0
SMALL
GASTEIGER

@<TRIPOS>ATOM
      1 C          -9.9539  -18.0940   23.8019 C.3     1  UNL1        0.1190
      2 C         -10.8207  -18.8169   24.7900 C.3     1  UNL1        0.0254
      3 C         -10.3660  -20.2452   24.8474 C.3     1  UNL1        0.0233
      4 C          -9.2183  -20.4050   23.8948 C.3     1  UNL1        0.0935
      5 N          -8.9636  -19.0754   23.2487 N.am    1  UNL1       -0.2774
      6 C          -7.9047  -18.7793   22.2286 C.2     1  UNL1        0.2271
      7 O          -7.7689  -17.3943   21.6687 O.2     1  UNL1       -0.2748
      8 C         -10.0591  -16.6440   23.4320 C.3     1  UNL1        0.2266
      9 O          -9.6397  -15.5879   24.4111 O.3     1  UNL1       -0.4584
     10 C          -5.6727  -15.4754   24.4158 C.ar    1  UNL1        0.0746
     11 C          -5.3916  -15.4495   25.8890 C.ar    1  UNL1        0.0312
     12 C          -6.5265  -15.4698   26.8695 C.ar    1  UNL1        0.1028
     13 N          -7.9425  -15.5159   26.3770 N.ar    1  UNL1       -0.2101
     14 C          -8.2236  -15.5418   24.9038 C.ar    1  UNL1        0.2256
     15 C          -7.0887  -15.5216   23.9232 C.ar    1  UNL1        0.0680
     16 N          -3.4028  -15.4350   22.4547 N.1     1  UNL1       -0.1908
     17 C          -4.5377  -15.4552   23.4352 C.1     1  UNL1        0.1006
     18 C          -6.9813  -19.8681   21.7682 C.3     1  UNL1        0.1010
     19 C          -6.2695  -19.7421   20.4539 C.3     1  UNL1        0.0644
     20 N          -6.8966  -18.9679   19.3325 N.3     1  UNL1       -0.3215
     21 H          -7.7978  -18.5992   19.6363 H       1  UNL1        0.1188
     22 H          -7.0337  -19.5825   18.5301 H       1  UNL1        0.1188
     23 C          -4.9306  -20.3903   20.2609 C.3     1  UNL1        0.0447
     24 C          -3.6862  -19.5529   20.2533 C.ar    1  UNL1        0.0090
     25 C          -3.1468  -19.0227   18.9579 C.ar    1  UNL1        0.0300
     26 C          -1.9023  -18.1853   18.9503 C.ar    1  UNL1        0.1672
     27 F          -1.3630  -17.6552   17.6550 F       1  UNL1       -0.2018
     28 C          -1.1972  -17.8780   20.2381 C.ar    1  UNL1        0.1696
     29 F           0.0472  -17.0406   20.2305 F       1  UNL1       -0.2017
     30 C          -1.7366  -18.4081   21.5335 C.ar    1  UNL1        0.0612
     31 C          -2.9811  -19.2456   21.5411 C.ar    1  UNL1        0.1386
     32 F          -3.5205  -19.7758   22.8365 F       1  UNL1       -0.2044
@<TRIPOS>BOND
     1    16    17    3
     2    17    10    1
     3    10    11   ar
     4    11    12   ar
     5    12    13   ar
     6    13    14   ar
     7    14     9    1
     8     9     8    1
     9     1     8    1
    10     1     2    1
    11     2     3    1
    12     3     4    1
    13     4     5    1
    14     5     6   am
    15     6     7    2
    16     6    18    1
    17    18    19    1
    18    19    20    1
    19    19    23    1
    20    23    24    1
    21    24    25   ar
    22    25    26   ar
    23    26    27    1
    24    26    28   ar
    25    28    29    1
    26    28    30   ar
    27    30    31   ar
    28    31    32    1
    29    14    15   ar
    30    15    10   ar
    31     5     1    1
    32    31    24   ar
    33    20    21    1
    34    20    22    1
@<TRIPOS>MOLECULE
*****
 32 34 0 0 0
SMALL
GASTEIGER

@<TRIPOS>ATOM
      1 C          -8.0426  -15.7900   25.6852 C.3     1  UNL1        0.1190
      2 C          -8.0781  -15.6604   27.1791 C.3     1  UNL1        0.0254
      3 C          -6.7013  -15.2896   27.6450 C.3     1  UNL1        0.0233
      4 C          -5.8150  -15.1901   26.4389 C.3     1  UNL1        0.0935
      5 N          -6.6440  -15.4994   25.2277 N.am    1  UNL1       -0.2774
      6 C          -6.1595  -15.5153   23.8082 C.2     1  UNL1        0.2271
      7 O          -7.1095  -15.8443   22.6951 O.2     1  UNL1       -0.2748
      8 C          -9.2024  -16.1475   24.8035 C.3     1  UNL1        0.2266
      9 O          -9.5920  -17.5846   24.6227 O.3     1  UNL1       -0.4584
     10 C         -11.2455  -17.4735   21.0167 C.ar    1  UNL1        0.0746
     11 C         -11.4985  -18.9322   20.7757 C.ar    1  UNL1        0.0312
     12 C         -11.1160  -19.9418   21.8171 C.ar    1  UNL1        0.1028
     13 N         -10.4805  -19.4926   23.0994 N.ar    1  UNL1       -0.2101
     14 C         -10.2275  -18.0339   23.3404 C.ar    1  UNL1        0.2256
     15 C         -10.6101  -17.0243   22.2990 C.ar    1  UNL1        0.0680
     16 N         -12.0106  -15.4543   18.9339 N.1     1  UNL1       -0.1908
     17 C         -11.6281  -16.4639   19.9753 C.1     1  UNL1        0.1006
     18 C          -4.7249  -15.2022   23.5019 C.3     1  UNL1        0.1010
     19 C          -3.8336  -16.2600   22.9217 C.3     1  UNL1        0.0644
     20 N          -2.7741  -15.8859   21.9280 N.3     1  UNL1       -0.3215
     21 H          -2.8017  -14.8795   21.7644 H       1  UNL1        0.1188
     22 H          -2.9422  -16.3777   21.0504 H       1  UNL1        0.1188
     23 C          -4.0018  -17.6920   23.3354 C.3     1  UNL1        0.0447
     24 C          -4.5544  -18.6930   22.3646 C.ar    1  UNL1        0.0090
     25 C          -6.0384  -18.8493   22.2117 C.ar    1  UNL1        0.0300
     26 C          -6.5910  -19.8504   21.2409 C.ar    1  UNL1        0.1672
     27 F          -8.0750  -20.0067   21.0880 F       1  UNL1       -0.2018
     28 C          -5.6597  -20.6952   20.4229 C.ar    1  UNL1        0.1696
     29 F          -6.2124  -21.6962   19.4522 F       1  UNL1       -0.2017
     30 C          -4.1758  -20.5389   20.5758 C.ar    1  UNL1        0.0612
     31 C          -3.6231  -19.5378   21.5467 C.ar    1  UNL1        0.1386
     32 F          -2.1391  -19.3815   21.6996 F       1  UNL1       -0.2044
@<TRIPOS>BOND
     1    16    17    3
     2    17    10    1
     3    10    11   ar
     4    11    12   ar
     5    12    13   ar
     6    13    14   ar
     7    14     9    1
     8     9     8    1
     9     1     8    1
    10     1     2    1
    11     2     3    1
    12     3     4    1
    13     4     5    1
    14     5     6   am
    15     6     7    2
    16     6    18    1
    17    18    19    1
    18    19    20    1
    19    19    23    1
    20    23    24    1
    21    24    25   ar
    22    25    26   ar
    23    26    27    1
    24    26    28   ar
    25    28    29    1
    26    28    30   ar
    27    30    31   ar
    28    31    32    1
    29    14    15   ar
    30    15    10   ar
    31     5     1    1
    32    31    24   ar
    33    20    21    1
    34    20    22    1
@<TRIPOS>MOLECULE
*****
 32 34 0 0 0
SMALL
GASTEIGER

@<TRIPOS>ATOM
      1 C          -6.6172  -15.8524   25.2209 C.3     1  UNL1        0.1190
      2 C          -6.0765  -15.1494   26.4307 C.3     1  UNL1        0.0254
      3 C          -7.0613  -15.3264   27.5483 C.3     1  UNL1        0.0233
      4 C          -8.2105  -16.1388   27.0291 C.3     1  UNL1        0.0935
      5 N          -7.9360  -16.4638   25.5907 N.am    1  UNL1       -0.2774
      6 C          -8.8244  -17.2603   24.6817 C.2     1  UNL1        0.2271
      7 O          -8.4158  -17.5054   23.2594 O.2     1  UNL1       -0.2748
      8 C          -5.9551  -15.9302   23.8771 C.3     1  UNL1        0.2266
      9 O          -4.5637  -16.4774   23.7571 O.3     1  UNL1       -0.4584
     10 C          -2.5874  -18.5899   21.0402 C.ar    1  UNL1        0.0746
     11 C          -3.6314  -19.5922   20.6460 C.ar    1  UNL1        0.0312
     12 C          -4.9862  -19.5563   21.2889 C.ar    1  UNL1        0.1028
     13 N          -5.2969  -18.5180   22.3259 N.ar    1  UNL1       -0.2101
     14 C          -4.2529  -17.5157   22.7200 C.ar    1  UNL1        0.2256
     15 C          -2.8982  -17.5516   22.0772 C.ar    1  UNL1        0.0680
     16 N           0.1222  -18.6617   19.7545 N.1     1  UNL1       -0.1908
     17 C          -1.2326  -18.6258   20.3973 C.1     1  UNL1        0.1006
     18 C         -10.1214  -17.8120   25.1950 C.3     1  UNL1        0.1010
     19 C         -10.5730  -19.1797   24.7762 C.3     1  UNL1        0.0644
     20 N          -9.9203  -20.3969   25.3613 N.3     1  UNL1       -0.3215
     21 H          -9.1965  -20.1108   26.0206 H       1  UNL1        0.1188
     22 H          -9.5003  -20.9498   24.6142 H       1  UNL1        0.1188
     23 C         -11.6772  -19.3301   23.7722 C.3     1  UNL1        0.0447
     24 C         -11.6517  -18.5298   22.5038 C.ar    1  UNL1        0.0090
     25 C         -10.7787  -18.9604   21.3626 C.ar    1  UNL1        0.0300
     26 C         -10.7532  -18.1600   20.0943 C.ar    1  UNL1        0.1672
     27 F          -9.8802  -18.5906   18.9531 F       1  UNL1       -0.2018
     28 C         -11.6009  -16.9290   19.9671 C.ar    1  UNL1        0.1696
     29 F         -11.5754  -16.1286   18.6987 F       1  UNL1       -0.2017
     30 C         -12.4740  -16.4984   21.1082 C.ar    1  UNL1        0.0612
     31 C         -12.4994  -17.2988   22.3767 C.ar    1  UNL1        0.1386
     32 F         -13.3725  -16.8682   23.5179 F       1  UNL1       -0.2044
@<TRIPOS>BOND
     1    16    17    3
     2    17    10    1
     3    10    11   ar
     4    11    12   ar
     5    12    13   ar
     6    13    14   ar
     7    14     9    1
     8     9     8    1
     9     1     8    1
    10     1     2    1
    11     2     3    1
    12     3     4    1
    13     4     5    1
    14     5     6   am
    15     6     7    2
    16     6    18    1
    17    18    19    1
    18    19    20    1
    19    19    23    1
    20    23    24    1
    21    24    25   ar
    22    25    26   ar
    23    26    27    1
    24    26    28   ar
    25    28    29    1
    26    28    30   ar
    27    30    31   ar
    28    31    32    1
    29    14    15   ar
    30    15    10   ar
    31     5     1    1
    32    31    24   ar
    33    20    21    1
    34    20    22    1
@<TRIPOS>MOLECULE
*****
 32 34 0 0 0
SMALL
GASTEIGER

@<TRIPOS>ATOM
      1 C          -6.3615  -15.5828   25.2288 C.3     1  UNL1        0.1190
      2 C          -6.3538  -15.5053   26.7268 C.3     1  UNL1        0.0254
      3 C          -7.7779  -15.4556   27.1956 C.3     1  UNL1        0.0233
      4 C          -8.6655  -15.5025   25.9873 C.3     1  UNL1        0.0935
      5 N          -7.7901  -15.5811   24.7718 N.am    1  UNL1       -0.2774
      6 C          -8.2607  -15.6465   23.3491 C.2     1  UNL1        0.2271
      7 O          -7.2629  -15.7222   22.2317 O.2     1  UNL1       -0.2748
      8 C          -5.1526  -15.6502   24.3433 C.3     1  UNL1        0.2266
      9 O          -4.3160  -16.8948   24.3097 O.3     1  UNL1       -0.4584
     10 C          -2.6571  -18.4693   21.0664 C.ar    1  UNL1        0.0746
     11 C          -3.8329  -19.1780   20.4622 C.ar    1  UNL1        0.0312
     12 C          -5.1697  -19.1257   21.1405 C.ar    1  UNL1        0.1028
     13 N          -5.3308  -18.3646   22.4229 N.ar    1  UNL1       -0.2101
     14 C          -4.1550  -17.6559   23.0271 C.ar    1  UNL1        0.2256
     15 C          -2.8181  -17.7082   22.3489 C.ar    1  UNL1        0.0680
     16 N           0.0167  -18.5739   19.7098 N.1     1  UNL1       -0.1908
     17 C          -1.3202  -18.5216   20.3881 C.1     1  UNL1        0.1006
     18 C          -9.7293  -15.6362   23.0436 C.3     1  UNL1        0.1010
     19 C         -10.2155  -16.0421   21.6839 C.3     1  UNL1        0.0644
     20 N         -10.1327  -15.0768   20.5388 N.3     1  UNL1       -0.3215
     21 H          -9.7234  -14.2002   20.8620 H       1  UNL1        0.1188
     22 H         -11.0689  -14.9008   20.1741 H       1  UNL1        0.1188
     23 C         -10.7845  -17.4133   21.4693 C.3     1  UNL1        0.0447
     24 C         -10.3629  -18.5473   22.3560 C.ar    1  UNL1        0.0090
     25 C          -9.0179  -19.1848   22.1700 C.ar    1  UNL1        0.0300
     26 C          -8.5964  -20.3189   23.0567 C.ar    1  UNL1        0.1672
     27 F          -7.2514  -20.9563   22.8707 F       1  UNL1       -0.2018
     28 C          -9.5198  -20.8155   24.1294 C.ar    1  UNL1        0.1696
     29 F          -9.0982  -21.9495   25.0160 F       1  UNL1       -0.2017
     30 C         -10.8648  -20.1780   24.3154 C.ar    1  UNL1        0.0612
     31 C         -11.2864  -19.0439   23.4286 C.ar    1  UNL1        0.1386
     32 F         -12.6313  -18.4064   23.6146 F       1  UNL1       -0.2044
@<TRIPOS>BOND
     1    16    17    3
     2    17    10    1
     3    10    11   ar
     4    11    12   ar
     5    12    13   ar
     6    13    14   ar
     7    14     9    1
     8     9     8    1
     9     1     8    1
    10     1     2    1
    11     2     3    1
    12     3     4    1
    13     4     5    1
    14     5     6   am
    15     6     7    2
    16     6    18    1
    17    18    19    1
    18    19    20    1
    19    19    23    1
    20    23    24    1
    21    24    25   ar
    22    25    26   ar
    23    26    27    1
    24    26    28   ar
    25    28    29    1
    26    28    30   ar
    27    30    31   ar
    28    31    32    1
    29    14    15   ar
    30    15    10   ar
    31     5     1    1
    32    31    24   ar
    33    20    21    1
    34    20    22    1
@<TRIPOS>MOLECULE
*****
 32 34 0 0 0
SMALL
GASTEIGER

@<TRIPOS>ATOM
      1 C          -8.0907  -15.7516   25.6359 C.3     1  UNL1        0.1190
      2 C          -8.1438  -15.3134   27.0695 C.3     1  UNL1        0.0254
      3 C          -6.7346  -15.1886   27.5685 C.3     1  UNL1        0.0233
      4 C          -5.8108  -15.5495   26.4431 C.3     1  UNL1        0.0935
      5 N          -6.6489  -15.8975   25.2488 N.am    1  UNL1       -0.2774
      6 C          -6.1354  -16.3176   23.9035 C.2     1  UNL1        0.2271
      7 O          -7.0989  -16.6358   22.7988 O.2     1  UNL1       -0.2748
      8 C          -9.2722  -16.0002   24.7457 C.3     1  UNL1        0.2266
      9 O          -9.8331  -17.3850   24.6131 O.3     1  UNL1       -0.4584
     10 C         -11.2745  -17.3682   20.9155 C.ar    1  UNL1        0.0746
     11 C         -11.3177  -18.8384   20.6214 C.ar    1  UNL1        0.0312
     12 C         -10.8661  -19.8242   21.6579 C.ar    1  UNL1        0.1028
     13 N         -10.3712  -19.3397   22.9884 N.ar    1  UNL1       -0.2101
     14 C         -10.3280  -17.8695   23.2825 C.ar    1  UNL1        0.2256
     15 C         -10.7796  -16.8837   22.2460 C.ar    1  UNL1        0.0680
     16 N         -12.1778  -15.3966   18.8425 N.1     1  UNL1       -0.1908
     17 C         -11.7261  -16.3824   19.8790 C.1     1  UNL1        0.1006
     18 C          -4.6583  -16.4195   23.6629 C.3     1  UNL1        0.1010
     19 C          -3.9424  -17.7107   23.9283 C.3     1  UNL1        0.0644
     20 N          -3.2487  -17.9276   25.2404 N.3     1  UNL1       -0.3215
     21 H          -3.3647  -17.1012   25.8270 H       1  UNL1        0.1188
     22 H          -2.2554  -18.0918   25.0768 H       1  UNL1        0.1188
     23 C          -3.9203  -18.7849   22.8816 C.3     1  UNL1        0.0447
     24 C          -3.2743  -18.5243   21.5532 C.ar    1  UNL1        0.0090
     25 C          -2.0616  -17.6455   21.4683 C.ar    1  UNL1        0.0300
     26 C          -1.4157  -17.3850   20.1398 C.ar    1  UNL1        0.1672
     27 F          -0.2031  -16.5062   20.0550 F       1  UNL1       -0.2018
     28 C          -1.9824  -18.0033   18.8961 C.ar    1  UNL1        0.1696
     29 F          -1.3364  -17.7427   17.5677 F       1  UNL1       -0.2017
     30 C          -3.1950  -18.8820   18.9810 C.ar    1  UNL1        0.0612
     31 C          -3.8410  -19.1426   20.3096 C.ar    1  UNL1        0.1386
     32 F          -5.0537  -20.0214   20.3944 F       1  UNL1       -0.2044
@<TRIPOS>BOND
     1    16    17    3
     2    17    10    1
     3    10    11   ar
     4    11    12   ar
     5    12    13   ar
     6    13    14   ar
     7    14     9    1
     8     9     8    1
     9     1     8    1
    10     1     2    1
    11     2     3    1
    12     3     4    1
    13     4     5    1
    14     5     6   am
    15     6     7    2
    16     6    18    1
    17    18    19    1
    18    19    20    1
    19    19    23    1
    20    23    24    1
    21    24    25   ar
    22    25    26   ar
    23    26    27    1
    24    26    28   ar
    25    28    29    1
    26    28    30   ar
    27    30    31   ar
    28    31    32    1
    29    14    15   ar
    30    15    10   ar
    31     5     1    1
    32    31    24   ar
    33    20    21    1
    34    20    22    1
@<TRIPOS>MOLECULE
*****
 32 34 0 0 0
SMALL
GASTEIGER

@<TRIPOS>ATOM
      1 C          -8.8949  -16.9744   24.6508 C.3     1  UNL1        0.1190
      2 C          -8.8644  -15.5785   25.1991 C.3     1  UNL1        0.0254
      3 C          -7.7720  -14.8283   24.4962 C.3     1  UNL1        0.0233
      4 C          -7.1275  -15.7605   23.5135 C.3     1  UNL1        0.0935
      5 N          -7.8215  -17.0869   23.6091 N.am    1  UNL1       -0.2774
      6 C          -7.4988  -18.3108   22.8043 C.2     1  UNL1        0.2271
      7 O          -8.2833  -19.5725   23.0105 O.2     1  UNL1       -0.2748
      8 C          -9.8340  -18.0662   25.0706 C.3     1  UNL1        0.2266
      9 O         -11.1292  -18.2633   24.3402 O.3     1  UNL1       -0.4584
     10 C         -11.1042  -17.3339   20.4820 C.ar    1  UNL1        0.0746
     11 C         -11.1431  -18.6989   19.8614 C.ar    1  UNL1        0.0312
     12 C         -11.1773  -19.9187   20.7336 C.ar    1  UNL1        0.1028
     13 N         -11.1727  -19.7735   22.2266 N.ar    1  UNL1       -0.2101
     14 C         -11.1338  -18.4085   22.8472 C.ar    1  UNL1        0.2256
     15 C         -11.0996  -17.1887   21.9749 C.ar    1  UNL1        0.0680
     16 N         -11.0357  -14.8942   18.7374 N.1     1  UNL1       -0.1908
     17 C         -11.0700  -16.1141   19.6097 C.1     1  UNL1        0.1006
     18 C          -6.3914  -18.2732   21.7931 C.3     1  UNL1        0.1010
     19 C          -6.4049  -19.2206   20.6303 C.3     1  UNL1        0.0644
     20 N          -7.6384  -19.3560   19.7875 N.3     1  UNL1       -0.3215
     21 H          -8.3645  -18.7354   20.1454 H       1  UNL1        0.1188
     22 H          -7.9686  -20.3205   19.8207 H       1  UNL1        0.1188
     23 C          -5.1850  -20.0326   20.3102 C.3     1  UNL1        0.0447
     24 C          -3.8340  -19.3812   20.2926 C.ar    1  UNL1        0.0090
     25 C          -3.2695  -18.8597   19.0045 C.ar    1  UNL1        0.0300
     26 C          -1.9184  -18.2083   18.9870 C.ar    1  UNL1        0.1672
     27 F          -1.3539  -17.6868   17.6988 F       1  UNL1       -0.2018
     28 C          -1.1318  -18.0784   20.2576 C.ar    1  UNL1        0.1696
     29 F           0.2193  -17.4270   20.2400 F       1  UNL1       -0.2017
     30 C          -1.6963  -18.5999   21.5457 C.ar    1  UNL1        0.0612
     31 C          -3.0474  -19.2514   21.5633 C.ar    1  UNL1        0.1386
     32 F          -3.6119  -19.7729   22.8514 F       1  UNL1       -0.2044
@<TRIPOS>BOND
     1    16    17    3
     2    17    10    1
     3    10    11   ar
     4    11    12   ar
     5    12    13   ar
     6    13    14   ar
     7    14     9    1
     8     9     8    1
     9     1     8    1
    10     1     2    1
    11     2     3    1
    12     3     4    1
    13     4     5    1
    14     5     6   am
    15     6     7    2
    16     6    18    1
    17    18    19    1
    18    19    20    1
    19    19    23    1
    20    23    24    1
    21    24    25   ar
    22    25    26   ar
    23    26    27    1
    24    26    28   ar
    25    28    29    1
    26    28    30   ar
    27    30    31   ar
    28    31    32    1
    29    14    15   ar
    30    15    10   ar
    31     5     1    1
    32    31    24   ar
    33    20    21    1
    34    20    22    1
@<TRIPOS>MOLECULE
*****
 32 34 0 0 0
SMALL
GASTEIGER

@<TRIPOS>ATOM
      1 C          -7.3542  -15.5628   25.4275 C.3     1  UNL1        0.1190
      2 C          -6.6173  -15.1259   26.6588 C.3     1  UNL1        0.0254
      3 C          -7.1268  -15.9342   27.8152 C.3     1  UNL1        0.0233
      4 C          -8.1787  -16.8706   27.2985 C.3     1  UNL1        0.0935
      5 N          -8.3192  -16.6410   25.8228 N.am    1  UNL1       -0.2774
      6 C          -9.2595  -17.3629   24.9038 C.2     1  UNL1        0.2271
      7 O          -9.2885  -17.0239   23.4429 O.2     1  UNL1       -0.2748
      8 C          -7.1602  -15.0172   24.0437 C.3     1  UNL1        0.2266
      9 O          -7.1794  -15.9423   22.8632 O.3     1  UNL1       -0.4584
     10 C          -5.3918  -19.3192   21.7901 C.ar    1  UNL1        0.0746
     11 C          -4.0714  -19.1748   22.4870 C.ar    1  UNL1        0.0312
     12 C          -3.7870  -17.9529   23.3092 C.ar    1  UNL1        0.1028
     13 N          -4.8229  -16.8754   23.4347 N.ar    1  UNL1       -0.2101
     14 C          -6.1433  -17.0198   22.7378 C.ar    1  UNL1        0.2256
     15 C          -6.4278  -18.2417   21.9155 C.ar    1  UNL1        0.0680
     16 N          -5.9607  -21.7629   20.1456 N.1     1  UNL1       -0.1908
     17 C          -5.6762  -20.5410   20.9678 C.1     1  UNL1        0.1006
     18 C         -10.1710  -18.4239   25.4457 C.3     1  UNL1        0.1010
     19 C         -10.4077  -19.6810   24.6625 C.3     1  UNL1        0.0644
     20 N          -9.4943  -20.8577   24.8389 N.3     1  UNL1       -0.3215
     21 H          -8.7740  -20.6293   25.5240 H       1  UNL1        0.1188
     22 H          -9.0552  -21.0841   23.9465 H       1  UNL1        0.1188
     23 C         -11.5578  -19.7615   23.7029 C.3     1  UNL1        0.0447
     24 C         -11.7356  -18.7031   22.6550 C.ar    1  UNL1        0.0090
     25 C         -12.3717  -17.3927   23.0129 C.ar    1  UNL1        0.0300
     26 C         -12.5495  -16.3343   21.9649 C.ar    1  UNL1        0.1672
     27 F         -13.1856  -15.0239   22.3228 F       1  UNL1       -0.2018
     28 C         -12.0912  -16.5863   20.5590 C.ar    1  UNL1        0.1696
     29 F         -12.2690  -15.5279   19.5111 F       1  UNL1       -0.2017
     30 C         -11.4551  -17.8968   20.2011 C.ar    1  UNL1        0.0612
     31 C         -11.2773  -18.9552   21.2491 C.ar    1  UNL1        0.1386
     32 F         -10.6412  -20.2657   20.8912 F       1  UNL1       -0.2044
@<TRIPOS>BOND
     1    16    17    3
     2    17    10    1
     3    10    11   ar
     4    11    12   ar
     5    12    13   ar
     6    13    14   ar
     7    14     9    1
     8     9     8    1
     9     1     8    1
    10     1     2    1
    11     2     3    1
    12     3     4    1
    13     4     5    1
    14     5     6   am
    15     6     7    2
    16     6    18    1
    17    18    19    1
    18    19    20    1
    19    19    23    1
    20    23    24    1
    21    24    25   ar
    22    25    26   ar
    23    26    27    1
    24    26    28   ar
    25    28    29    1
    26    28    30   ar
    27    30    31   ar
    28    31    32    1
    29    14    15   ar
    30    15    10   ar
    31     5     1    1
    32    31    24   ar
    33    20    21    1
    34    20    22    1
@<TRIPOS>MOLECULE
*****
 32 34 0 0 0
SMALL
GASTEIGER

@<TRIPOS>ATOM
      1 C          -9.7410  -16.6530   21.1508 C.3     1  UNL1        0.1190
      2 C          -9.6821  -15.6326   22.2487 C.3     1  UNL1        0.0254
      3 C          -8.3967  -15.8300   22.9964 C.3     1  UNL1        0.0233
      4 C          -7.6614  -16.9724   22.3606 C.3     1  UNL1        0.0935
      5 N          -8.4922  -17.4810   21.2200 N.am    1  UNL1       -0.2774
      6 C          -8.1366  -18.6180   20.3085 C.2     1  UNL1        0.2271
      7 O          -9.0719  -19.0155   19.2052 O.2     1  UNL1       -0.2748
      8 C         -10.8535  -16.8165   20.1580 C.3     1  UNL1        0.2266
      9 O         -12.1329  -17.4833   20.5684 O.3     1  UNL1       -0.4584
     10 C         -11.5042  -19.4082   23.9815 C.ar    1  UNL1        0.0746
     11 C         -12.6640  -18.9219   24.7990 C.ar    1  UNL1        0.0312
     12 C         -13.6468  -17.9560   24.2063 C.ar    1  UNL1        0.1028
     13 N         -13.4698  -17.4765   22.7961 N.ar    1  UNL1       -0.2101
     14 C         -12.3100  -17.9628   21.9786 C.ar    1  UNL1        0.2256
     15 C         -11.3272  -18.9287   22.5713 C.ar    1  UNL1        0.0680
     16 N          -9.5387  -21.3399   25.1669 N.1     1  UNL1       -0.1908
     17 C         -10.5215  -20.3741   24.5742 C.1     1  UNL1        0.1006
     18 C          -6.8457  -19.3575   20.5003 C.3     1  UNL1        0.1010
     19 C          -6.5294  -19.9828   21.8265 C.3     1  UNL1        0.0644
     20 N          -7.6388  -20.4814   22.7043 N.3     1  UNL1       -0.3215
     21 H          -8.5351  -20.3161   22.2464 H       1  UNL1        0.1188
     22 H          -7.6159  -19.9860   23.5956 H       1  UNL1        0.1188
     23 C          -5.1036  -20.1094   22.2750 C.3     1  UNL1        0.0447
     24 C          -4.0344  -19.2899   21.6154 C.ar    1  UNL1        0.0090
     25 C          -3.5290  -18.0429   22.2783 C.ar    1  UNL1        0.0300
     26 C          -2.4598  -17.2234   21.6186 C.ar    1  UNL1        0.1672
     27 F          -1.9545  -15.9763   22.2815 F       1  UNL1       -0.2018
     28 C          -1.8959  -17.6509   20.2959 C.ar    1  UNL1        0.1696
     29 F          -0.8267  -16.8313   19.6363 F       1  UNL1       -0.2017
     30 C          -2.4012  -18.8979   19.6330 C.ar    1  UNL1        0.0612
     31 C          -3.4705  -19.7175   20.2928 C.ar    1  UNL1        0.1386
     32 F          -3.9759  -20.9645   19.6298 F       1  UNL1       -0.2044
@<TRIPOS>BOND
     1    16    17    3
     2    17    10    1
     3    10    11   ar
     4    11    12   ar
     5    12    13   ar
     6    13    14   ar
     7    14     9    1
     8     9     8    1
     9     1     8    1
    10     1     2    1
    11     2     3    1
    12     3     4    1
    13     4     5    1
    14     5     6   am
    15     6     7    2
    16     6    18    1
    17    18    19    1
    18    19    20    1
    19    19    23    1
    20    23    24    1
    21    24    25   ar
    22    25    26   ar
    23    26    27    1
    24    26    28   ar
    25    28    29    1
    26    28    30   ar
    27    30    31   ar
    28    31    32    1
    29    14    15   ar
    30    15    10   ar
    31     5     1    1
    32    31    24   ar
    33    20    21    1
    34    20    22    1
