@<TRIPOS>MOLECULE
*****
 23 25 0 0 0
SMALL
GASTEIGER

@<TRIPOS>ATOM
      1 C          -4.7253  -18.3518   21.6997 C.ar    1  UNL1        0.0596
      2 N          -4.3571  -17.3704   22.7727 N.ar    1  UNL1       -0.2496
      3 C          -5.4213  -16.7924   23.6577 C.ar    1  UNL1        0.0809
      4 C          -5.0531  -15.8110   24.7307 C.ar    1  UNL1        0.0199
      5 C          -6.1173  -15.2330   25.6157 C.ar    1  UNL1        0.0129
      6 C          -7.5498  -15.6364   25.4277 C.ar    1  UNL1        0.0578
      7 CL         -8.6141  -15.0583   26.3128 Cl      1  UNL1       -0.0822
      8 C          -7.9180  -16.6177   24.3548 C.ar    1  UNL1        0.0129
      9 C          -6.8538  -17.1957   23.4698 C.ar    1  UNL1        0.0185
     10 C          -7.2220  -18.1771   22.3967 C.ar    1  UNL1        0.0037
     11 C          -6.1578  -18.7551   21.5117 C.ar    1  UNL1        0.0276
     12 C          -8.6545  -18.5805   22.2088 C.ar    1  UNL1        0.0001
     13 C          -9.2001  -19.7720   22.9387 C.ar    1  UNL1        0.0000
     14 C         -10.6326  -20.1753   22.7507 C.ar    1  UNL1        0.0000
     15 C         -11.5194  -19.3872   21.8328 C.ar    1  UNL1        0.0000
     16 C         -10.9738  -18.1958   21.1030 C.ar    1  UNL1        0.0000
     17 C          -9.5413  -17.7924   21.2909 C.ar    1  UNL1        0.0000
     18 C          -3.5450  -18.4791   19.3887 C.3     1  UNL1        0.0063
     19 C          -3.6610  -18.9298   20.8146 C.3     1  UNL1        0.0403
     20 C          -2.7129  -19.9586   21.3555 C.3     1  UNL1        0.0063
     21 C          -6.5260  -19.7365   20.4387 C.2     1  UNL1        0.0740
     22 O          -7.3029  -19.2802   19.2395 O.co2   1  UNL1       -0.5446
     23 O          -6.1173  -21.1742   20.5649 O.co2   1  UNL1       -0.5446
@<TRIPOS>UNITY_ATOM_ATTR
22 1
charge -1
@<TRIPOS>BOND
     1    18    19    1
     2    19    20    1
     3    19     1    1
     4     1     2   ar
     5     2     3   ar
     6     3     4   ar
     7     4     5   ar
     8     5     6   ar
     9     6     7    1
    10     6     8   ar
    11     8     9   ar
    12     9    10   ar
    13    10    12    1
    14    12    13   ar
    15    13    14   ar
    16    14    15   ar
    17    15    16   ar
    18    16    17   ar
    19    10    11   ar
    20    11    21    1
    21    21    22   ar
    22    21    23   ar
    23    11     1   ar
    24     9     3   ar
    25    17    12   ar
@<TRIPOS>MOLECULE
*****
 23 25 0 0 0
SMALL
GASTEIGER

@<TRIPOS>ATOM
      1 C          -6.6499  -18.4591   21.7267 C.ar    1  UNL1        0.0596
      2 N          -5.7708  -17.7577   22.7192 N.ar    1  UNL1       -0.2496
      3 C          -6.3834  -16.9963   23.8572 C.ar    1  UNL1        0.0809
      4 C          -5.5044  -16.2948   24.8498 C.ar    1  UNL1        0.0199
      5 C          -6.1170  -15.5335   25.9877 C.ar    1  UNL1        0.0129
      6 C          -7.6088  -15.4736   26.1331 C.ar    1  UNL1        0.0578
      7 CL         -8.2214  -14.7122   27.2711 Cl      1  UNL1       -0.0822
      8 C          -8.4878  -16.1750   25.1405 C.ar    1  UNL1        0.0129
      9 C          -7.8752  -16.9363   24.0026 C.ar    1  UNL1        0.0185
     10 C          -8.7543  -17.6378   23.0100 C.ar    1  UNL1        0.0037
     11 C          -8.1416  -18.3992   21.8720 C.ar    1  UNL1        0.0276
     12 C         -10.2460  -17.5779   23.1554 C.ar    1  UNL1        0.0001
     13 C         -10.9551  -18.5716   24.0271 C.ar    1  UNL1        0.0000
     14 C         -12.4468  -18.5116   24.1725 C.ar    1  UNL1        0.0000
     15 C         -13.2295  -17.4581   23.4461 C.ar    1  UNL1        0.0000
     16 C         -12.5204  -16.4645   22.5744 C.ar    1  UNL1        0.0000
     17 C         -11.0286  -16.5244   22.4290 C.ar    1  UNL1        0.0000
     18 C          -5.2440  -18.4955   19.5421 C.3     1  UNL1        0.0063
     19 C          -6.0372  -19.2205   20.5886 C.3     1  UNL1        0.0403
     20 C          -6.2177  -20.7067   20.4972 C.3     1  UNL1        0.0063
     21 C          -9.0207  -19.1006   20.8794 C.2     1  UNL1        0.0740
     22 O          -9.8205  -20.2978   21.3004 O.co2   1  UNL1       -0.5446
     23 O          -9.0999  -18.6050   19.4659 O.co2   1  UNL1       -0.5446
@<TRIPOS>UNITY_ATOM_ATTR
22 1
charge -1
@<TRIPOS>BOND
     1    18    19    1
     2    19    20    1
     3    19     1    1
     4     1     2   ar
     5     2     3   ar
     6     3     4   ar
     7     4     5   ar
     8     5     6   ar
     9     6     7    1
    10     6     8   ar
    11     8     9   ar
    12     9    10   ar
    13    10    12    1
    14    12    13   ar
    15    13    14   ar
    16    14    15   ar
    17    15    16   ar
    18    16    17   ar
    19    10    11   ar
    20    11    21    1
    21    21    22   ar
    22    21    23   ar
    23    11     1   ar
    24     9     3   ar
    25    17    12   ar
@<TRIPOS>MOLECULE
*****
 23 25 0 0 0
SMALL
GASTEIGER

@<TRIPOS>ATOM
      1 C          -6.4156  -16.8557   23.8369 C.ar    1  UNL1        0.0596
      2 N          -5.8071  -17.5511   22.6553 N.ar    1  UNL1       -0.2496
      3 C          -6.6865  -18.2540   21.6640 C.ar    1  UNL1        0.0809
      4 C          -6.0780  -18.9494   20.4824 C.ar    1  UNL1        0.0199
      5 C          -6.9574  -19.6522   19.4912 C.ar    1  UNL1        0.0129
      6 C          -8.4452  -19.6597   19.6814 C.ar    1  UNL1        0.0578
      7 CL         -9.3246  -20.3626   18.6901 Cl      1  UNL1       -0.0822
      8 C          -9.0537  -18.9643   20.8630 C.ar    1  UNL1        0.0129
      9 C          -8.1744  -18.2614   21.8542 C.ar    1  UNL1        0.0185
     10 C          -8.7828  -17.5660   23.0359 C.ar    1  UNL1        0.0037
     11 C          -7.9035  -16.8631   24.0271 C.ar    1  UNL1        0.0276
     12 C         -10.2707  -17.5734   23.2261 C.ar    1  UNL1        0.0001
     13 C         -10.9100  -18.6121   24.0994 C.ar    1  UNL1        0.0000
     14 C         -12.3978  -18.6196   24.2897 C.ar    1  UNL1        0.0000
     15 C         -13.2464  -17.5883   23.6067 C.ar    1  UNL1        0.0000
     16 C         -12.6072  -16.5496   22.7335 C.ar    1  UNL1        0.0000
     17 C         -11.1193  -16.5422   22.5432 C.ar    1  UNL1        0.0000
     18 C          -4.6985  -16.9489   25.7844 C.3     1  UNL1        0.0063
     19 C          -5.5362  -16.1528   24.8282 C.3     1  UNL1        0.0403
     20 C          -5.4946  -14.6538   24.8633 C.3     1  UNL1        0.0063
     21 C          -8.5120  -16.1677   25.2088 C.2     1  UNL1        0.0740
     22 O          -8.5792  -16.8636   26.5358 O.co2   1  UNL1       -0.5446
     23 O          -9.0532  -14.7763   25.0633 O.co2   1  UNL1       -0.5446
@<TRIPOS>UNITY_ATOM_ATTR
22 1
charge -1
@<TRIPOS>BOND
     1    18    19    1
     2    19    20    1
     3    19     1    1
     4     1     2   ar
     5     2     3   ar
     6     3     4   ar
     7     4     5   ar
     8     5     6   ar
     9     6     7    1
    10     6     8   ar
    11     8     9   ar
    12     9    10   ar
    13    10    12    1
    14    12    13   ar
    15    13    14   ar
    16    14    15   ar
    17    15    16   ar
    18    16    17   ar
    19    10    11   ar
    20    11    21    1
    21    21    22   ar
    22    21    23   ar
    23    11     1   ar
    24     9     3   ar
    25    17    12   ar
@<TRIPOS>MOLECULE
*****
 23 25 0 0 0
SMALL
GASTEIGER

@<TRIPOS>ATOM
      1 C          -6.1516  -19.0043   20.6110 C.ar    1  UNL1        0.0596
      2 N          -7.3385  -19.3643   19.7676 N.ar    1  UNL1       -0.2496
      3 C          -8.7166  -18.9593   20.2001 C.ar    1  UNL1        0.0809
      4 C          -9.9035  -19.3193   19.3567 C.ar    1  UNL1        0.0199
      5 C         -11.2815  -18.9143   19.7892 C.ar    1  UNL1        0.0129
      6 C         -11.4725  -18.1492   21.0653 C.ar    1  UNL1        0.0578
      7 CL        -12.8505  -17.7442   21.4978 Cl      1  UNL1       -0.0822
      8 C         -10.2855  -17.7892   21.9087 C.ar    1  UNL1        0.0129
      9 C          -8.9076  -18.1942   21.4761 C.ar    1  UNL1        0.0185
     10 C          -7.7205  -17.8342   22.3196 C.ar    1  UNL1        0.0037
     11 C          -6.3426  -18.2392   21.8870 C.ar    1  UNL1        0.0276
     12 C          -7.9115  -17.0691   23.5956 C.ar    1  UNL1        0.0001
     13 C          -7.4865  -15.6330   23.6799 C.ar    1  UNL1        0.0000
     14 C          -7.6774  -14.8680   24.9559 C.ar    1  UNL1        0.0000
     15 C          -8.2935  -15.5390   26.1477 C.ar    1  UNL1        0.0000
     16 C          -8.7185  -16.9750   26.0634 C.ar    1  UNL1        0.0000
     17 C          -8.5275  -17.7401   24.7874 C.ar    1  UNL1        0.0000
     18 C          -4.2682  -20.7891   20.4797 C.3     1  UNL1        0.0063
     19 C          -4.7735  -19.4093   20.1785 C.3     1  UNL1        0.0403
     20 C          -3.9009  -18.4345   19.4448 C.3     1  UNL1        0.0063
     21 C          -5.1555  -17.8792   22.7305 C.2     1  UNL1        0.0740
     22 O          -4.7062  -16.4510   22.8224 O.co2   1  UNL1       -0.5446
     23 O          -4.4178  -18.9473   23.4821 O.co2   1  UNL1       -0.5446
@<TRIPOS>UNITY_ATOM_ATTR
22 1
charge -1
@<TRIPOS>BOND
     1    18    19    1
     2    19    20    1
     3    19     1    1
     4     1     2   ar
     5     2     3   ar
     6     3     4   ar
     7     4     5   ar
     8     5     6   ar
     9     6     7    1
    10     6     8   ar
    11     8     9   ar
    12     9    10   ar
    13    10    12    1
    14    12    13   ar
    15    13    14   ar
    16    14    15   ar
    17    15    16   ar
    18    16    17   ar
    19    10    11   ar
    20    11    21    1
    21    21    22   ar
    22    21    23   ar
    23    11     1   ar
    24     9     3   ar
    25    17    12   ar
@<TRIPOS>MOLECULE
*****
 23 25 0 0 0
SMALL
GASTEIGER

@<TRIPOS>ATOM
      1 C          -9.3585  -18.4818   21.2482 C.ar    1  UNL1        0.0596
      2 N          -8.1090  -18.9668   20.5749 N.ar    1  UNL1       -0.2496
      3 C          -6.7723  -18.7272   21.2121 C.ar    1  UNL1        0.0809
      4 C          -5.5227  -19.2121   20.5388 C.ar    1  UNL1        0.0199
      5 C          -4.1861  -18.9725   21.1760 C.ar    1  UNL1        0.0129
      6 C          -4.0991  -18.2480   22.4866 C.ar    1  UNL1        0.0578
      7 CL         -2.7624  -18.0084   23.1238 Cl      1  UNL1       -0.0822
      8 C          -5.3487  -17.7631   23.1599 C.ar    1  UNL1        0.0129
      9 C          -6.6853  -18.0027   22.5226 C.ar    1  UNL1        0.0185
     10 C          -7.9349  -17.5177   23.1959 C.ar    1  UNL1        0.0037
     11 C          -9.2715  -17.7573   22.5587 C.ar    1  UNL1        0.0276
     12 C          -7.8479  -16.7931   24.5065 C.ar    1  UNL1        0.0001
     13 C          -7.0127  -15.5526   24.6236 C.ar    1  UNL1        0.0000
     14 C          -6.9257  -14.8281   25.9341 C.ar    1  UNL1        0.0000
     15 C          -7.6738  -15.3441   27.1275 C.ar    1  UNL1        0.0000
     16 C          -8.5089  -16.5845   27.0103 C.ar    1  UNL1        0.0000
     17 C          -8.5960  -17.3091   25.6998 C.ar    1  UNL1        0.0000
     18 C         -11.2905  -17.6851   19.7046 C.3     1  UNL1        0.0063
     19 C         -10.6952  -18.7214   20.6110 C.3     1  UNL1        0.0403
     20 C         -11.4365  -19.9973   20.8802 C.3     1  UNL1        0.0063
     21 C         -10.5211  -17.2723   23.2320 C.2     1  UNL1        0.0740
     22 O         -11.3206  -18.2061   24.0916 O.co2   1  UNL1       -0.5446
     23 O         -10.9713  -15.8537   23.0457 O.co2   1  UNL1       -0.5446
@<TRIPOS>UNITY_ATOM_ATTR
22 1
charge -1
@<TRIPOS>BOND
     1    18    19    1
     2    19    20    1
     3    19     1    1
     4     1     2   ar
     5     2     3   ar
     6     3     4   ar
     7     4     5   ar
     8     5     6   ar
     9     6     7    1
    10     6     8   ar
    11     8     9   ar
    12     9    10   ar
    13    10    12    1
    14    12    13   ar
    15    13    14   ar
    16    14    15   ar
    17    15    16   ar
    18    16    17   ar
    19    10    11   ar
    20    11    21    1
    21    21    22   ar
    22    21    23   ar
    23    11     1   ar
    24     9     3   ar
    25    17    12   ar
@<TRIPOS>MOLECULE
*****
 23 25 0 0 0
SMALL
GASTEIGER

@<TRIPOS>ATOM
      1 C           3.9888   -2.2380   19.6029 C.ar    1  UNL1        0.0596
      2 N           2.6121   -1.6663   19.7696 N.ar    1  UNL1       -0.2496
      3 C           2.3328   -0.2511   19.3581 C.ar    1  UNL1        0.0809
      4 C           0.9561    0.3206   19.5248 C.ar    1  UNL1        0.0199
      5 C           0.6769    1.7357   19.1133 C.ar    1  UNL1        0.0129
      6 C           1.7743    2.5791   18.5351 C.ar    1  UNL1        0.0578
      7 CL          1.4949    3.9943   18.1236 Cl      1  UNL1       -0.0822
      8 C           3.1509    2.0074   18.3684 C.ar    1  UNL1        0.0129
      9 C           3.4302    0.5923   18.7799 C.ar    1  UNL1        0.0185
     10 C           4.8069    0.0205   18.6132 C.ar    1  UNL1        0.0037
     11 C           5.0862   -1.3946   19.0247 C.ar    1  UNL1        0.0276
     12 C           5.9044    0.8639   18.0349 C.ar    1  UNL1        0.0001
     13 C           6.7257    1.7432   18.9307 C.ar    1  UNL1        0.0000
     14 C           7.8231    2.5866   18.3525 C.ar    1  UNL1        0.0000
     15 C           8.0992    2.5507   16.8785 C.ar    1  UNL1        0.0000
     16 C           7.2778    1.6715   15.9828 C.ar    1  UNL1        0.0000
     17 C           6.1804    0.8281   16.5610 C.ar    1  UNL1        0.0000
     18 C           4.6343   -3.9626   21.4358 C.3     1  UNL1        0.0063
     19 C           4.2681   -3.6532   20.0144 C.3     1  UNL1        0.0403
     20 C           4.1813   -4.7590   19.0046 C.3     1  UNL1        0.0063
     21 C           6.4630   -1.9664   18.8580 C.2     1  UNL1        0.0740
     22 O           6.9195   -2.4419   17.5105 O.co2   1  UNL1       -0.5446
     23 O           7.3831   -2.0628   20.0386 O.co2   1  UNL1       -0.5446
@<TRIPOS>UNITY_ATOM_ATTR
22 1
charge -1
@<TRIPOS>BOND
     1    18    19    1
     2    19    20    1
     3    19     1    1
     4     1     2   ar
     5     2     3   ar
     6     3     4   ar
     7     4     5   ar
     8     5     6   ar
     9     6     7    1
    10     6     8   ar
    11     8     9   ar
    12     9    10   ar
    13    10    12    1
    14    12    13   ar
    15    13    14   ar
    16    14    15   ar
    17    15    16   ar
    18    16    17   ar
    19    10    11   ar
    20    11    21    1
    21    21    22   ar
    22    21    23   ar
    23    11     1   ar
    24     9     3   ar
    25    17    12   ar
@<TRIPOS>MOLECULE
*****
 23 25 0 0 0
SMALL
GASTEIGER

@<TRIPOS>ATOM
      1 C          -8.2288  -19.4854   20.0267 C.ar    1  UNL1        0.0596
      2 N          -6.8182  -19.9557   19.8302 N.ar    1  UNL1       -0.2496
      3 C          -5.7369  -19.4939   20.7617 C.ar    1  UNL1        0.0809
      4 C          -4.3262  -19.9643   20.5651 C.ar    1  UNL1        0.0199
      5 C          -3.2450  -19.5025   21.4966 C.ar    1  UNL1        0.0129
      6 C          -3.5745  -18.5703   22.6246 C.ar    1  UNL1        0.0578
      7 CL         -2.4932  -18.1084   23.5561 Cl      1  UNL1       -0.0822
      8 C          -4.9852  -18.0999   22.8212 C.ar    1  UNL1        0.0129
      9 C          -6.0664  -18.5617   21.8897 C.ar    1  UNL1        0.0185
     10 C          -7.4771  -18.0913   22.0862 C.ar    1  UNL1        0.0037
     11 C          -8.5583  -18.5531   21.1547 C.ar    1  UNL1        0.0276
     12 C          -7.8066  -17.1591   23.2142 C.ar    1  UNL1        0.0001
     13 C          -8.6053  -17.6510   24.3848 C.ar    1  UNL1        0.0000
     14 C          -8.9348  -16.7188   25.5128 C.ar    1  UNL1        0.0000
     15 C          -8.4656  -15.2946   25.4702 C.ar    1  UNL1        0.0000
     16 C          -7.6670  -14.8027   24.2996 C.ar    1  UNL1        0.0000
     17 C          -7.3375  -15.7350   23.1716 C.ar    1  UNL1        0.0000
     18 C          -9.0242  -21.0215   18.0882 C.3     1  UNL1        0.0063
     19 C          -9.3101  -19.9472   19.0952 C.3     1  UNL1        0.0403
     20 C         -10.6773  -19.3347   19.1707 C.3     1  UNL1        0.0063
     21 C          -9.9691  -18.0827   21.3512 C.2     1  UNL1        0.0740
     22 O         -10.4085  -16.7689   20.7762 O.co2   1  UNL1       -0.5446
     23 O         -10.9403  -18.9262   22.1227 O.co2   1  UNL1       -0.5446
@<TRIPOS>UNITY_ATOM_ATTR
22 1
charge -1
@<TRIPOS>BOND
     1    18    19    1
     2    19    20    1
     3    19     1    1
     4     1     2   ar
     5     2     3   ar
     6     3     4   ar
     7     4     5   ar
     8     5     6   ar
     9     6     7    1
    10     6     8   ar
    11     8     9   ar
    12     9    10   ar
    13    10    12    1
    14    12    13   ar
    15    13    14   ar
    16    14    15   ar
    17    15    16   ar
    18    16    17   ar
    19    10    11   ar
    20    11    21    1
    21    21    22   ar
    22    21    23   ar
    23    11     1   ar
    24     9     3   ar
    25    17    12   ar
@<TRIPOS>MOLECULE
*****
 23 25 0 0 0
SMALL
GASTEIGER

@<TRIPOS>ATOM
      1 C          -5.9071  -16.4819   24.6791 C.ar    1  UNL1        0.0596
      2 N          -4.5979  -16.9708   24.1345 N.ar    1  UNL1       -0.2496
      3 C          -4.5769  -17.9471   22.9958 C.ar    1  UNL1        0.0809
      4 C          -3.2676  -18.4361   22.4511 C.ar    1  UNL1        0.0199
      5 C          -3.2467  -19.4123   21.3125 C.ar    1  UNL1        0.0129
      6 C          -4.5351  -19.8996   20.7186 C.ar    1  UNL1        0.0578
      7 CL         -4.5141  -20.8759   19.5799 Cl      1  UNL1       -0.0822
      8 C          -5.8443  -19.4107   21.2633 C.ar    1  UNL1        0.0129
      9 C          -5.8652  -18.4344   22.4019 C.ar    1  UNL1        0.0185
     10 C          -7.1745  -17.9455   22.9467 C.ar    1  UNL1        0.0037
     11 C          -7.1955  -16.9692   24.0852 C.ar    1  UNL1        0.0276
     12 C          -8.4629  -18.4328   22.3528 C.ar    1  UNL1        0.0001
     13 C          -9.1309  -19.6547   22.9103 C.ar    1  UNL1        0.0000
     14 C         -10.4192  -20.1420   22.3164 C.ar    1  UNL1        0.0000
     15 C         -11.0395  -19.4074   21.1650 C.ar    1  UNL1        0.0000
     16 C         -10.3715  -18.1856   20.6075 C.ar    1  UNL1        0.0000
     17 C          -9.0832  -17.6982   21.2014 C.ar    1  UNL1        0.0000
     18 C          -5.1720  -14.2143   25.7126 C.3     1  UNL1        0.0063
     19 C          -5.9281  -15.5056   25.8178 C.3     1  UNL1        0.0403
     20 C          -6.7051  -15.8205   27.0616 C.3     1  UNL1        0.0063
     21 C          -8.5048  -16.4802   24.6300 C.2     1  UNL1        0.0740
     22 O          -8.9786  -15.0932   24.3112 O.co2   1  UNL1       -0.5446
     23 O          -9.3401  -17.3782   25.4935 O.co2   1  UNL1       -0.5446
@<TRIPOS>UNITY_ATOM_ATTR
22 1
charge -1
@<TRIPOS>BOND
     1    18    19    1
     2    19    20    1
     3    19     1    1
     4     1     2   ar
     5     2     3   ar
     6     3     4   ar
     7     4     5   ar
     8     5     6   ar
     9     6     7    1
    10     6     8   ar
    11     8     9   ar
    12     9    10   ar
    13    10    12    1
    14    12    13   ar
    15    13    14   ar
    16    14    15   ar
    17    15    16   ar
    18    16    17   ar
    19    10    11   ar
    20    11    21    1
    21    21    22   ar
    22    21    23   ar
    23    11     1   ar
    24     9     3   ar
    25    17    12   ar
@<TRIPOS>MOLECULE
*****
 23 25 0 0 0
SMALL
GASTEIGER

@<TRIPOS>ATOM
      1 C          -5.7490  -16.9299   23.4826 C.ar    1  UNL1        0.0596
      2 N          -4.8451  -17.8696   22.7410 N.ar    1  UNL1       -0.2496
      3 C          -5.4258  -18.8807   21.7973 C.ar    1  UNL1        0.0809
      4 C          -4.5219  -19.8203   21.0557 C.ar    1  UNL1        0.0199
      5 C          -5.1026  -20.8313   20.1120 C.ar    1  UNL1        0.0129
      6 C          -6.5872  -20.9027   19.9099 C.ar    1  UNL1        0.0578
      7 CL         -7.1679  -21.9138   18.9662 Cl      1  UNL1       -0.0822
      8 C          -7.4911  -19.9631   20.6515 C.ar    1  UNL1        0.0129
      9 C          -6.9104  -18.9520   21.5952 C.ar    1  UNL1        0.0185
     10 C          -7.8143  -18.0123   22.3369 C.ar    1  UNL1        0.0037
     11 C          -7.2336  -17.0013   23.2805 C.ar    1  UNL1        0.0276
     12 C          -9.2989  -18.0837   22.1348 C.ar    1  UNL1        0.0001
     13 C          -9.9554  -17.2313   21.0895 C.ar    1  UNL1        0.0000
     14 C         -11.4400  -17.3027   20.8874 C.ar    1  UNL1        0.0000
     15 C         -12.2682  -18.2265   21.7306 C.ar    1  UNL1        0.0000
     16 C         -11.6117  -19.0789   22.7758 C.ar    1  UNL1        0.0000
     17 C         -10.1271  -19.0075   22.9779 C.ar    1  UNL1        0.0000
     18 C          -5.1435  -16.1962   25.9003 C.3     1  UNL1        0.0063
     19 C          -5.1683  -15.9189   24.4264 C.3     1  UNL1        0.0403
     20 C          -4.6125  -14.6305   23.8962 C.3     1  UNL1        0.0063
     21 C          -8.1376  -16.0616   24.0222 C.2     1  UNL1        0.0740
     22 O          -8.9510  -16.5604   25.1796 O.co2   1  UNL1       -0.5446
     23 O          -8.2280  -14.6233   23.6065 O.co2   1  UNL1       -0.5446
@<TRIPOS>UNITY_ATOM_ATTR
22 1
charge -1
@<TRIPOS>BOND
     1    18    19    1
     2    19    20    1
     3    19     1    1
     4     1     2   ar
     5     2     3   ar
     6     3     4   ar
     7     4     5   ar
     8     5     6   ar
     9     6     7    1
    10     6     8   ar
    11     8     9   ar
    12     9    10   ar
    13    10    12    1
    14    12    13   ar
    15    13    14   ar
    16    14    15   ar
    17    15    16   ar
    18    16    17   ar
    19    10    11   ar
    20    11    21    1
    21    21    22   ar
    22    21    23   ar
    23    11     1   ar
    24     9     3   ar
    25    17    12   ar
