@<TRIPOS>MOLECULE
*****
 25 27 0 0 0
SMALL
GASTEIGER

@<TRIPOS>ATOM
      1 C          -2.1946  -18.0569   20.7142 C.ar    1  UNL1        0.1109
      2 C          -2.1307  -16.8415   21.5909 C.ar    1  UNL1        0.1468
      3 F          -1.0881  -15.7920   21.3432 F       1  UNL1       -0.2039
      4 C          -3.1095  -16.6757   22.7155 C.ar    1  UNL1        0.0331
      5 C          -4.1521  -17.7253   22.9632 C.ar    1  UNL1        0.0416
      6 C          -4.2160  -18.9407   22.0864 C.ar    1  UNL1        0.1667
      7 C          -3.2372  -19.1064   20.9619 C.ar    1  UNL1        0.1803
      8 F          -3.3011  -20.3218   20.0851 F       1  UNL1       -0.2007
      9 N          -1.5703  -17.7498   18.2110 N.am    1  UNL1       -0.3252
     10 C          -1.2159  -18.2227   19.5897 C.2     1  UNL1        0.2472
     11 O           0.1174  -18.8614   19.8438 O.2     1  UNL1       -0.2702
     12 H          -0.9279  -17.8586   17.4729 H       1  UNL1        0.1453
     13 H          -2.4454  -17.3305   18.0442 H       1  UNL1        0.1453
     14 O          -5.2586  -19.9902   22.3341 O.3     1  UNL1       -0.4661
     15 C          -6.3000  -20.2734   21.2924 C.3     1  UNL1        0.2575
     16 C          -7.6991  -19.7635   21.4725 C.ar    1  UNL1        0.1321
     17 N          -8.4578  -19.7080   22.7653 N.ar    1  UNL1       -0.2390
     18 C          -9.8128  -19.1297   22.4833 C.ar    1  UNL1        0.0884
     19 C         -10.9850  -18.8391   23.3728 C.ar    1  UNL1        0.0310
     20 C         -12.2360  -18.2465   22.7952 C.ar    1  UNL1        0.0592
     21 CL        -13.4083  -17.9558   23.6848 Cl      1  UNL1       -0.0822
     22 C         -12.3148  -17.9445   21.3281 C.ar    1  UNL1        0.0120
     23 C         -11.1426  -18.2351   20.4385 C.ar    1  UNL1        0.0089
     24 C          -9.8915  -18.8277   21.0161 C.ar    1  UNL1        0.0483
     25 S          -8.5852  -19.2194   20.3914 S.2     1  UNL1       -0.0672
@<TRIPOS>BOND
     1     9    10   am
     2    10    11    2
     3    10     1    1
     4     1     2   ar
     5     2     3    1
     6     2     4   ar
     7     4     5   ar
     8     5     6   ar
     9     6    14    1
    10    14    15    1
    11    15    16    1
    12    16    17   ar
    13    17    18   ar
    14    18    19   ar
    15    19    20   ar
    16    20    21    1
    17    20    22   ar
    18    22    23   ar
    19    23    24   ar
    20    24    25   ar
    21     6     7   ar
    22     7     8    1
    23     7     1   ar
    24    25    16   ar
    25    24    18   ar
    26     9    12    1
    27     9    13    1
@<TRIPOS>MOLECULE
*****
 25 27 0 0 0
SMALL
GASTEIGER

@<TRIPOS>ATOM
      1 C         -11.2265  -18.0363   22.5856 C.ar    1  UNL1        0.1109
      2 C         -11.5496  -18.6946   23.8940 C.ar    1  UNL1        0.1468
      3 F         -12.7608  -18.2681   24.6693 F       1  UNL1       -0.2039
      4 C         -10.6614  -19.7795   24.4273 C.ar    1  UNL1        0.0331
      5 C          -9.4502  -20.2060   23.6521 C.ar    1  UNL1        0.0416
      6 C          -9.1271  -19.5476   22.3435 C.ar    1  UNL1        0.1667
      7 C         -10.0152  -18.4628   21.8103 C.ar    1  UNL1        0.1803
      8 F          -9.6921  -17.8045   20.5018 F       1  UNL1       -0.2007
      9 N         -12.1503  -15.6122   22.7268 N.am    1  UNL1       -0.3252
     10 C         -12.1146  -16.9515   22.0523 C.2     1  UNL1        0.2472
     11 O         -12.9670  -17.2060   20.8445 O.2     1  UNL1       -0.2702
     12 H         -12.7332  -14.9002   22.3768 H       1  UNL1        0.1453
     13 H         -11.5909  -15.4452   23.5195 H       1  UNL1        0.1453
     14 O          -7.9159  -19.9742   21.5683 O.3     1  UNL1       -0.4661
     15 C          -6.5962  -20.1291   22.2642 C.3     1  UNL1        0.2575
     16 C          -5.3440  -19.6099   21.6220 C.ar    1  UNL1        0.1321
     17 N          -4.0345  -19.3674   22.3120 N.ar    1  UNL1       -0.2390
     18 C          -3.0626  -18.8496   21.2934 C.ar    1  UNL1        0.0884
     19 C          -1.6238  -18.4387   21.3970 C.ar    1  UNL1        0.0310
     20 C          -0.8939  -17.9503   20.1810 C.ar    1  UNL1        0.0592
     21 CL          0.5450  -17.5394   20.2846 Cl      1  UNL1       -0.0822
     22 C          -1.6029  -17.8729   18.8614 C.ar    1  UNL1        0.0120
     23 C          -3.0417  -18.2838   18.7578 C.ar    1  UNL1        0.0089
     24 C          -3.7716  -18.7722   19.9738 C.ar    1  UNL1        0.0483
     25 S          -5.1816  -19.2421   20.1769 S.2     1  UNL1       -0.0672
@<TRIPOS>BOND
     1     9    10   am
     2    10    11    2
     3    10     1    1
     4     1     2   ar
     5     2     3    1
     6     2     4   ar
     7     4     5   ar
     8     5     6   ar
     9     6    14    1
    10    14    15    1
    11    15    16    1
    12    16    17   ar
    13    17    18   ar
    14    18    19   ar
    15    19    20   ar
    16    20    21    1
    17    20    22   ar
    18    22    23   ar
    19    23    24   ar
    20    24    25   ar
    21     6     7   ar
    22     7     8    1
    23     7     1   ar
    24    25    16   ar
    25    24    18   ar
    26     9    12    1
    27     9    13    1
@<TRIPOS>MOLECULE
*****
 25 27 0 0 0
SMALL
GASTEIGER

@<TRIPOS>ATOM
      1 C         -12.0738  -18.0771   22.5665 C.ar    1  UNL1        0.1109
      2 C         -12.3267  -16.7331   21.9503 C.ar    1  UNL1        0.1468
      3 F         -13.0473  -15.6739   22.7306 F       1  UNL1       -0.2039
      4 C         -11.8590  -16.4482   20.5538 C.ar    1  UNL1        0.0331
      5 C         -11.1384  -17.5074   19.7735 C.ar    1  UNL1        0.0416
      6 C         -10.8855  -18.8514   20.3898 C.ar    1  UNL1        0.1667
      7 C         -11.3532  -19.1362   21.7862 C.ar    1  UNL1        0.1803
      8 F         -11.1003  -20.4802   22.4024 F       1  UNL1       -0.2007
      9 N         -11.5743  -18.8759   24.9877 N.am    1  UNL1       -0.3252
     10 C         -12.5415  -18.3619   23.9629 C.2     1  UNL1        0.2472
     11 O         -13.9766  -18.1326   24.3347 O.2     1  UNL1       -0.2702
     12 H         -11.8813  -19.0629   25.9042 H       1  UNL1        0.1453
     13 H         -10.6324  -19.0264   24.7437 H       1  UNL1        0.1453
     14 O         -10.1649  -19.9106   19.6095 O.3     1  UNL1       -0.4661
     15 C          -8.7001  -19.7642   19.3217 C.3     1  UNL1        0.2575
     16 C          -7.7895  -19.1648   20.3520 C.ar    1  UNL1        0.1321
     17 N          -8.1053  -17.9923   21.2327 N.ar    1  UNL1       -0.2390
     18 C          -6.9143  -17.7356   22.1076 C.ar    1  UNL1        0.0884
     19 C          -6.6517  -16.7096   23.1698 C.ar    1  UNL1        0.0310
     20 C          -5.3372  -16.6975   23.8922 C.ar    1  UNL1        0.0592
     21 CL         -5.0746  -15.6715   24.9545 Cl      1  UNL1       -0.0822
     22 C          -4.2852  -17.7113   23.5523 C.ar    1  UNL1        0.0120
     23 C          -4.5478  -18.7373   22.4900 C.ar    1  UNL1        0.0089
     24 C          -5.8623  -18.7494   21.7677 C.ar    1  UNL1        0.0483
     25 S          -6.4033  -19.6327   20.6827 S.2     1  UNL1       -0.0672
@<TRIPOS>BOND
     1     9    10   am
     2    10    11    2
     3    10     1    1
     4     1     2   ar
     5     2     3    1
     6     2     4   ar
     7     4     5   ar
     8     5     6   ar
     9     6    14    1
    10    14    15    1
    11    15    16    1
    12    16    17   ar
    13    17    18   ar
    14    18    19   ar
    15    19    20   ar
    16    20    21    1
    17    20    22   ar
    18    22    23   ar
    19    23    24   ar
    20    24    25   ar
    21     6     7   ar
    22     7     8    1
    23     7     1   ar
    24    25    16   ar
    25    24    18   ar
    26     9    12    1
    27     9    13    1
@<TRIPOS>MOLECULE
*****
 25 27 0 0 0
SMALL
GASTEIGER

@<TRIPOS>ATOM
      1 C          -3.3596  -18.5097   21.5243 C.ar    1  UNL1        0.1109
      2 C          -2.6692  -19.3346   20.4789 C.ar    1  UNL1        0.1468
      3 F          -1.2358  -19.0600   20.1328 F       1  UNL1       -0.2039
      4 C          -3.4122  -20.4342   19.7796 C.ar    1  UNL1        0.0331
      5 C          -4.8456  -20.7088   20.1258 C.ar    1  UNL1        0.0416
      6 C          -5.5361  -19.8839   21.1712 C.ar    1  UNL1        0.1667
      7 C          -4.7931  -18.7844   21.8704 C.ar    1  UNL1        0.1803
      8 F          -5.4835  -17.9595   22.9158 F       1  UNL1       -0.2007
      9 N          -1.8014  -17.7148   23.4452 N.am    1  UNL1       -0.3252
     10 C          -2.6166  -17.4102   22.2235 C.2     1  UNL1        0.2472
     11 O          -2.6889  -16.0059   21.7010 O.2     1  UNL1       -0.2702
     12 H          -1.3137  -16.9932   23.9041 H       1  UNL1        0.1453
     13 H          -1.7539  -18.6365   23.7881 H       1  UNL1        0.1453
     14 O          -6.9695  -20.1585   21.5174 O.3     1  UNL1       -0.4661
     15 C          -8.0665  -19.4158   20.8139 C.3     1  UNL1        0.2575
     16 C          -9.3427  -19.1014   21.5367 C.ar    1  UNL1        0.1321
     17 N          -9.6680  -19.4720   22.9533 N.ar    1  UNL1       -0.2390
     18 C         -11.0440  -18.9608   23.2620 C.ar    1  UNL1        0.0884
     19 C         -11.8865  -19.0318   24.5009 C.ar    1  UNL1        0.0310
     20 C         -13.2543  -18.4161   24.5140 C.ar    1  UNL1        0.0592
     21 CL        -14.0969  -18.4871   25.7530 Cl      1  UNL1       -0.0822
     22 C         -13.7794  -17.7295   23.2882 C.ar    1  UNL1        0.0120
     23 C         -12.9368  -17.6585   22.0492 C.ar    1  UNL1        0.0089
     24 C         -11.5691  -18.2741   22.0362 C.ar    1  UNL1        0.0483
     25 S         -10.5177  -18.3610   20.9699 S.2     1  UNL1       -0.0672
@<TRIPOS>BOND
     1     9    10   am
     2    10    11    2
     3    10     1    1
     4     1     2   ar
     5     2     3    1
     6     2     4   ar
     7     4     5   ar
     8     5     6   ar
     9     6    14    1
    10    14    15    1
    11    15    16    1
    12    16    17   ar
    13    17    18   ar
    14    18    19   ar
    15    19    20   ar
    16    20    21    1
    17    20    22   ar
    18    22    23   ar
    19    23    24   ar
    20    24    25   ar
    21     6     7   ar
    22     7     8    1
    23     7     1   ar
    24    25    16   ar
    25    24    18   ar
    26     9    12    1
    27     9    13    1
@<TRIPOS>MOLECULE
*****
 25 27 0 0 0
SMALL
GASTEIGER

@<TRIPOS>ATOM
      1 C          -2.0965  -18.1253   21.0768 C.ar    1  UNL1        0.1109
      2 C          -2.7518  -19.4443   21.3612 C.ar    1  UNL1        0.1468
      3 F          -2.2563  -20.6889   20.6864 F       1  UNL1       -0.2039
      4 C          -3.9026  -19.5186   22.3205 C.ar    1  UNL1        0.0331
      5 C          -4.3980  -18.2740   22.9953 C.ar    1  UNL1        0.0416
      6 C          -3.7427  -16.9550   22.7108 C.ar    1  UNL1        0.1667
      7 C          -2.5919  -16.8807   21.7516 C.ar    1  UNL1        0.1803
      8 F          -1.9366  -15.5618   21.4672 F       1  UNL1       -0.2007
      9 N          -1.1974  -17.7805   18.6638 N.am    1  UNL1       -0.3252
     10 C          -0.9457  -18.0510   20.1175 C.2     1  UNL1        0.2472
     11 O           0.4568  -18.2474   20.6120 O.2     1  UNL1       -0.2702
     12 H          -0.4421  -17.7317   18.0342 H       1  UNL1        0.1453
     13 H          -2.1179  -17.6516   18.3392 H       1  UNL1        0.1453
     14 O          -4.2381  -15.7104   23.3857 O.3     1  UNL1       -0.4661
     15 C          -5.4107  -15.7790   24.3185 C.3     1  UNL1        0.2575
     16 C          -6.7944  -15.9687   23.7713 C.ar    1  UNL1        0.1321
     17 N          -7.2716  -15.5442   22.4140 N.ar    1  UNL1       -0.2390
     18 C          -8.7159  -15.9292   22.2891 C.ar    1  UNL1        0.0884
     19 C          -9.7065  -15.7622   21.1752 C.ar    1  UNL1        0.0310
     20 C         -11.1125  -16.2576   21.3412 C.ar    1  UNL1        0.0592
     21 CL        -12.1031  -16.0906   20.2273 Cl      1  UNL1       -0.0822
     22 C         -11.5279  -16.9201   22.6213 C.ar    1  UNL1        0.0120
     23 C         -10.5374  -17.0872   23.7352 C.ar    1  UNL1        0.0089
     24 C          -9.1314  -16.5917   23.5691 C.ar    1  UNL1        0.0483
     25 S          -7.9438  -16.6161   24.4851 S.2     1  UNL1       -0.0672
@<TRIPOS>BOND
     1     9    10   am
     2    10    11    2
     3    10     1    1
     4     1     2   ar
     5     2     3    1
     6     2     4   ar
     7     4     5   ar
     8     5     6   ar
     9     6    14    1
    10    14    15    1
    11    15    16    1
    12    16    17   ar
    13    17    18   ar
    14    18    19   ar
    15    19    20   ar
    16    20    21    1
    17    20    22   ar
    18    22    23   ar
    19    23    24   ar
    20    24    25   ar
    21     6     7   ar
    22     7     8    1
    23     7     1   ar
    24    25    16   ar
    25    24    18   ar
    26     9    12    1
    27     9    13    1
@<TRIPOS>MOLECULE
*****
 25 27 0 0 0
SMALL
GASTEIGER

@<TRIPOS>ATOM
      1 C         -10.8348  -16.8962   21.3441 C.ar    1  UNL1        0.1109
      2 C         -10.9893  -16.4457   22.7665 C.ar    1  UNL1        0.1468
      3 F         -11.8450  -15.2564   23.0878 F       1  UNL1       -0.2039
      4 C         -10.2880  -17.1845   23.8676 C.ar    1  UNL1        0.0331
      5 C          -9.4323  -18.3738   23.5463 C.ar    1  UNL1        0.0416
      6 C          -9.2778  -18.8243   22.1239 C.ar    1  UNL1        0.1667
      7 C          -9.9790  -18.0855   21.0228 C.ar    1  UNL1        0.1803
      8 F          -9.8245  -18.5360   19.6005 F       1  UNL1       -0.2007
      9 N         -10.7400  -15.3909   19.2287 N.am    1  UNL1       -0.3252
     10 C         -11.5360  -16.1573   20.2431 C.2     1  UNL1        0.2472
     11 O         -13.0333  -16.1849   20.1564 O.2     1  UNL1       -0.2702
     12 H         -11.2003  -14.9060   18.5060 H       1  UNL1        0.1453
     13 H          -9.7573  -15.3728   19.2856 H       1  UNL1        0.1453
     14 O          -8.4221  -20.0136   21.8026 O.3     1  UNL1       -0.4661
     15 C          -7.0949  -20.1875   22.4796 C.3     1  UNL1        0.2575
     16 C          -5.8488  -19.6568   21.8349 C.ar    1  UNL1        0.1321
     17 N          -4.8331  -18.7630   22.4825 N.ar    1  UNL1       -0.2390
     18 C          -3.7562  -18.4804   21.4772 C.ar    1  UNL1        0.0884
     19 C          -2.5020  -17.6612   21.5534 C.ar    1  UNL1        0.0310
     20 C          -1.5980  -17.5612   20.3606 C.ar    1  UNL1        0.0592
     21 CL         -0.3438  -16.7419   20.4368 Cl      1  UNL1       -0.0822
     22 C          -1.9482  -18.2804   19.0917 C.ar    1  UNL1        0.0120
     23 C          -3.2024  -19.0996   19.0156 C.ar    1  UNL1        0.0089
     24 C          -4.1064  -19.1996   20.2083 C.ar    1  UNL1        0.0483
     25 S          -5.3997  -19.9266   20.4294 S.2     1  UNL1       -0.0672
@<TRIPOS>BOND
     1     9    10   am
     2    10    11    2
     3    10     1    1
     4     1     2   ar
     5     2     3    1
     6     2     4   ar
     7     4     5   ar
     8     5     6   ar
     9     6    14    1
    10    14    15    1
    11    15    16    1
    12    16    17   ar
    13    17    18   ar
    14    18    19   ar
    15    19    20   ar
    16    20    21    1
    17    20    22   ar
    18    22    23   ar
    19    23    24   ar
    20    24    25   ar
    21     6     7   ar
    22     7     8    1
    23     7     1   ar
    24    25    16   ar
    25    24    18   ar
    26     9    12    1
    27     9    13    1
@<TRIPOS>MOLECULE
*****
 25 27 0 0 0
SMALL
GASTEIGER

@<TRIPOS>ATOM
      1 C         -12.0530  -18.1278   22.5763 C.ar    1  UNL1        0.1109
      2 C         -12.2694  -16.7937   21.9256 C.ar    1  UNL1        0.1468
      3 F         -12.9846  -15.7042   22.6682 F       1  UNL1       -0.2039
      4 C         -11.7705  -16.5492   20.5322 C.ar    1  UNL1        0.0331
      5 C         -11.0553  -17.6387   19.7896 C.ar    1  UNL1        0.0416
      6 C         -10.8390  -18.9728   20.4404 C.ar    1  UNL1        0.1667
      7 C         -11.3378  -19.2173   21.8337 C.ar    1  UNL1        0.1803
      8 F         -11.1215  -20.5513   22.4844 F       1  UNL1       -0.2007
      9 N         -11.6091  -18.8615   25.0287 N.am    1  UNL1       -0.3252
     10 C         -12.5519  -18.3723   23.9696 C.2     1  UNL1        0.2472
     11 O         -13.9936  -18.1276   24.3038 O.2     1  UNL1       -0.2702
     12 H         -11.9365  -19.0220   25.9432 H       1  UNL1        0.1453
     13 H         -10.6628  -19.0221   24.8094 H       1  UNL1        0.1453
     14 O         -10.1238  -20.0623   19.6979 O.3     1  UNL1       -0.4661
     15 C          -8.8180  -19.7745   19.0181 C.3     1  UNL1        0.2575
     16 C          -7.5981  -19.4694   19.8358 C.ar    1  UNL1        0.1321
     17 N          -6.1782  -19.7433   19.4370 N.ar    1  UNL1       -0.2390
     18 C          -5.2864  -19.2801   20.5506 C.ar    1  UNL1        0.0884
     19 C          -3.7955  -19.2960   20.7152 C.ar    1  UNL1        0.0310
     20 C          -3.1734  -18.7518   21.9669 C.ar    1  UNL1        0.0592
     21 CL         -1.6825  -18.7677   22.1315 Cl      1  UNL1       -0.0822
     22 C          -4.0420  -18.1916   23.0539 C.ar    1  UNL1        0.0120
     23 C          -5.5328  -18.1757   22.8893 C.ar    1  UNL1        0.0089
     24 C          -6.1550  -18.7199   21.6377 C.ar    1  UNL1        0.0483
     25 S          -7.5837  -18.8370   21.1959 S.2     1  UNL1       -0.0672
@<TRIPOS>BOND
     1     9    10   am
     2    10    11    2
     3    10     1    1
     4     1     2   ar
     5     2     3    1
     6     2     4   ar
     7     4     5   ar
     8     5     6   ar
     9     6    14    1
    10    14    15    1
    11    15    16    1
    12    16    17   ar
    13    17    18   ar
    14    18    19   ar
    15    19    20   ar
    16    20    21    1
    17    20    22   ar
    18    22    23   ar
    19    23    24   ar
    20    24    25   ar
    21     6     7   ar
    22     7     8    1
    23     7     1   ar
    24    25    16   ar
    25    24    18   ar
    26     9    12    1
    27     9    13    1
@<TRIPOS>MOLECULE
*****
 25 27 0 0 0
SMALL
GASTEIGER

@<TRIPOS>ATOM
      1 C          -2.2979  -18.2169   20.9839 C.ar    1  UNL1        0.1109
      2 C          -2.4364  -18.3200   22.4739 C.ar    1  UNL1        0.1468
      3 F          -1.2311  -18.1590   23.3521 F       1  UNL1       -0.2039
      4 C          -3.7803  -18.5839   23.0858 C.ar    1  UNL1        0.0331
      5 C          -4.9857  -18.7449   22.2077 C.ar    1  UNL1        0.0416
      6 C          -4.8471  -18.6419   20.7176 C.ar    1  UNL1        0.1667
      7 C          -3.5033  -18.3779   20.1058 C.ar    1  UNL1        0.1803
      8 F          -3.3648  -18.2749   18.6157 F       1  UNL1       -0.2007
      9 N          -0.4031  -16.5581   20.3455 N.am    1  UNL1       -0.3252
     10 C          -0.9541  -17.9530   20.3721 C.2     1  UNL1        0.2472
     11 O          -0.1612  -19.0839   19.7869 O.2     1  UNL1       -0.2702
     12 H           0.4789  -16.3849   19.9439 H       1  UNL1        0.1453
     13 H          -0.9235  -15.8158   20.7295 H       1  UNL1        0.1453
     14 O          -6.0525  -18.8028   19.8394 O.3     1  UNL1       -0.4661
     15 C          -7.0659  -19.8659   20.1441 C.3     1  UNL1        0.2575
     16 C          -8.2173  -19.5648   21.0571 C.ar    1  UNL1        0.1321
     17 N          -9.5253  -18.9512   20.6538 N.ar    1  UNL1       -0.2390
     18 C         -10.3793  -18.8316   21.8811 C.ar    1  UNL1        0.0884
     19 C         -11.7665  -18.3010   22.0909 C.ar    1  UNL1        0.0310
     20 C         -12.3736  -18.3102   23.4625 C.ar    1  UNL1        0.0592
     21 CL        -13.7609  -17.7796   23.6722 Cl      1  UNL1       -0.0822
     22 C         -11.5934  -18.8499   24.6244 C.ar    1  UNL1        0.0120
     23 C         -10.2062  -19.3805   24.4146 C.ar    1  UNL1        0.0089
     24 C          -9.5991  -19.3714   23.0430 C.ar    1  UNL1        0.0483
     25 S          -8.2630  -19.8245   22.5337 S.2     1  UNL1       -0.0672
@<TRIPOS>BOND
     1     9    10   am
     2    10    11    2
     3    10     1    1
     4     1     2   ar
     5     2     3    1
     6     2     4   ar
     7     4     5   ar
     8     5     6   ar
     9     6    14    1
    10    14    15    1
    11    15    16    1
    12    16    17   ar
    13    17    18   ar
    14    18    19   ar
    15    19    20   ar
    16    20    21    1
    17    20    22   ar
    18    22    23   ar
    19    23    24   ar
    20    24    25   ar
    21     6     7   ar
    22     7     8    1
    23     7     1   ar
    24    25    16   ar
    25    24    18   ar
    26     9    12    1
    27     9    13    1
@<TRIPOS>MOLECULE
*****
 25 27 0 0 0
SMALL
GASTEIGER

@<TRIPOS>ATOM
      1 C         -11.2236  -17.7505   22.5522 C.ar    1  UNL1        0.1109
      2 C         -10.5682  -16.4864   23.0239 C.ar    1  UNL1        0.1468
      3 F         -11.4089  -15.3316   23.4819 F       1  UNL1       -0.2039
      4 C          -9.0722  -16.3771   23.0378 C.ar    1  UNL1        0.0331
      5 C          -8.2316  -17.5320   22.5798 C.ar    1  UNL1        0.0416
      6 C          -8.8870  -18.7961   22.1081 C.ar    1  UNL1        0.1667
      7 C         -10.3829  -18.9054   22.0942 C.ar    1  UNL1        0.1803
      8 F         -11.0382  -20.1695   21.6225 F       1  UNL1       -0.2007
      9 N         -13.4649  -18.1117   23.8154 N.am    1  UNL1       -0.3252
     10 C         -12.7195  -17.8598   22.5383 C.2     1  UNL1        0.2472
     11 O         -13.4700  -17.7171   21.2474 O.2     1  UNL1       -0.2702
     12 H         -14.4468  -18.1834   23.8063 H       1  UNL1        0.1453
     13 H         -12.9723  -18.2053   24.6627 H       1  UNL1        0.1453
     14 O          -8.0464  -19.9510   21.6501 O.3     1  UNL1       -0.4661
     15 C          -6.7090  -20.2019   22.2813 C.3     1  UNL1        0.2575
     16 C          -5.4630  -19.6760   21.6325 C.ar    1  UNL1        0.1321
     17 N          -4.1439  -19.4506   22.3101 N.ar    1  UNL1       -0.2390
     18 C          -3.1829  -18.9185   21.2886 C.ar    1  UNL1        0.0884
     19 C          -1.7413  -18.5148   21.3813 C.ar    1  UNL1        0.0310
     20 C          -1.0248  -18.0077   20.1650 C.ar    1  UNL1        0.0592
     21 CL          0.4169  -17.6039   20.2576 Cl      1  UNL1       -0.0822
     22 C          -1.7500  -17.9043   18.8560 C.ar    1  UNL1        0.0120
     23 C          -3.1917  -18.3080   18.7633 C.ar    1  UNL1        0.0089
     24 C          -3.9081  -18.8151   19.9796 C.ar    1  UNL1        0.0483
     25 S          -5.3173  -19.2833   20.1922 S.2     1  UNL1       -0.0672
@<TRIPOS>BOND
     1     9    10   am
     2    10    11    2
     3    10     1    1
     4     1     2   ar
     5     2     3    1
     6     2     4   ar
     7     4     5   ar
     8     5     6   ar
     9     6    14    1
    10    14    15    1
    11    15    16    1
    12    16    17   ar
    13    17    18   ar
    14    18    19   ar
    15    19    20   ar
    16    20    21    1
    17    20    22   ar
    18    22    23   ar
    19    23    24   ar
    20    24    25   ar
    21     6     7   ar
    22     7     8    1
    23     7     1   ar
    24    25    16   ar
    25    24    18   ar
    26     9    12    1
    27     9    13    1
