@<TRIPOS>MOLECULE
*****
 29 32 0 0 0
SMALL
GASTEIGER

@<TRIPOS>ATOM
      1 C          -7.5779  -17.2051   23.0333 C.3     1  UNL1        0.0510
      2 C          -8.7881  -17.4406   22.1789 C.3     1  UNL1        0.0489
      3 C         -10.1358  -16.9722   22.6421 C.3     1  UNL1        0.1364
      4 C          -9.9984  -17.6760   21.3246 C.3     1  UNL1        0.0571
      5 C         -11.2086  -17.9115   20.4704 C.3     1  UNL1        0.0722
      6 N         -12.5562  -17.4430   20.9335 N.3     1  UNL1       -0.2973
      7 C         -12.6936  -16.7392   22.2509 C.3     1  UNL1        0.0722
      8 C         -11.4834  -16.5037   23.1052 C.3     1  UNL1        0.0571
      9 O         -10.2731  -16.2682   23.9596 O.3     1  UNL1       -0.4828
     10 C          -9.0629  -16.0328   24.8138 C.ar    1  UNL1        0.1345
     11 C          -9.2002  -15.3289   26.1313 C.ar    1  UNL1        0.0366
     12 C          -7.9900  -15.0935   26.9856 C.ar    1  UNL1        0.0031
     13 C          -6.6424  -15.5619   26.5225 C.ar    1  UNL1       -0.0001
     14 C          -6.5050  -16.2658   25.2051 C.ar    1  UNL1       -0.0010
     15 C          -7.7153  -16.5012   24.3507 C.ar    1  UNL1        0.0156
     16 H         -13.1558  -18.2671   20.9760 H       1  UNL1        0.1233
     17 C          -3.5350  -18.6104   21.6439 C.ar    1  UNL1        0.0536
     18 C          -4.7791  -19.1843   21.0333 C.ar    1  UNL1        0.0042
     19 C          -6.1267  -18.7158   21.4965 C.ar    1  UNL1       -0.0038
     20 C          -6.2302  -17.6735   22.5702 C.ar    1  UNL1       -0.0182
     21 C          -4.9861  -17.0996   23.1808 C.ar    1  UNL1       -0.0038
     22 C          -3.6385  -17.5681   22.7177 C.ar    1  UNL1        0.0042
     23 N          -1.3946  -18.2467   20.2170 N.am    1  UNL1       -0.2761
     24 C          -2.1874  -19.0788   21.1808 C.2     1  UNL1        0.2490
     25 O          -1.6326  -20.3795   21.6815 O.2     1  UNL1       -0.2699
     26 C           1.1843  -17.9438   20.1270 C.3     1  UNL1        0.0233
     27 C          -0.0469  -18.7152   19.7538 C.3     1  UNL1        0.0938
     28 C          -1.9494  -16.9461   19.7162 C.3     1  UNL1        0.0938
     29 C          -2.7817  -16.9164   18.4687 C.3     1  UNL1        0.0233
@<TRIPOS>BOND
     1    26    27    1
     2    27    23    1
     3    23    28    1
     4    28    29    1
     5    23    24   am
     6    24    25    2
     7    24    17    1
     8    17    18   ar
     9    18    19   ar
    10    19    20   ar
    11    20     1    1
    12     1     2    1
    13     2     3    1
    14     3     4    1
    15     4     5    1
    16     5     6    1
    17     6     7    1
    18     7     8    1
    19     3     9    1
    20     9    10    1
    21    10    11   ar
    22    11    12   ar
    23    12    13   ar
    24    13    14   ar
    25    14    15   ar
    26    20    21   ar
    27    21    22   ar
    28    22    17   ar
    29    15     1    1
    30     8     3    1
    31    15    10   ar
    32     6    16    1
@<TRIPOS>MOLECULE
*****
 29 32 0 0 0
SMALL
GASTEIGER

@<TRIPOS>ATOM
      1 C           6.7435   -3.7819   25.2533 C.3     1  UNL1        0.0510
      2 C           6.4267   -3.1656   26.5837 C.3     1  UNL1        0.0489
      3 C           6.7746   -3.8925   27.8489 C.3     1  UNL1        0.1364
      4 C           6.1099   -2.5494   27.9141 C.3     1  UNL1        0.0571
      5 C           5.7931   -1.9332   29.2445 C.3     1  UNL1        0.0722
      6 N           6.1410   -2.6601   30.5096 N.3     1  UNL1       -0.2973
      7 C           6.8057   -4.0032   30.4444 C.3     1  UNL1        0.0722
      8 C           7.1225   -4.6194   29.1141 C.3     1  UNL1        0.0571
      9 O           7.4394   -5.2356   27.7837 O.3     1  UNL1       -0.4828
     10 C           7.7562   -5.8518   26.4533 C.ar    1  UNL1        0.1345
     11 C           8.4209   -7.1950   26.3881 C.ar    1  UNL1        0.0366
     12 C           8.7377   -7.8112   25.0577 C.ar    1  UNL1        0.0031
     13 C           8.3898   -7.0843   23.7925 C.ar    1  UNL1       -0.0001
     14 C           7.7251   -5.7412   23.8577 C.ar    1  UNL1       -0.0010
     15 C           7.4083   -5.1250   25.1881 C.ar    1  UNL1        0.0156
     16 H           5.2701   -2.7873   31.0251 H       1  UNL1        0.1233
     17 C           5.6998   -1.6013   21.4579 C.ar    1  UNL1        0.0536
     18 C           4.6663   -2.4399   22.1495 C.ar    1  UNL1        0.0042
     19 C           5.0142   -3.1668   23.4147 C.ar    1  UNL1       -0.0038
     20 C           6.3956   -3.0550   23.9882 C.ar    1  UNL1       -0.0182
     21 C           7.4293   -2.2164   23.2965 C.ar    1  UNL1       -0.0038
     22 C           7.0814   -1.4895   22.0314 C.ar    1  UNL1        0.0042
     23 N           5.4347   -1.5834   18.8734 N.am    1  UNL1       -0.2761
     24 C           5.3519   -0.8744   20.1927 C.2     1  UNL1        0.2490
     25 O           4.9212    0.5614   20.2469 O.2     1  UNL1       -0.2699
     26 C           3.6693   -0.8411   17.1177 C.3     1  UNL1        0.0233
     27 C           5.0867   -0.8565   17.6083 C.3     1  UNL1        0.0938
     28 C           5.8653   -3.0193   18.8193 C.3     1  UNL1        0.0938
     29 C           4.8367   -4.1085   18.7458 C.3     1  UNL1        0.0233
@<TRIPOS>BOND
     1    26    27    1
     2    27    23    1
     3    23    28    1
     4    28    29    1
     5    23    24   am
     6    24    25    2
     7    24    17    1
     8    17    18   ar
     9    18    19   ar
    10    19    20   ar
    11    20     1    1
    12     1     2    1
    13     2     3    1
    14     3     4    1
    15     4     5    1
    16     5     6    1
    17     6     7    1
    18     7     8    1
    19     3     9    1
    20     9    10    1
    21    10    11   ar
    22    11    12   ar
    23    12    13   ar
    24    13    14   ar
    25    14    15   ar
    26    20    21   ar
    27    21    22   ar
    28    22    17   ar
    29    15     1    1
    30     8     3    1
    31    15    10   ar
    32     6    16    1
@<TRIPOS>MOLECULE
*****
 29 32 0 0 0
SMALL
GASTEIGER

@<TRIPOS>ATOM
      1 C           2.2902   -0.0525   22.4970 C.3     1  UNL1        0.0510
      2 C           3.1609   -1.2681   22.3772 C.3     1  UNL1        0.0489
      3 C           3.4475   -1.8551   21.0269 C.3     1  UNL1        0.1364
      4 C           4.0315   -2.4836   22.2573 C.3     1  UNL1        0.0571
      5 C           4.9021   -3.6992   22.1374 C.3     1  UNL1        0.0722
      6 N           5.1887   -4.2862   20.7871 N.3     1  UNL1       -0.2973
      7 C           4.6047   -3.6577   19.5568 C.3     1  UNL1        0.0722
      8 C           3.7341   -2.4422   19.6766 C.3     1  UNL1        0.0571
      9 O           2.8634   -1.2266   19.7965 O.3     1  UNL1       -0.4828
     10 C           1.9928   -0.0110   19.9164 C.ar    1  UNL1        0.1345
     11 C           1.4088    0.6176   18.6859 C.ar    1  UNL1        0.0366
     12 C           0.5382    1.8331   18.8058 C.ar    1  UNL1        0.0031
     13 C           0.2515    2.4202   20.1561 C.ar    1  UNL1       -0.0001
     14 C           0.8355    1.7917   21.3865 C.ar    1  UNL1       -0.0010
     15 C           1.7062    0.5760   21.2666 C.ar    1  UNL1        0.0156
     16 H           4.8591   -5.2512   20.8096 H       1  UNL1        0.1233
     17 C           1.4303    1.7087   26.5478 C.ar    1  UNL1        0.0536
     18 C           2.8255    1.2860   26.1946 C.ar    1  UNL1        0.0042
     19 C           3.1121    0.6989   24.8443 C.ar    1  UNL1       -0.0038
     20 C           2.0036    0.5346   23.8473 C.ar    1  UNL1       -0.0182
     21 C           0.6083    0.9573   24.2005 C.ar    1  UNL1       -0.0038
     22 C           0.3217    1.5444   25.5508 C.ar    1  UNL1        0.0042
     23 N           0.5895    1.4297   28.9901 N.am    1  UNL1       -0.2761
     24 C           1.1437    2.2957   27.8981 C.2     1  UNL1        0.2490
     25 O           1.4114    3.7490   28.1562 O.2     1  UNL1       -0.2699
     26 C           1.3285    1.9251   31.4312 C.3     1  UNL1        0.0233
     27 C           0.3028    2.0167   30.3404 C.3     1  UNL1        0.0938
     28 C           0.3218   -0.0236   28.7320 C.3     1  UNL1        0.0938
     29 C          -1.0871   -0.5382   28.7317 C.3     1  UNL1        0.0233
@<TRIPOS>BOND
     1    26    27    1
     2    27    23    1
     3    23    28    1
     4    28    29    1
     5    23    24   am
     6    24    25    2
     7    24    17    1
     8    17    18   ar
     9    18    19   ar
    10    19    20   ar
    11    20     1    1
    12     1     2    1
    13     2     3    1
    14     3     4    1
    15     4     5    1
    16     5     6    1
    17     6     7    1
    18     7     8    1
    19     3     9    1
    20     9    10    1
    21    10    11   ar
    22    11    12   ar
    23    12    13   ar
    24    13    14   ar
    25    14    15   ar
    26    20    21   ar
    27    21    22   ar
    28    22    17   ar
    29    15     1    1
    30     8     3    1
    31    15    10   ar
    32     6    16    1
@<TRIPOS>MOLECULE
*****
 29 32 0 0 0
SMALL
GASTEIGER

@<TRIPOS>ATOM
      1 C           3.3874   -1.0835   21.8119 C.3     1  UNL1        0.0510
      2 C           3.7683   -1.2839   23.2488 C.3     1  UNL1        0.0489
      3 C           4.8583   -2.2498   23.6081 C.3     1  UNL1        0.1364
      4 C           4.1492   -1.4844   24.6857 C.3     1  UNL1        0.0571
      5 C           4.5301   -1.6848   26.1226 C.3     1  UNL1        0.0722
      6 N           5.6201   -2.6507   26.4819 N.3     1  UNL1       -0.2973
      7 C           6.3291   -3.4162   25.4043 C.3     1  UNL1        0.0722
      8 C           5.9482   -3.2157   23.9674 C.3     1  UNL1        0.0571
      9 O           5.5673   -3.0153   22.5304 O.3     1  UNL1       -0.4828
     10 C           5.1864   -2.8149   21.0935 C.ar    1  UNL1        0.1345
     11 C           5.8955   -3.5803   20.0158 C.ar    1  UNL1        0.0366
     12 C           5.5146   -3.3799   18.5789 C.ar    1  UNL1        0.0031
     13 C           4.4246   -2.4140   18.2197 C.ar    1  UNL1       -0.0001
     14 C           3.7156   -1.6485   19.2973 C.ar    1  UNL1       -0.0010
     15 C           4.0965   -1.8490   20.7342 C.ar    1  UNL1        0.0156
     16 H           5.2072   -3.3403   27.1099 H       1  UNL1        0.1233
     17 C           0.1176    1.8142   20.7340 C.ar    1  UNL1        0.0536
     18 C           1.2821    2.2713   21.5615 C.ar    1  UNL1        0.0042
     19 C           2.3721    1.3054   21.9208 C.ar    1  UNL1       -0.0038
     20 C           2.2975   -0.1176   21.4526 C.ar    1  UNL1       -0.0182
     21 C           1.1329   -0.5749   20.6250 C.ar    1  UNL1       -0.0038
     22 C           0.0430    0.3910   20.2658 C.ar    1  UNL1        0.0042
     23 N          -0.8739    3.5870   19.1142 N.am    1  UNL1       -0.2761
     24 C          -0.9723    2.7800   20.3748 C.2     1  UNL1        0.2490
     25 O          -2.1608    2.9390   21.2761 O.2     1  UNL1       -0.2699
     26 C          -3.1543    4.0832   17.9724 C.3     1  UNL1        0.0233
     27 C          -1.9638    4.5529   18.7549 C.3     1  UNL1        0.0938
     28 C           0.3146    3.4281   18.2128 C.3     1  UNL1        0.0938
     29 C           1.1258    4.6279   17.8227 C.3     1  UNL1        0.0233
@<TRIPOS>BOND
     1    26    27    1
     2    27    23    1
     3    23    28    1
     4    28    29    1
     5    23    24   am
     6    24    25    2
     7    24    17    1
     8    17    18   ar
     9    18    19   ar
    10    19    20   ar
    11    20     1    1
    12     1     2    1
    13     2     3    1
    14     3     4    1
    15     4     5    1
    16     5     6    1
    17     6     7    1
    18     7     8    1
    19     3     9    1
    20     9    10    1
    21    10    11   ar
    22    11    12   ar
    23    12    13   ar
    24    13    14   ar
    25    14    15   ar
    26    20    21   ar
    27    21    22   ar
    28    22    17   ar
    29    15     1    1
    30     8     3    1
    31    15    10   ar
    32     6    16    1
@<TRIPOS>MOLECULE
*****
 29 32 0 0 0
SMALL
GASTEIGER

@<TRIPOS>ATOM
      1 C          -1.5742    3.0952   26.1559 C.3     1  UNL1        0.0510
      2 C          -2.8663    3.8160   26.4034 C.3     1  UNL1        0.0489
      3 C          -3.6643    4.3432   25.2479 C.3     1  UNL1        0.1364
      4 C          -4.1583    4.5367   26.6509 C.3     1  UNL1        0.0571
      5 C          -5.4503    5.2574   26.8984 C.3     1  UNL1        0.0722
      6 N          -6.2483    5.7846   25.7428 N.3     1  UNL1       -0.2973
      7 C          -5.7543    5.5911   24.3398 C.3     1  UNL1        0.0722
      8 C          -4.4623    4.8704   24.0924 C.3     1  UNL1        0.0571
      9 O          -3.1702    4.1497   23.8448 O.3     1  UNL1       -0.4828
     10 C          -1.8782    3.4290   23.5974 C.ar    1  UNL1        0.1345
     11 C          -1.3841    3.2355   22.1943 C.ar    1  UNL1        0.0366
     12 C          -0.0921    2.5148   21.9468 C.ar    1  UNL1        0.0031
     13 C           0.7059    1.9875   23.1024 C.ar    1  UNL1       -0.0001
     14 C           0.2119    2.1810   24.5054 C.ar    1  UNL1       -0.0010
     15 C          -1.0802    2.9018   24.7529 C.ar    1  UNL1        0.0156
     16 H          -6.3438    6.7900   25.8853 H       1  UNL1        0.1233
     17 C           0.8197    1.5136   29.6225 C.ar    1  UNL1        0.0536
     18 C          -0.2987    0.6956   29.0481 C.ar    1  UNL1        0.0042
     19 C          -1.0967    1.2228   27.8926 C.ar    1  UNL1       -0.0038
     20 C          -0.7762    2.5680   27.3115 C.ar    1  UNL1       -0.0182
     21 C           0.3423    3.3861   27.8859 C.ar    1  UNL1       -0.0038
     22 C           1.1402    2.8589   29.0414 C.ar    1  UNL1        0.0042
     23 N           2.6800   -0.0470   30.5466 N.am    1  UNL1       -0.2761
     24 C           1.6177    0.9864   30.7781 C.2     1  UNL1        0.2490
     25 O           1.3534    1.4926   32.1652 O.2     1  UNL1       -0.2699
     26 C           4.7530   -1.3242   31.4530 C.3     1  UNL1        0.0233
     27 C           3.4780   -0.5742   31.7021 C.3     1  UNL1        0.0938
     28 C           2.9444   -0.5532   29.1595 C.3     1  UNL1        0.0938
     29 C           3.8388    0.2202   28.2366 C.3     1  UNL1        0.0233
@<TRIPOS>BOND
     1    26    27    1
     2    27    23    1
     3    23    28    1
     4    28    29    1
     5    23    24   am
     6    24    25    2
     7    24    17    1
     8    17    18   ar
     9    18    19   ar
    10    19    20   ar
    11    20     1    1
    12     1     2    1
    13     2     3    1
    14     3     4    1
    15     4     5    1
    16     5     6    1
    17     6     7    1
    18     7     8    1
    19     3     9    1
    20     9    10    1
    21    10    11   ar
    22    11    12   ar
    23    12    13   ar
    24    13    14   ar
    25    14    15   ar
    26    20    21   ar
    27    21    22   ar
    28    22    17   ar
    29    15     1    1
    30     8     3    1
    31    15    10   ar
    32     6    16    1
@<TRIPOS>MOLECULE
*****
 29 32 0 0 0
SMALL
GASTEIGER

@<TRIPOS>ATOM
      1 C          -1.2731    3.0000   25.3318 C.3     1  UNL1        0.0510
      2 C          -0.5470    2.7665   24.0402 C.3     1  UNL1        0.0489
      3 C          -1.2070    3.1063   22.7367 C.3     1  UNL1        0.1364
      4 C           0.1791    2.5331   22.7486 C.3     1  UNL1        0.0571
      5 C           0.9051    2.2996   21.4570 C.3     1  UNL1        0.0722
      6 N           0.2451    2.6394   20.1535 N.3     1  UNL1       -0.2973
      7 C          -1.1409    3.2126   20.1417 C.3     1  UNL1        0.0722
      8 C          -1.8670    3.4460   21.4333 C.3     1  UNL1        0.0571
      9 O          -2.5931    3.6795   22.7249 O.3     1  UNL1       -0.4828
     10 C          -3.3192    3.9130   24.0165 C.ar    1  UNL1        0.1345
     11 C          -4.7053    4.4863   24.0047 C.ar    1  UNL1        0.0366
     12 C          -5.4314    4.7197   25.2963 C.ar    1  UNL1        0.0031
     13 C          -4.7714    4.3800   26.5998 C.ar    1  UNL1       -0.0001
     14 C          -3.3853    3.8067   26.6116 C.ar    1  UNL1       -0.0010
     15 C          -2.6592    3.5732   25.3200 C.ar    1  UNL1        0.0156
     16 H           0.2126    1.7788   19.6069 H       1  UNL1        0.1233
     17 C           0.7069    1.9807   29.2422 C.ar    1  UNL1        0.0536
     18 C           0.0166    0.9105   28.4496 C.ar    1  UNL1        0.0042
     19 C          -0.6434    1.2503   27.1462 C.ar    1  UNL1       -0.0038
     20 C          -0.6131    2.6603   26.6353 C.ar    1  UNL1       -0.0182
     21 C           0.0771    3.7306   27.4278 C.ar    1  UNL1       -0.0038
     22 C           0.7371    3.3908   28.7313 C.ar    1  UNL1        0.0042
     23 N           2.8185    1.2645   30.5755 N.am    1  UNL1       -0.2761
     24 C           1.3669    1.6410   30.5456 C.2     1  UNL1        0.2490
     25 O           0.5751    1.6777   31.8192 O.2     1  UNL1       -0.2699
     26 C           3.6386   -0.5098   32.2871 C.3     1  UNL1        0.0233
     27 C           3.4785    0.9248   31.8790 C.3     1  UNL1        0.0938
     28 C           3.6103    1.2279   29.3020 C.3     1  UNL1        0.0938
     29 C           3.7586   -0.0603   28.5479 C.3     1  UNL1        0.0233
@<TRIPOS>BOND
     1    26    27    1
     2    27    23    1
     3    23    28    1
     4    28    29    1
     5    23    24   am
     6    24    25    2
     7    24    17    1
     8    17    18   ar
     9    18    19   ar
    10    19    20   ar
    11    20     1    1
    12     1     2    1
    13     2     3    1
    14     3     4    1
    15     4     5    1
    16     5     6    1
    17     6     7    1
    18     7     8    1
    19     3     9    1
    20     9    10    1
    21    10    11   ar
    22    11    12   ar
    23    12    13   ar
    24    13    14   ar
    25    14    15   ar
    26    20    21   ar
    27    21    22   ar
    28    22    17   ar
    29    15     1    1
    30     8     3    1
    31    15    10   ar
    32     6    16    1
@<TRIPOS>MOLECULE
*****
 29 32 0 0 0
SMALL
GASTEIGER

@<TRIPOS>ATOM
      1 C           2.6406   -0.2194   22.4366 C.3     1  UNL1        0.0510
      2 C           2.7103    0.0861   23.9036 C.3     1  UNL1        0.0489
      3 C           3.4863   -0.8122   24.8206 C.3     1  UNL1        0.1364
      4 C           2.7801    0.3915   25.3704 C.3     1  UNL1        0.0571
      5 C           2.8499    0.6969   26.8373 C.3     1  UNL1        0.0722
      6 N           3.6258   -0.2014   27.7544 N.3     1  UNL1       -0.2973
      7 C           4.3320   -1.4051   27.2045 C.3     1  UNL1        0.0722
      8 C           4.2623   -1.7105   25.7376 C.3     1  UNL1        0.0571
      9 O           4.1925   -2.0159   24.2707 O.3     1  UNL1       -0.4828
     10 C           4.1227   -2.3213   22.8038 C.ar    1  UNL1        0.1345
     11 C           4.8290   -3.5251   22.2539 C.ar    1  UNL1        0.0366
     12 C           4.7592   -3.8305   20.7870 C.ar    1  UNL1        0.0031
     13 C           3.9832   -2.9322   19.8699 C.ar    1  UNL1       -0.0001
     14 C           3.2770   -1.7285   20.4198 C.ar    1  UNL1       -0.0010
     15 C           3.3468   -1.4230   21.8867 C.ar    1  UNL1        0.0156
     16 H           2.9703   -0.5406   28.4584 H       1  UNL1        0.1233
     17 C           0.3127    2.4755   19.6855 C.ar    1  UNL1        0.0536
     18 C           1.5866    2.9617   20.3105 C.ar    1  UNL1        0.0042
     19 C           2.3626    2.0634   21.2276 C.ar    1  UNL1       -0.0038
     20 C           1.8646    0.6789   21.5195 C.ar    1  UNL1       -0.0182
     21 C           0.5907    0.1927   20.8945 C.ar    1  UNL1       -0.0038
     22 C          -0.1853    1.0910   19.9774 C.ar    1  UNL1        0.0042
     23 N          -1.7408    4.0031   19.2392 N.am    1  UNL1       -0.2761
     24 C          -0.4633    3.3738   18.7684 C.2     1  UNL1        0.2490
     25 O           0.0384    3.6427   17.3806 O.2     1  UNL1       -0.2699
     26 C          -3.4247    4.3103   17.2845 C.3     1  UNL1        0.0233
     27 C          -2.5168    4.9014   18.3221 C.3     1  UNL1        0.0938
     28 C          -2.2425    3.7342   20.6270 C.3     1  UNL1        0.0938
     29 C          -3.6283    3.1984   20.8329 C.3     1  UNL1        0.0233
@<TRIPOS>BOND
     1    26    27    1
     2    27    23    1
     3    23    28    1
     4    28    29    1
     5    23    24   am
     6    24    25    2
     7    24    17    1
     8    17    18   ar
     9    18    19   ar
    10    19    20   ar
    11    20     1    1
    12     1     2    1
    13     2     3    1
    14     3     4    1
    15     4     5    1
    16     5     6    1
    17     6     7    1
    18     7     8    1
    19     3     9    1
    20     9    10    1
    21    10    11   ar
    22    11    12   ar
    23    12    13   ar
    24    13    14   ar
    25    14    15   ar
    26    20    21   ar
    27    21    22   ar
    28    22    17   ar
    29    15     1    1
    30     8     3    1
    31    15    10   ar
    32     6    16    1
@<TRIPOS>MOLECULE
*****
 29 32 0 0 0
SMALL
GASTEIGER

@<TRIPOS>ATOM
      1 C           4.4561    0.0039   33.4234 C.3     1  UNL1        0.0510
      2 C           4.6151    0.4604   34.8435 C.3     1  UNL1        0.0489
      3 C           3.6747    1.4810   35.4128 C.3     1  UNL1        0.1364
      4 C           4.7740    0.9170   36.2634 C.3     1  UNL1        0.0571
      5 C           4.9329    1.3736   37.6833 C.3     1  UNL1        0.0722
      6 N           3.9925    2.3942   38.2526 N.3     1  UNL1       -0.2973
      7 C           2.8933    2.9582   37.4020 C.3     1  UNL1        0.0722
      8 C           2.7344    2.5016   35.9821 C.3     1  UNL1        0.0571
      9 O           2.5755    2.0451   34.5621 O.3     1  UNL1       -0.4828
     10 C           2.4166    1.5885   33.1422 C.ar    1  UNL1        0.1345
     11 C           1.3173    2.1525   32.2915 C.ar    1  UNL1        0.0366
     12 C           1.1584    1.6959   30.8716 C.ar    1  UNL1        0.0031
     13 C           2.0987    0.6753   30.3023 C.ar    1  UNL1       -0.0001
     14 C           3.1980    0.1113   31.1529 C.ar    1  UNL1       -0.0010
     15 C           3.3569    0.5679   32.5729 C.ar    1  UNL1        0.0156
     16 H           4.5632    3.1829   38.5573 H       1  UNL1        0.1233
     17 C           7.2771   -3.0579   31.7155 C.ar    1  UNL1        0.0536
     18 C           6.0571   -3.4996   32.4681 C.ar    1  UNL1        0.0042
     19 C           5.1168   -2.4790   33.0374 C.ar    1  UNL1       -0.0038
     20 C           5.3965   -1.0167   32.8541 C.ar    1  UNL1       -0.0182
     21 C           6.6165   -0.5751   32.1014 C.ar    1  UNL1       -0.0038
     22 C           7.5569   -1.5957   31.5321 C.ar    1  UNL1        0.0042
     23 N           7.8674   -4.7945   29.8754 N.am    1  UNL1       -0.2761
     24 C           8.2175   -4.0785   31.1461 C.2     1  UNL1        0.2490
     25 O           9.5079   -4.3832   31.8476 O.2     1  UNL1       -0.2699
     26 C           8.2680   -6.9931   28.5503 C.3     1  UNL1        0.0233
     27 C           8.8078   -5.8151   29.3060 C.3     1  UNL1        0.0938
     28 C           6.5770   -4.4898   29.1739 C.3     1  UNL1        0.0938
     29 C           6.5242   -3.4064   28.1379 C.3     1  UNL1        0.0233
@<TRIPOS>BOND
     1    26    27    1
     2    27    23    1
     3    23    28    1
     4    28    29    1
     5    23    24   am
     6    24    25    2
     7    24    17    1
     8    17    18   ar
     9    18    19   ar
    10    19    20   ar
    11    20     1    1
    12     1     2    1
    13     2     3    1
    14     3     4    1
    15     4     5    1
    16     5     6    1
    17     6     7    1
    18     7     8    1
    19     3     9    1
    20     9    10    1
    21    10    11   ar
    22    11    12   ar
    23    12    13   ar
    24    13    14   ar
    25    14    15   ar
    26    20    21   ar
    27    21    22   ar
    28    22    17   ar
    29    15     1    1
    30     8     3    1
    31    15    10   ar
    32     6    16    1
@<TRIPOS>MOLECULE
*****
 29 32 0 0 0
SMALL
GASTEIGER

@<TRIPOS>ATOM
      1 C           5.9020   -2.1620   30.3345 C.3     1  UNL1        0.0510
      2 C           5.4896   -1.3706   29.1289 C.3     1  UNL1        0.0489
      3 C           5.7008   -1.9328   27.7544 C.3     1  UNL1        0.1364
      4 C           5.0771   -0.5792   27.9233 C.3     1  UNL1        0.0571
      5 C           4.6647    0.2122   26.7177 C.3     1  UNL1        0.0722
      6 N           4.8760   -0.3500   25.3432 N.3     1  UNL1       -0.2973
      7 C           5.4997   -1.7037   25.1743 C.3     1  UNL1        0.0722
      8 C           5.9121   -2.4951   26.3799 C.3     1  UNL1        0.0571
      9 O           6.3245   -3.2866   27.5855 O.3     1  UNL1       -0.4828
     10 C           6.7370   -4.0780   28.7911 C.ar    1  UNL1        0.1345
     11 C           7.3607   -5.4317   28.6223 C.ar    1  UNL1        0.0366
     12 C           7.7731   -6.2231   29.8279 C.ar    1  UNL1        0.0031
     13 C           7.5618   -5.6609   31.2024 C.ar    1  UNL1       -0.0001
     14 C           6.9382   -4.3072   31.3713 C.ar    1  UNL1       -0.0010
     15 C           6.5257   -3.5157   30.1656 C.ar    1  UNL1        0.0156
     16 H           5.4687    0.3119   24.8422 H       1  UNL1        0.1233
     17 C           5.2682   -0.4753   34.4580 C.ar    1  UNL1        0.0536
     18 C           6.4187    0.0009   33.6216 C.ar    1  UNL1        0.0042
     19 C           6.6300   -0.5614   32.2471 C.ar    1  UNL1       -0.0038
     20 C           5.6908   -1.5998   31.7090 C.ar    1  UNL1       -0.0182
     21 C           4.5402   -2.0760   32.5455 C.ar    1  UNL1       -0.0038
     22 C           4.3290   -1.5138   33.9200 C.ar    1  UNL1        0.0042
     23 N           4.0883    1.2130   36.0415 N.am    1  UNL1       -0.2761
     24 C           5.0570    0.0870   35.8325 C.2     1  UNL1        0.2490
     25 O           5.8145   -0.4768   36.9980 O.2     1  UNL1       -0.2699
     26 C           2.9375    1.0960   38.3679 C.3     1  UNL1        0.0233
     27 C           3.8770    1.7752   37.4160 C.3     1  UNL1        0.0938
     28 C           3.3308    1.7768   34.8760 C.3     1  UNL1        0.0938
     29 C           2.3930    2.9299   35.0780 C.3     1  UNL1        0.0233
@<TRIPOS>BOND
     1    26    27    1
     2    27    23    1
     3    23    28    1
     4    28    29    1
     5    23    24   am
     6    24    25    2
     7    24    17    1
     8    17    18   ar
     9    18    19   ar
    10    19    20   ar
    11    20     1    1
    12     1     2    1
    13     2     3    1
    14     3     4    1
    15     4     5    1
    16     5     6    1
    17     6     7    1
    18     7     8    1
    19     3     9    1
    20     9    10    1
    21    10    11   ar
    22    11    12   ar
    23    12    13   ar
    24    13    14   ar
    25    14    15   ar
    26    20    21   ar
    27    21    22   ar
    28    22    17   ar
    29    15     1    1
    30     8     3    1
    31    15    10   ar
    32     6    16    1
