@<TRIPOS>MOLECULE
*****
 29 31 0 0 0
SMALL
GASTEIGER

@<TRIPOS>ATOM
      1 C          -7.1474  -18.6174   21.0794 C.2     1  UNL1        0.2420
      2 O          -8.6007  -18.7180   20.7220 O.2     1  UNL1       -0.2734
      3 N          -6.7284  -17.8780   22.3155 N.am    1  UNL1       -0.2760
      4 C          -5.2751  -17.7775   22.6729 C.3     1  UNL1        0.0983
      5 C          -4.8561  -17.0382   23.9089 C.3     1  UNL1        0.0476
      6 C          -5.8904  -16.3993   24.7876 C.ar    1  UNL1       -0.0229
      7 C          -5.4715  -15.6600   26.0237 C.ar    1  UNL1       -0.0045
      8 C          -6.5058  -15.0212   26.9023 C.ar    1  UNL1       -0.0003
      9 C          -7.9591  -15.1217   26.5449 C.ar    1  UNL1       -0.0003
     10 C          -8.3781  -15.8611   25.3089 C.ar    1  UNL1       -0.0030
     11 C          -7.3438  -16.4999   24.4303 C.ar    1  UNL1       -0.0082
     12 C          -7.7627  -17.2392   23.1942 C.3     1  UNL1        0.0975
     13 C          -9.2161  -17.3398   22.8368 C.3     1  UNL1        0.0224
     14 C         -10.0398  -18.4793   23.3593 C.3     1  UNL1        0.0020
     15 C         -11.4932  -18.5798   23.0019 C.3     1  UNL1        0.0001
     16 C         -12.1227  -17.5408   22.1220 C.3     1  UNL1        0.0000
     17 C         -11.2990  -16.4014   21.5995 C.3     1  UNL1        0.0001
     18 C          -9.8457  -16.3009   21.9569 C.3     1  UNL1        0.0020
     19 C          -6.1130  -19.2562   20.2008 C.3     0  ACE0        0.1552
     20 N          -5.0293  -18.4196   19.5880 N.3     1  UNL1       -0.2889
     21 H          -5.2298  -18.3635   18.5894 H       1  UNL1        0.1237
     22 CA         -3.5946  -18.8374   19.7189 C.3     1  UNL1        0.0840
     23 C          -3.2510  -20.1491   20.3603 C.3     1  UNL1        0.1527
     24 O          -2.1316  -20.2267   21.3558 O.3     1  UNL1       -0.3806
     25 H          -1.2902  -20.0379   20.9116 H       1  UNL1        0.2105
     26 CB         -2.5036  -17.9436   19.2084 C.3     1  UNL1        0.0183
     27 CD1        -0.0432  -17.6423   19.9867 C.3     1  UNL1        0.0000
     28 CG         -1.5055  -17.3581   20.1628 C.3     1  UNL1        0.0014
     29 CD2        -1.9697  -16.4886   21.2935 C.3     1  UNL1        0.0000
@<TRIPOS>BOND
     1    27    28    1
     2    28    29    1
     3    28    26    1
     4    22    26    1
     5    22    23    1
     6    23    24    1
     7    22    20    1
     8    20    19    1
     9    19     1    1
    10     1     2    2
    11     1     3   am
    12     3     4    1
    13     4     5    1
    14     5     6    1
    15     6     7   ar
    16     7     8   ar
    17     8     9   ar
    18     9    10   ar
    19    10    11   ar
    20    11    12    1
    21    12    13    1
    22    13    14    1
    23    14    15    1
    24    15    16    1
    25    16    17    1
    26    17    18    1
    27    12     3    1
    28    18    13    1
    29    11     6   ar
    30    24    25    1
    31    20    21    1
@<TRIPOS>MOLECULE
*****
 29 31 0 0 0
SMALL
GASTEIGER

@<TRIPOS>ATOM
      1 C          -6.2769  -18.5071   22.3609 C.2     1  UNL1        0.2420
      2 O          -5.8040  -17.7572   23.5709 O.2     1  UNL1       -0.2734
      3 N          -7.6891  -18.3442   21.8821 N.am    1  UNL1       -0.2760
      4 C          -8.1619  -19.0940   20.6720 C.3     1  UNL1        0.0983
      5 C          -9.5741  -18.9311   20.1932 C.3     1  UNL1        0.0476
      6 C         -10.5134  -18.0184   20.9244 C.ar    1  UNL1       -0.0229
      7 C         -11.9256  -17.8555   20.4456 C.ar    1  UNL1       -0.0045
      8 C         -12.8648  -16.9428   21.1768 C.ar    1  UNL1       -0.0003
      9 C         -12.3920  -16.1930   22.3869 C.ar    1  UNL1       -0.0003
     10 C         -10.9799  -16.3559   22.8657 C.ar    1  UNL1       -0.0030
     11 C         -10.0406  -17.2686   22.1345 C.ar    1  UNL1       -0.0082
     12 C          -8.6284  -17.4315   22.6133 C.3     1  UNL1        0.0975
     13 C          -8.1555  -16.6817   23.8233 C.3     1  UNL1        0.0224
     14 C          -8.6077  -17.1022   25.1904 C.3     1  UNL1        0.0020
     15 C          -8.1349  -16.3524   26.4004 C.3     1  UNL1        0.0001
     16 C          -7.2098  -15.1820   26.2434 C.3     1  UNL1        0.0000
     17 C          -6.7576  -14.7615   24.8764 C.3     1  UNL1        0.0001
     18 C          -7.2305  -15.5114   23.6664 C.3     1  UNL1        0.0020
     19 C          -5.3376  -19.4197   21.6297 C.3     0  ACE0        0.1552
     20 N          -3.9892  -19.7290   22.2094 N.3     1  UNL1       -0.2889
     21 H          -4.0921  -19.7040   23.2239 H       1  UNL1        0.1237
     22 CA         -2.8113  -18.8636   21.8721 C.3     1  UNL1        0.0840
     23 C          -2.5213  -17.6398   22.6896 C.3     1  UNL1        0.1527
     24 O          -3.3025  -16.3805   22.4579 O.3     1  UNL1       -0.3806
     25 H          -3.1045  -16.0354   21.5732 H       1  UNL1        0.2105
     26 CB         -1.9236  -19.2218   20.7174 C.3     1  UNL1        0.0183
     27 CD1        -2.2916  -17.5467   18.7658 C.3     1  UNL1        0.0000
     28 CG         -1.3998  -18.1465   19.8122 C.3     1  UNL1        0.0014
     29 CD2         0.0158  -17.6709   19.9535 C.3     1  UNL1        0.0000
@<TRIPOS>BOND
     1    27    28    1
     2    28    29    1
     3    28    26    1
     4    22    26    1
     5    22    23    1
     6    23    24    1
     7    22    20    1
     8    20    19    1
     9    19     1    1
    10     1     2    2
    11     1     3   am
    12     3     4    1
    13     4     5    1
    14     5     6    1
    15     6     7   ar
    16     7     8   ar
    17     8     9   ar
    18     9    10   ar
    19    10    11   ar
    20    11    12    1
    21    12    13    1
    22    13    14    1
    23    14    15    1
    24    15    16    1
    25    16    17    1
    26    17    18    1
    27    12     3    1
    28    18    13    1
    29    11     6   ar
    30    24    25    1
    31    20    21    1
@<TRIPOS>MOLECULE
*****
 29 31 0 0 0
SMALL
GASTEIGER

@<TRIPOS>ATOM
      1 C          -6.2900  -18.4416   21.9288 C.2     1  UNL1        0.2420
      2 O          -5.7574  -17.6224   23.0669 O.2     1  UNL1       -0.2734
      3 N          -7.7578  -18.4310   21.6195 N.am    1  UNL1       -0.2760
      4 C          -8.2904  -19.2503   20.4814 C.3     1  UNL1        0.0983
      5 C          -9.7580  -19.2397   20.1721 C.3     1  UNL1        0.0476
      6 C         -10.6933  -18.4099   21.0010 C.ar    1  UNL1       -0.0229
      7 C         -12.1610  -18.3993   20.6917 C.ar    1  UNL1       -0.0045
      8 C         -13.0961  -17.5696   21.5205 C.ar    1  UNL1       -0.0003
      9 C         -12.5635  -16.7504   22.6586 C.ar    1  UNL1       -0.0003
     10 C         -11.0958  -16.7609   22.9679 C.ar    1  UNL1       -0.0030
     11 C         -10.1607  -17.5907   22.1391 C.ar    1  UNL1       -0.0082
     12 C          -8.6929  -17.6013   22.4483 C.3     1  UNL1        0.0975
     13 C          -8.1604  -16.7821   23.5864 C.3     1  UNL1        0.0224
     14 C          -7.3614  -15.5431   23.3093 C.3     1  UNL1        0.0020
     15 C          -6.8289  -14.7239   24.4474 C.3     1  UNL1        0.0001
     16 C          -7.0952  -15.1437   25.8627 C.3     1  UNL1        0.0000
     17 C          -7.8941  -16.3826   26.1398 C.3     1  UNL1        0.0001
     18 C          -8.4267  -17.2018   25.0017 C.3     1  UNL1        0.0020
     19 C          -5.3549  -19.2714   21.1000 C.3     0  ACE0        0.1552
     20 N          -4.6056  -18.6453   19.9614 N.3     1  UNL1       -0.2889
     21 H          -4.8945  -19.1346   19.1143 H       1  UNL1        0.1237
     22 CA         -3.1056  -18.6359   19.9656 C.3     1  UNL1        0.0840
     23 C          -2.3527  -18.5140   18.6740 C.3     1  UNL1        0.1527
     24 O          -1.0482  -17.7747   18.6331 O.3     1  UNL1       -0.3806
     25 H          -1.2028  -16.8355   18.8201 H       1  UNL1        0.2105
     26 CB         -2.3585  -18.7483   21.2615 C.3     1  UNL1        0.0183
     27 CD1        -2.0617  -16.2033   21.6917 C.3     1  UNL1        0.0000
     28 CG         -2.3228  -17.5866   22.2097 C.3     1  UNL1        0.0014
     29 CD2        -2.5483  -17.8082   23.6760 C.3     1  UNL1        0.0000
@<TRIPOS>BOND
     1    27    28    1
     2    28    29    1
     3    28    26    1
     4    22    26    1
     5    22    23    1
     6    23    24    1
     7    22    20    1
     8    20    19    1
     9    19     1    1
    10     1     2    2
    11     1     3   am
    12     3     4    1
    13     4     5    1
    14     5     6    1
    15     6     7   ar
    16     7     8   ar
    17     8     9   ar
    18     9    10   ar
    19    10    11   ar
    20    11    12    1
    21    12    13    1
    22    13    14    1
    23    14    15    1
    24    15    16    1
    25    16    17    1
    26    17    18    1
    27    12     3    1
    28    18    13    1
    29    11     6   ar
    30    24    25    1
    31    20    21    1
@<TRIPOS>MOLECULE
*****
 29 31 0 0 0
SMALL
GASTEIGER

@<TRIPOS>ATOM
      1 C           5.7515   -3.0297   23.2328 C.2     1  UNL1        0.2420
      2 O           6.0701   -3.9508   22.0926 O.2     1  UNL1       -0.2734
      3 N           4.6326   -2.0387   23.1062 N.am    1  UNL1       -0.2760
      4 C           4.3139   -1.1176   24.2465 C.3     1  UNL1        0.0983
      5 C           3.1951   -0.1266   24.1199 C.3     1  UNL1        0.0476
      6 C           2.3948   -0.0567   22.8531 C.ar    1  UNL1       -0.0229
      7 C           1.2759    0.9343   22.7266 C.ar    1  UNL1       -0.0045
      8 C           0.4757    1.0042   21.4598 C.ar    1  UNL1       -0.0003
      9 C           0.7943    0.0832   20.3196 C.ar    1  UNL1       -0.0003
     10 C           1.9132   -0.9078   20.4461 C.ar    1  UNL1       -0.0030
     11 C           2.7134   -0.9778   21.7129 C.ar    1  UNL1       -0.0082
     12 C           3.8323   -1.9688   21.8395 C.3     1  UNL1        0.0975
     13 C           4.1510   -2.8899   20.6993 C.3     1  UNL1        0.0224
     14 C           3.5814   -4.2774   20.6743 C.3     1  UNL1        0.0020
     15 C           3.9000   -5.1984   19.5341 C.3     1  UNL1        0.0001
     16 C           4.7882   -4.7320   18.4188 C.3     1  UNL1        0.0000
     17 C           5.3577   -3.3446   18.4439 C.3     1  UNL1        0.0001
     18 C           5.0391   -2.4235   19.5841 C.3     1  UNL1        0.0020
     19 C           6.5517   -3.0997   24.4996 C.3     0  ACE0        0.1552
     20 N           6.1444   -4.0424   25.5928 N.3     1  UNL1       -0.2889
     21 H           5.8087   -3.4687   26.3665 H       1  UNL1        0.1237
     22 CA          7.1445   -5.0017   26.1672 C.3     1  UNL1        0.0840
     23 C           6.8350   -5.7363   27.4379 C.3     1  UNL1        0.1527
     24 O           5.4132   -5.8812   27.8932 O.3     1  UNL1       -0.3806
     25 H           5.0555   -5.0083   28.1191 H       1  UNL1        0.2105
     26 CB          8.4539   -5.2264   25.4709 C.3     1  UNL1        0.0183
     27 CD1         8.2321   -7.6387   24.5320 C.3     1  UNL1        0.0000
     28 CG          8.5367   -6.1852   24.3204 C.3     1  UNL1        0.0014
     29 CD2         8.9240   -5.6907   22.9583 C.3     1  UNL1        0.0000
@<TRIPOS>BOND
     1    27    28    1
     2    28    29    1
     3    28    26    1
     4    22    26    1
     5    22    23    1
     6    23    24    1
     7    22    20    1
     8    20    19    1
     9    19     1    1
    10     1     2    2
    11     1     3   am
    12     3     4    1
    13     4     5    1
    14     5     6    1
    15     6     7   ar
    16     7     8   ar
    17     8     9   ar
    18     9    10   ar
    19    10    11   ar
    20    11    12    1
    21    12    13    1
    22    13    14    1
    23    14    15    1
    24    15    16    1
    25    16    17    1
    26    17    18    1
    27    12     3    1
    28    18    13    1
    29    11     6   ar
    30    24    25    1
    31    20    21    1
@<TRIPOS>MOLECULE
*****
 29 31 0 0 0
SMALL
GASTEIGER

@<TRIPOS>ATOM
      1 C           7.1683   -1.6705   21.1092 C.2     1  UNL1        0.2420
      2 O           6.3950   -0.7621   22.0186 O.2     1  UNL1       -0.2734
      3 N           7.6029   -3.0225   21.5922 N.am    1  UNL1       -0.2760
      4 C           8.3762   -3.9309   20.6828 C.3     1  UNL1        0.0983
      5 C           8.8108   -5.2828   21.1658 C.3     1  UNL1        0.0476
      6 C           8.4722   -5.7265   22.5581 C.ar    1  UNL1       -0.0229
      7 C           8.9068   -7.0784   23.0410 C.ar    1  UNL1       -0.0045
      8 C           8.5682   -7.5220   24.4333 C.ar    1  UNL1       -0.0003
      9 C           7.7949   -6.6137   25.3427 C.ar    1  UNL1       -0.0003
     10 C           7.3603   -5.2617   24.8598 C.ar    1  UNL1       -0.0030
     11 C           7.6989   -4.8181   23.4675 C.ar    1  UNL1       -0.0082
     12 C           7.2643   -3.4661   22.9845 C.3     1  UNL1        0.0975
     13 C           6.4910   -2.5577   23.8939 C.3     1  UNL1        0.0224
     14 C           7.2174   -1.6160   24.8080 C.3     1  UNL1        0.0020
     15 C           6.4442   -0.7076   25.7173 C.3     1  UNL1        0.0001
     16 C           4.9445   -0.7410   25.7126 C.3     1  UNL1        0.0000
     17 C           4.2182   -1.6827   24.7985 C.3     1  UNL1        0.0001
     18 C           4.9914   -2.5911   23.8891 C.3     1  UNL1        0.0020
     19 C           7.5069   -1.2269   19.7169 C.3     0  ACE0        0.1552
     20 N           6.4772   -0.5249   18.8822 N.3     1  UNL1       -0.2889
     21 H           5.9173    0.0412   19.5198 H       1  UNL1        0.1237
     22 CA          5.5149   -1.3214   18.0517 C.3     1  UNL1        0.0840
     23 C           4.5145   -0.6188   17.1824 C.3     1  UNL1        0.1527
     24 O           3.7162   -1.3964   16.1784 O.3     1  UNL1       -0.3806
     25 H           4.3089   -1.7453   15.4944 H       1  UNL1        0.2105
     26 CB          5.5531   -2.8204   18.0904 C.3     1  UNL1        0.0183
     27 CD1         4.4698   -5.0542   18.8564 C.3     1  UNL1        0.0000
     28 CG          4.6324   -3.5706   19.0066 C.3     1  UNL1        0.0014
     29 CD2         3.8742   -2.8372   20.0731 C.3     1  UNL1        0.0000
@<TRIPOS>BOND
     1    27    28    1
     2    28    29    1
     3    28    26    1
     4    22    26    1
     5    22    23    1
     6    23    24    1
     7    22    20    1
     8    20    19    1
     9    19     1    1
    10     1     2    2
    11     1     3   am
    12     3     4    1
    13     4     5    1
    14     5     6    1
    15     6     7   ar
    16     7     8   ar
    17     8     9   ar
    18     9    10   ar
    19    10    11   ar
    20    11    12    1
    21    12    13    1
    22    13    14    1
    23    14    15    1
    24    15    16    1
    25    16    17    1
    26    17    18    1
    27    12     3    1
    28    18    13    1
    29    11     6   ar
    30    24    25    1
    31    20    21    1
@<TRIPOS>MOLECULE
*****
 29 31 0 0 0
SMALL
GASTEIGER

@<TRIPOS>ATOM
      1 C           5.9895   -3.5533   23.5798 C.2     1  UNL1        0.2420
      2 O           6.2564   -4.3184   22.3176 O.2     1  UNL1       -0.2734
      3 N           4.9377   -2.4841   23.6006 N.am    1  UNL1       -0.2760
      4 C           4.6708   -1.7189   24.8628 C.3     1  UNL1        0.0983
      5 C           3.6190   -0.6497   24.8836 C.3     1  UNL1        0.0476
      6 C           2.8341   -0.3456   23.6421 C.ar    1  UNL1       -0.0229
      7 C           1.7823    0.7237   23.6628 C.ar    1  UNL1       -0.0045
      8 C           0.9974    1.0278   22.4213 C.ar    1  UNL1       -0.0003
      9 C           1.2643    0.2626   21.1590 C.ar    1  UNL1       -0.0003
     10 C           2.3161   -0.8066   21.1382 C.ar    1  UNL1       -0.0030
     11 C           3.1009   -1.1107   22.3798 C.ar    1  UNL1       -0.0082
     12 C           4.1528   -2.1800   22.3590 C.3     1  UNL1        0.0975
     13 C           4.4197   -2.9451   21.0968 C.3     1  UNL1        0.0224
     14 C           3.7071   -4.2398   20.8396 C.3     1  UNL1        0.0020
     15 C           3.9740   -5.0049   19.5773 C.3     1  UNL1        0.0001
     16 C           4.9535   -4.4753   18.5722 C.3     1  UNL1        0.0000
     17 C           5.6660   -3.1807   18.8293 C.3     1  UNL1        0.0001
     18 C           5.3991   -2.4155   20.0916 C.3     1  UNL1        0.0020
     19 C           6.7744   -3.8574   24.8214 C.3     0  ACE0        0.1552
     20 N           6.4859   -5.1037   25.6046 N.3     1  UNL1       -0.2889
     21 H           6.4948   -4.8408   26.5901 H       1  UNL1        0.1237
     22 CA          7.3807   -6.2998   25.4674 C.3     1  UNL1        0.0840
     23 C           8.4924   -6.2932   24.4605 C.3     1  UNL1        0.1527
     24 O           8.1909   -6.5203   23.0088 O.3     1  UNL1       -0.3806
     25 H           7.8644   -7.4252   22.8841 H       1  UNL1        0.2105
     26 CB          7.1636   -7.5025   26.3371 C.3     1  UNL1        0.0183
     27 CD1         8.6631   -9.2184   27.5850 C.3     1  UNL1        0.0000
     28 CG          8.1378   -7.8217   27.4321 C.3     1  UNL1        0.0014
     29 CD2         8.5866   -6.7443   28.3743 C.3     1  UNL1        0.0000
@<TRIPOS>BOND
     1    27    28    1
     2    28    29    1
     3    28    26    1
     4    22    26    1
     5    22    23    1
     6    23    24    1
     7    22    20    1
     8    20    19    1
     9    19     1    1
    10     1     2    2
    11     1     3   am
    12     3     4    1
    13     4     5    1
    14     5     6    1
    15     6     7   ar
    16     7     8   ar
    17     8     9   ar
    18     9    10   ar
    19    10    11   ar
    20    11    12    1
    21    12    13    1
    22    13    14    1
    23    14    15    1
    24    15    16    1
    25    16    17    1
    26    17    18    1
    27    12     3    1
    28    18    13    1
    29    11     6   ar
    30    24    25    1
    31    20    21    1
@<TRIPOS>MOLECULE
*****
 29 31 0 0 0
SMALL
GASTEIGER

@<TRIPOS>ATOM
      1 C           6.1280   -3.7357   23.5890 C.2     1  UNL1        0.2420
      2 O           6.3344   -4.4583   22.2909 O.2     1  UNL1       -0.2734
      3 N           5.1018   -2.6460   23.6859 N.am    1  UNL1       -0.2760
      4 C           4.8954   -1.9234   24.9841 C.3     1  UNL1        0.0983
      5 C           3.8692   -0.8337   25.0810 C.3     1  UNL1        0.0476
      6 C           3.0493   -0.4665   23.8797 C.ar    1  UNL1       -0.0229
      7 C           2.0231    0.6231   23.9767 C.ar    1  UNL1       -0.0045
      8 C           1.2033    0.9903   22.7754 C.ar    1  UNL1       -0.0003
      9 C           1.4096    0.2677   21.4772 C.ar    1  UNL1       -0.0003
     10 C           2.4358   -0.8220   21.3803 C.ar    1  UNL1       -0.0030
     11 C           3.2557   -1.1891   22.5816 C.ar    1  UNL1       -0.0082
     12 C           4.2819   -2.2789   22.4847 C.3     1  UNL1        0.0975
     13 C           4.4883   -3.0015   21.1865 C.3     1  UNL1        0.0224
     14 C           3.7198   -4.2566   20.8964 C.3     1  UNL1        0.0020
     15 C           3.9262   -4.9792   19.5982 C.3     1  UNL1        0.0001
     16 C           4.9011   -4.4466   18.5901 C.3     1  UNL1        0.0000
     17 C           5.6695   -3.1916   18.8803 C.3     1  UNL1        0.0001
     18 C           5.4631   -2.4690   20.1785 C.3     1  UNL1        0.0020
     19 C           6.9479   -4.1028   24.7903 C.3     0  ACE0        0.1552
     20 N           6.4502   -5.1444   25.7481 N.3     1  UNL1       -0.2889
     21 H           5.9790   -4.6480   26.5043 H       1  UNL1        0.1237
     22 CA          7.4162   -6.0955   26.3903 C.3     1  UNL1        0.0840
     23 C           7.4741   -7.5247   25.9387 C.3     1  UNL1        0.1527
     24 O           6.5451   -8.5387   26.5376 O.3     1  UNL1       -0.3806
     25 H           6.7572   -8.6566   27.4767 H       1  UNL1        0.2105
     26 CB          8.3243   -5.6173   27.4842 C.3     1  UNL1        0.0183
     27 CD1         9.0924   -6.9287   29.5914 C.3     1  UNL1        0.0000
     28 CG          8.0886   -6.0548   28.8995 C.3     1  UNL1        0.0014
     29 CD2         6.8492   -5.6184   29.6229 C.3     1  UNL1        0.0000
@<TRIPOS>BOND
     1    27    28    1
     2    28    29    1
     3    28    26    1
     4    22    26    1
     5    22    23    1
     6    23    24    1
     7    22    20    1
     8    20    19    1
     9    19     1    1
    10     1     2    2
    11     1     3   am
    12     3     4    1
    13     4     5    1
    14     5     6    1
    15     6     7   ar
    16     7     8   ar
    17     8     9   ar
    18     9    10   ar
    19    10    11   ar
    20    11    12    1
    21    12    13    1
    22    13    14    1
    23    14    15    1
    24    15    16    1
    25    16    17    1
    26    17    18    1
    27    12     3    1
    28    18    13    1
    29    11     6   ar
    30    24    25    1
    31    20    21    1
@<TRIPOS>MOLECULE
*****
 29 31 0 0 0
SMALL
GASTEIGER

@<TRIPOS>ATOM
      1 C           3.6902    1.6998   34.1465 C.2     1  UNL1        0.2420
      2 O           4.8691    0.7780   34.2493 O.2     1  UNL1       -0.2734
      3 N           2.7939    1.6399   32.9452 N.am    1  UNL1       -0.2760
      4 C           1.6150    2.5618   32.8424 C.3     1  UNL1        0.0983
      5 C           0.7187    2.5019   31.6411 C.3     1  UNL1        0.0476
      6 C           1.0012    1.5203   30.5427 C.ar    1  UNL1       -0.0229
      7 C           0.1049    1.4605   29.3414 C.ar    1  UNL1       -0.0045
      8 C           0.3874    0.4788   28.2430 C.ar    1  UNL1       -0.0003
      9 C           1.5663   -0.4430   28.3459 C.ar    1  UNL1       -0.0003
     10 C           2.4626   -0.3832   29.5471 C.ar    1  UNL1       -0.0030
     11 C           2.1801    0.5985   30.6455 C.ar    1  UNL1       -0.0082
     12 C           3.0764    0.6583   31.8468 C.3     1  UNL1        0.0975
     13 C           4.2552   -0.2635   31.9496 C.3     1  UNL1        0.0224
     14 C           4.1041   -1.6041   32.6054 C.3     1  UNL1        0.0020
     15 C           5.2829   -2.5259   32.7082 C.3     1  UNL1        0.0001
     16 C           6.6129   -2.1071   32.1552 C.3     1  UNL1        0.0000
     17 C           6.7641   -0.7666   31.4995 C.3     1  UNL1        0.0001
     18 C           5.5852    0.1552   31.3967 C.3     1  UNL1        0.0020
     19 C           3.4077    2.6814   35.2449 C.3     0  ACE0        0.1552
     20 N           2.4987    2.3005   36.3756 N.3     1  UNL1       -0.2889
     21 H           1.9243    3.1183   36.5800 H       1  UNL1        0.1237
     22 CA          3.0775    1.8407   37.6809 C.3     1  UNL1        0.0840
     23 C           4.3243    1.0069   37.6963 C.3     1  UNL1        0.1527
     24 O           4.3590   -0.3038   36.9677 O.3     1  UNL1       -0.3806
     25 H           3.7436   -0.9242   37.3889 H       1  UNL1        0.2105
     26 CB          2.4094    2.2148   38.9708 C.3     1  UNL1        0.0183
     27 CD1         1.1415    0.0421   39.6201 C.3     1  UNL1        0.0000
     28 CG          1.1451    1.5241   39.3884 C.3     1  UNL1        0.0014
     29 CD2        -0.1156    2.3154   39.5743 C.3     1  UNL1        0.0000
@<TRIPOS>BOND
     1    27    28    1
     2    28    29    1
     3    28    26    1
     4    22    26    1
     5    22    23    1
     6    23    24    1
     7    22    20    1
     8    20    19    1
     9    19     1    1
    10     1     2    2
    11     1     3   am
    12     3     4    1
    13     4     5    1
    14     5     6    1
    15     6     7   ar
    16     7     8   ar
    17     8     9   ar
    18     9    10   ar
    19    10    11   ar
    20    11    12    1
    21    12    13    1
    22    13    14    1
    23    14    15    1
    24    15    16    1
    25    16    17    1
    26    17    18    1
    27    12     3    1
    28    18    13    1
    29    11     6   ar
    30    24    25    1
    31    20    21    1
@<TRIPOS>MOLECULE
*****
 29 31 0 0 0
SMALL
GASTEIGER

@<TRIPOS>ATOM
      1 C           5.2444    0.5495   35.2125 C.2     1  UNL1        0.2420
      2 O           6.2119   -0.5458   34.8744 O.2     1  UNL1       -0.2734
      3 N           4.1550    0.9122   34.2472 N.am    1  UNL1       -0.2760
      4 C           3.1875    2.0075   34.5853 C.3     1  UNL1        0.0983
      5 C           2.0980    2.3702   33.6201 C.3     1  UNL1        0.0476
      6 C           1.9761    1.6376   32.3168 C.ar    1  UNL1       -0.0229
      7 C           0.8867    2.0003   31.3516 C.ar    1  UNL1       -0.0045
      8 C           0.7648    1.2677   30.0484 C.ar    1  UNL1       -0.0003
      9 C           1.7323    0.1724   29.7104 C.ar    1  UNL1       -0.0003
     10 C           2.8217   -0.1903   30.6755 C.ar    1  UNL1       -0.0030
     11 C           2.9436    0.5423   31.9787 C.ar    1  UNL1       -0.0082
     12 C           4.0331    0.1796   32.9440 C.3     1  UNL1        0.0975
     13 C           5.0006   -0.9157   32.6059 C.3     1  UNL1        0.0224
     14 C           6.2759   -0.5937   31.8848 C.3     1  UNL1        0.0020
     15 C           7.2435   -1.6889   31.5468 C.3     1  UNL1        0.0001
     16 C           6.9356   -3.1062   31.9298 C.3     1  UNL1        0.0000
     17 C           5.6603   -3.4282   32.6509 C.3     1  UNL1        0.0001
     18 C           4.6928   -2.3329   32.9889 C.3     1  UNL1        0.0020
     19 C           5.3663    1.2821   36.5157 C.3     0  ACE0        0.1552
     20 N           4.5105    0.8854   37.6819 N.3     1  UNL1       -0.2889
     21 H           3.9085    0.1271   37.3609 H       1  UNL1        0.1237
     22 CA          3.6190    1.8984   38.3369 C.3     1  UNL1        0.0840
     23 C           4.2066    2.9423   39.2397 C.3     1  UNL1        0.1527
     24 O           5.2008    2.5502   40.2921 O.3     1  UNL1       -0.3806
     25 H           4.7670    1.9890   40.9538 H       1  UNL1        0.2105
     26 CB          2.1399    1.8675   38.0892 C.3     1  UNL1        0.0183
     27 CD1         1.3707   -0.0194   39.7011 C.3     1  UNL1        0.0000
     28 CG          1.2111    1.3691   39.1563 C.3     1  UNL1        0.0014
     29 CD2         0.1225    2.2591   39.6787 C.3     1  UNL1        0.0000
@<TRIPOS>BOND
     1    27    28    1
     2    28    29    1
     3    28    26    1
     4    22    26    1
     5    22    23    1
     6    23    24    1
     7    22    20    1
     8    20    19    1
     9    19     1    1
    10     1     2    2
    11     1     3   am
    12     3     4    1
    13     4     5    1
    14     5     6    1
    15     6     7   ar
    16     7     8   ar
    17     8     9   ar
    18     9    10   ar
    19    10    11   ar
    20    11    12    1
    21    12    13    1
    22    13    14    1
    23    14    15    1
    24    15    16    1
    25    16    17    1
    26    17    18    1
    27    12     3    1
    28    18    13    1
    29    11     6   ar
    30    24    25    1
    31    20    21    1
