@<TRIPOS>MOLECULE
*****
 29 31 0 0 0
SMALL
GASTEIGER

@<TRIPOS>ATOM
      1 C          -7.9358  -17.8080   21.8741 C.ar    1  UNL1        0.1730
      2 C          -6.5054  -18.2115   22.0760 C.ar    1  UNL1        0.0401
      3 C          -5.9251  -19.3418   21.2786 C.ar    1  UNL1        0.0039
      4 C          -6.7754  -20.0686   20.2792 C.ar    1  UNL1        0.0034
      5 C          -8.2059  -19.6651   20.0773 C.ar    1  UNL1        0.0406
      6 C          -8.7861  -18.5348   20.8747 C.ar    1  UNL1        0.1790
      7 C          -4.4946  -19.7453   21.4806 C.2     1  UNL1        0.0113
      8 C          -3.4290  -19.2113   20.5700 C.2     1  UNL1        0.0873
      9 S          -3.6412  -18.2711   19.4206 S.3     1  UNL1       -0.0254
     10 C          -2.3074  -18.0024   18.7891 C.2     1  UNL1        0.2832
     11 O          -2.0547  -17.1154   17.6062 O.2     1  UNL1       -0.2622
     12 N          -1.2708  -18.7766   19.5481 N.am    1  UNL1       -0.2425
     13 C          -1.9640  -19.5237   20.6487 C.2     1  UNL1        0.2583
     14 O          -1.3074  -20.4250   21.6520 O.2     1  UNL1       -0.2692
     15 H          -0.3051  -18.7917   19.3573 H       1  UNL1        0.1587
     16 C          -7.6086  -15.6852   23.3357 C.3     1  UNL1        0.2526
     17 O          -8.5161  -16.6778   22.6715 O.3     1  UNL1       -0.4684
     18 O         -10.2167  -18.1313   20.6727 O.3     1  UNL1       -0.4499
     19 C         -11.1916  -18.2310   21.8082 C.ar    1  UNL1        0.1515
     20 C         -10.9989  -19.2698   22.8732 C.ar    1  UNL1        0.0379
     21 C         -11.9738  -19.3695   24.0087 C.ar    1  UNL1        0.0070
     22 C         -13.1414  -18.4305   24.0795 C.ar    1  UNL1        0.0721
     23 C         -13.3341  -17.3918   23.0146 C.ar    1  UNL1        0.0136
     24 C         -12.3592  -17.2920   21.8790 C.ar    1  UNL1        0.0690
     25 BR        -12.5519  -16.2533   20.8141 Br      1  UNL1       -0.0458
     26 C         -14.1163  -18.5302   25.2150 C.3     1  UNL1        0.4186
     27 F         -15.0912  -18.6299   26.3507 F       1  UNL1       -0.1659
     28 F         -12.9769  -18.5720   26.1896 F       1  UNL1       -0.1659
     29 F         -15.2558  -18.4884   24.2405 F       1  UNL1       -0.1659
@<TRIPOS>BOND
     1    16    17    1
     2    17     1    1
     3     1     2   ar
     4     2     3   ar
     5     3     7    1
     6     7     8    2
     7     8     9    1
     8     9    10    1
     9    10    11    2
    10    10    12   am
    11    12    13   am
    12    13    14    2
    13     3     4   ar
    14     4     5   ar
    15     5     6   ar
    16     6    18    1
    17    18    19    1
    18    19    20   ar
    19    20    21   ar
    20    21    22   ar
    21    22    26    1
    22    26    27    1
    23    26    28    1
    24    26    29    1
    25    22    23   ar
    26    23    24   ar
    27    24    25    1
    28     6     1   ar
    29    24    19   ar
    30    13     8    1
    31    12    15    1
@<TRIPOS>MOLECULE
*****
 29 31 0 0 0
SMALL
GASTEIGER

@<TRIPOS>ATOM
      1 C          -6.6252  -17.5923   22.6843 C.ar    1  UNL1        0.1730
      2 C          -7.9748  -17.0761   22.2816 C.ar    1  UNL1        0.0401
      3 C          -8.9030  -17.9447   21.4853 C.ar    1  UNL1        0.0039
      4 C          -8.4817  -19.3294   21.0918 C.ar    1  UNL1        0.0034
      5 C          -7.1321  -19.8456   21.4944 C.ar    1  UNL1        0.0406
      6 C          -6.2039  -18.9770   22.2907 C.ar    1  UNL1        0.1790
      7 C         -10.2527  -17.4285   21.0827 C.2     1  UNL1        0.0113
      8 C         -11.4235  -17.5899   22.0063 C.2     1  UNL1        0.0873
      9 S         -11.3979  -18.2425   23.3567 S.3     1  UNL1       -0.0254
     10 C         -12.7841  -18.1830   23.9266 C.2     1  UNL1        0.2832
     11 O         -13.2127  -18.7188   25.2605 O.2     1  UNL1       -0.2622
     12 N         -13.6665  -17.4937   22.9285 N.am    1  UNL1       -0.2425
     13 C         -12.8256  -17.1272   21.7417 C.2     1  UNL1        0.2583
     14 O         -13.3030  -16.4218   20.5070 O.2     1  UNL1       -0.2692
     15 H         -14.6286  -17.3136   23.0338 H       1  UNL1        0.1587
     16 C          -6.1893  -15.4282   24.0541 C.3     1  UNL1        0.2526
     17 O          -5.6970  -16.7237   23.4805 O.3     1  UNL1       -0.4684
     18 O          -4.8542  -19.4933   22.6933 O.3     1  UNL1       -0.4499
     19 C          -3.6173  -18.9419   22.0483 C.ar    1  UNL1        0.1515
     20 C          -2.8495  -17.8408   22.7177 C.ar    1  UNL1        0.0379
     21 C          -1.6126  -17.2894   22.0727 C.ar    1  UNL1        0.0070
     22 C          -1.1435  -17.8392   20.7583 C.ar    1  UNL1        0.0721
     23 C          -1.9112  -18.9403   20.0889 C.ar    1  UNL1        0.0136
     24 C          -3.1482  -19.4917   20.7339 C.ar    1  UNL1        0.0690
     25 BR         -3.9159  -20.5928   20.0645 Br      1  UNL1       -0.0458
     26 C           0.0934  -17.2879   20.1133 C.3     1  UNL1        0.4186
     27 F           1.3304  -16.7364   19.4683 F       1  UNL1       -0.1659
     28 F          -0.3094  -15.9028   20.5248 F       1  UNL1       -0.1659
     29 F           0.4962  -18.6729   19.7019 F       1  UNL1       -0.1659
@<TRIPOS>BOND
     1    16    17    1
     2    17     1    1
     3     1     2   ar
     4     2     3   ar
     5     3     7    1
     6     7     8    2
     7     8     9    1
     8     9    10    1
     9    10    11    2
    10    10    12   am
    11    12    13   am
    12    13    14    2
    13     3     4   ar
    14     4     5   ar
    15     5     6   ar
    16     6    18    1
    17    18    19    1
    18    19    20   ar
    19    20    21   ar
    20    21    22   ar
    21    22    26    1
    22    26    27    1
    23    26    28    1
    24    26    29    1
    25    22    23   ar
    26    23    24   ar
    27    24    25    1
    28     6     1   ar
    29    24    19   ar
    30    13     8    1
    31    12    15    1
@<TRIPOS>MOLECULE
*****
 29 31 0 0 0
SMALL
GASTEIGER

@<TRIPOS>ATOM
      1 C          -5.0929  -16.3880   23.7042 C.ar    1  UNL1        0.1730
      2 C          -3.6951  -16.6205   23.2121 C.ar    1  UNL1        0.0401
      3 C          -3.3759  -17.8493   22.4132 C.ar    1  UNL1        0.0039
      4 C          -4.4544  -18.8456   22.1065 C.ar    1  UNL1        0.0034
      5 C          -5.8521  -18.6132   22.5986 C.ar    1  UNL1        0.0406
      6 C          -6.1714  -17.3844   23.3974 C.ar    1  UNL1        0.1790
      7 C          -1.9780  -18.0817   21.9211 C.2     1  UNL1        0.0113
      8 C          -1.6535  -17.8948   20.4686 C.2     1  UNL1        0.0873
      9 S          -2.6169  -17.4805   19.3961 S.3     1  UNL1       -0.0254
     10 C          -1.8674  -17.4190   18.0983 C.2     1  UNL1        0.2832
     11 O          -2.4434  -17.0467   16.7643 O.2     1  UNL1       -0.2622
     12 N          -0.4407  -17.7953   18.3686 N.am    1  UNL1       -0.2425
     13 C          -0.3086  -18.0893   19.8336 C.2     1  UNL1        0.2583
     14 O           0.9480  -18.5050   20.5395 O.2     1  UNL1       -0.2692
     15 H           0.2820  -17.8412   17.7017 H       1  UNL1        0.1587
     16 C          -5.5585  -15.2504   25.9930 C.3     1  UNL1        0.2526
     17 O          -5.4122  -15.1593   24.5030 O.3     1  UNL1       -0.4684
     18 O          -7.5692  -17.1520   23.8895 O.3     1  UNL1       -0.4499
     19 C          -8.6629  -16.8273   22.9157 C.ar    1  UNL1        0.1515
     20 C          -8.5000  -15.6837   21.9587 C.ar    1  UNL1        0.0379
     21 C          -9.5937  -15.3591   20.9849 C.ar    1  UNL1        0.0070
     22 C         -10.8503  -16.1780   20.9680 C.ar    1  UNL1        0.0721
     23 C         -11.0133  -17.3215   21.9249 C.ar    1  UNL1        0.0136
     24 C          -9.9195  -17.6462   22.8988 C.ar    1  UNL1        0.0690
     25 BR        -10.0825  -18.7898   23.8557 Br      1  UNL1       -0.0458
     26 C         -11.9440  -15.8533   19.9941 C.3     1  UNL1        0.4186
     27 F         -13.0378  -15.5287   19.0203 F       1  UNL1       -0.1659
     28 F         -12.9269  -16.5947   20.8509 F       1  UNL1       -0.1659
     29 F         -10.9611  -15.1119   19.1374 F       1  UNL1       -0.1659
@<TRIPOS>BOND
     1    16    17    1
     2    17     1    1
     3     1     2   ar
     4     2     3   ar
     5     3     7    1
     6     7     8    2
     7     8     9    1
     8     9    10    1
     9    10    11    2
    10    10    12   am
    11    12    13   am
    12    13    14    2
    13     3     4   ar
    14     4     5   ar
    15     5     6   ar
    16     6    18    1
    17    18    19    1
    18    19    20   ar
    19    20    21   ar
    20    21    22   ar
    21    22    26    1
    22    26    27    1
    23    26    28    1
    24    26    29    1
    25    22    23   ar
    26    23    24   ar
    27    24    25    1
    28     6     1   ar
    29    24    19   ar
    30    13     8    1
    31    12    15    1
@<TRIPOS>MOLECULE
*****
 29 31 0 0 0
SMALL
GASTEIGER

@<TRIPOS>ATOM
      1 C          -6.8107  -17.6216   22.9795 C.ar    1  UNL1        0.1730
      2 C          -8.3020  -17.4651   22.9411 C.ar    1  UNL1        0.0401
      3 C          -9.1725  -18.6473   22.6333 C.ar    1  UNL1        0.0039
      4 C          -8.5517  -19.9859   22.3639 C.ar    1  UNL1        0.0034
      5 C          -7.0604  -20.1424   22.4023 C.ar    1  UNL1        0.0406
      6 C          -6.1899  -18.9602   22.7101 C.ar    1  UNL1        0.1790
      7 C         -10.6639  -18.4908   22.5948 C.2     1  UNL1        0.0113
      8 C         -11.2951  -17.5616   21.6008 C.2     1  UNL1        0.0873
      9 S         -10.5678  -16.7276   20.5881 S.3     1  UNL1       -0.0254
     10 C         -11.5877  -15.9538   19.8063 C.2     1  UNL1        0.2832
     11 O         -11.3003  -14.9930   18.6909 O.2     1  UNL1       -0.2622
     12 N         -12.9453  -16.3096   20.3358 N.am    1  UNL1       -0.2425
     13 C         -12.7644  -17.3032   21.4449 C.2     1  UNL1        0.2583
     14 O         -13.8605  -17.9287   22.2556 O.2     1  UNL1       -0.2692
     15 H         -13.8042  -15.9534   20.0123 H       1  UNL1        0.1587
     16 C          -6.3210  -15.4940   24.3879 C.3     1  UNL1        0.2526
     17 O          -5.9403  -16.4394   23.2874 O.3     1  UNL1       -0.4684
     18 O          -4.6985  -19.1167   22.7486 O.3     1  UNL1       -0.4499
     19 C          -3.8775  -18.7778   21.5399 C.ar    1  UNL1        0.1515
     20 C          -4.1532  -19.4572   20.2313 C.ar    1  UNL1        0.0379
     21 C          -3.3321  -19.1183   19.0226 C.ar    1  UNL1        0.0070
     22 C          -2.2353  -18.1000   19.1224 C.ar    1  UNL1        0.0721
     23 C          -1.9596  -17.4205   20.4310 C.ar    1  UNL1        0.0136
     24 C          -2.7806  -17.7594   21.6397 C.ar    1  UNL1        0.0690
     25 BR         -2.5049  -17.0800   22.9483 Br      1  UNL1       -0.0458
     26 C          -1.4143  -17.7610   17.9138 C.3     1  UNL1        0.4186
     27 F          -0.5932  -17.4221   16.7050 F       1  UNL1       -0.1659
     28 F          -2.6283  -17.1796   17.2521 F       1  UNL1       -0.1659
     29 F          -0.2002  -18.3425   18.5755 F       1  UNL1       -0.1659
@<TRIPOS>BOND
     1    16    17    1
     2    17     1    1
     3     1     2   ar
     4     2     3   ar
     5     3     7    1
     6     7     8    2
     7     8     9    1
     8     9    10    1
     9    10    11    2
    10    10    12   am
    11    12    13   am
    12    13    14    2
    13     3     4   ar
    14     4     5   ar
    15     5     6   ar
    16     6    18    1
    17    18    19    1
    18    19    20   ar
    19    20    21   ar
    20    21    22   ar
    21    22    26    1
    22    26    27    1
    23    26    28    1
    24    26    29    1
    25    22    23   ar
    26    23    24   ar
    27    24    25    1
    28     6     1   ar
    29    24    19   ar
    30    13     8    1
    31    12    15    1
@<TRIPOS>MOLECULE
*****
 29 31 0 0 0
SMALL
GASTEIGER

@<TRIPOS>ATOM
      1 C         -13.1351   -7.5834   18.1484 C.ar    1  UNL1        0.1730
      2 C         -14.3052   -8.4147   17.7130 C.ar    1  UNL1        0.0401
      3 C         -15.6780   -8.1090   18.2346 C.ar    1  UNL1        0.0039
      4 C         -15.8806   -6.9719   19.1917 C.ar    1  UNL1        0.0034
      5 C         -14.7105   -6.1406   19.6271 C.ar    1  UNL1        0.0406
      6 C         -13.3378   -6.4463   19.1055 C.ar    1  UNL1        0.1790
      7 C         -16.8482   -8.9404   17.7991 C.2     1  UNL1        0.0113
      8 C         -18.0777   -9.0116   18.6554 C.2     1  UNL1        0.0873
      9 S         -18.2816   -8.3100   19.9655 S.3     1  UNL1       -0.0254
     10 C         -19.6491   -8.6616   20.4717 C.2     1  UNL1        0.2832
     11 O         -20.2668   -8.1791   21.7506 O.2     1  UNL1       -0.2622
     12 N         -20.2904   -9.5805   19.4745 N.am    1  UNL1       -0.2425
     13 C         -19.3192   -9.7968   18.3520 C.2     1  UNL1        0.2583
     14 O         -19.5492  -10.6487   17.1390 O.2     1  UNL1       -0.2692
     15 H         -21.1906   -9.9728   19.5445 H       1  UNL1        0.1587
     16 C         -11.4976   -7.8616   16.1506 C.3     1  UNL1        0.2526
     17 O         -11.7624   -7.8891   17.6268 O.3     1  UNL1       -0.4684
     18 O         -12.1676   -5.6149   19.5410 O.3     1  UNL1       -0.4499
     19 C         -12.0387   -4.1966   19.0702 C.ar    1  UNL1        0.1515
     20 C         -13.0807   -3.1844   19.4444 C.ar    1  UNL1        0.0379
     21 C         -12.9518   -1.7661   18.9737 C.ar    1  UNL1        0.0070
     22 C         -11.7809   -1.3598   18.1286 C.ar    1  UNL1        0.0721
     23 C         -10.7390   -2.3719   17.7544 C.ar    1  UNL1        0.0136
     24 C         -10.8679   -3.7903   18.2252 C.ar    1  UNL1        0.0690
     25 BR         -9.8259   -4.8023   17.8509 Br      1  UNL1       -0.0458
     26 C         -11.6520    0.0585   17.6578 C.3     1  UNL1        0.4186
     27 F         -11.5231    1.4769   17.1871 F       1  UNL1       -0.1659
     28 F         -12.9114    0.4160   18.3900 F       1  UNL1       -0.1659
     29 F         -10.3926   -0.2990   16.9257 F       1  UNL1       -0.1659
@<TRIPOS>BOND
     1    16    17    1
     2    17     1    1
     3     1     2   ar
     4     2     3   ar
     5     3     7    1
     6     7     8    2
     7     8     9    1
     8     9    10    1
     9    10    11    2
    10    10    12   am
    11    12    13   am
    12    13    14    2
    13     3     4   ar
    14     4     5   ar
    15     5     6   ar
    16     6    18    1
    17    18    19    1
    18    19    20   ar
    19    20    21   ar
    20    21    22   ar
    21    22    26    1
    22    26    27    1
    23    26    28    1
    24    26    29    1
    25    22    23   ar
    26    23    24   ar
    27    24    25    1
    28     6     1   ar
    29    24    19   ar
    30    13     8    1
    31    12    15    1
@<TRIPOS>MOLECULE
*****
 29 31 0 0 0
SMALL
GASTEIGER

@<TRIPOS>ATOM
      1 C         -12.4312   -7.2696   18.1310 C.ar    1  UNL1        0.1730
      2 C         -13.5772   -8.2115   17.9092 C.ar    1  UNL1        0.0401
      3 C         -14.8871   -7.9749   18.6006 C.ar    1  UNL1        0.0039
      4 C         -15.0510   -6.7964   19.5139 C.ar    1  UNL1        0.0034
      5 C         -13.9050   -5.8544   19.7357 C.ar    1  UNL1        0.0406
      6 C         -12.5950   -6.0910   19.0443 C.ar    1  UNL1        0.1790
      7 C         -16.0332   -8.9169   18.3788 C.2     1  UNL1        0.0113
      8 C         -17.2833   -8.4320   17.7063 C.2     1  UNL1        0.0873
      9 S         -17.5313   -7.0405   17.2041 S.3     1  UNL1       -0.0254
     10 C         -18.9060   -7.0018   16.6053 C.2     1  UNL1        0.2832
     11 O         -19.5637   -5.8056   15.9836 O.2     1  UNL1       -0.2622
     12 N         -19.5077   -8.3695   16.7374 N.am    1  UNL1       -0.2425
     13 C         -18.5048   -9.2534   17.4178 C.2     1  UNL1        0.2583
     14 O         -18.6907  -10.7040   17.7512 O.2     1  UNL1       -0.2692
     15 H         -20.4036   -8.6397   16.4313 H       1  UNL1        0.1587
     16 C          -9.9482   -8.0299   18.2139 C.3     1  UNL1        0.2526
     17 O         -11.1212   -7.5062   17.4395 O.3     1  UNL1       -0.4684
     18 O         -11.4489   -5.1490   19.2661 O.3     1  UNL1       -0.4499
     19 C         -11.5390   -3.7316   18.7839 C.ar    1  UNL1        0.1515
     20 C         -12.5412   -2.7950   19.3910 C.ar    1  UNL1        0.0379
     21 C         -12.6313   -1.3775   18.9087 C.ar    1  UNL1        0.0070
     22 C         -11.7192   -0.8965   17.8193 C.ar    1  UNL1        0.0721
     23 C         -10.7171   -1.8330   17.2122 C.ar    1  UNL1        0.0136
     24 C         -10.6269   -3.2506   17.6945 C.ar    1  UNL1        0.0690
     25 BR         -9.6248   -4.1870   17.0874 Br      1  UNL1       -0.0458
     26 C         -11.8093    0.5209   17.3370 C.3     1  UNL1        0.4186
     27 F         -11.8994    1.9384   16.8547 F       1  UNL1       -0.1659
     28 F         -10.7899    0.2251   16.2772 F       1  UNL1       -0.1659
     29 F         -12.8287    0.8167   18.3968 F       1  UNL1       -0.1659
@<TRIPOS>BOND
     1    16    17    1
     2    17     1    1
     3     1     2   ar
     4     2     3   ar
     5     3     7    1
     6     7     8    2
     7     8     9    1
     8     9    10    1
     9    10    11    2
    10    10    12   am
    11    12    13   am
    12    13    14    2
    13     3     4   ar
    14     4     5   ar
    15     5     6   ar
    16     6    18    1
    17    18    19    1
    18    19    20   ar
    19    20    21   ar
    20    21    22   ar
    21    22    26    1
    22    26    27    1
    23    26    28    1
    24    26    29    1
    25    22    23   ar
    26    23    24   ar
    27    24    25    1
    28     6     1   ar
    29    24    19   ar
    30    13     8    1
    31    12    15    1
@<TRIPOS>MOLECULE
*****
 29 31 0 0 0
SMALL
GASTEIGER

@<TRIPOS>ATOM
      1 C          -6.8834  -16.2231   24.6977 C.ar    1  UNL1        0.1730
      2 C          -8.3607  -16.3910   24.4992 C.ar    1  UNL1        0.0401
      3 C          -8.8745  -17.2567   23.3872 C.ar    1  UNL1        0.0039
      4 C          -7.9111  -17.9545   22.4736 C.ar    1  UNL1        0.0034
      5 C          -6.4338  -17.7867   22.6721 C.ar    1  UNL1        0.0406
      6 C          -5.9200  -16.9210   23.7841 C.ar    1  UNL1        0.1790
      7 C         -10.3519  -17.4245   23.1888 C.2     1  UNL1        0.0113
      8 C         -11.0162  -16.8449   21.9753 C.2     1  UNL1        0.0873
      9 S         -10.3370  -16.0768   20.8805 S.3     1  UNL1       -0.0254
     10 C         -11.3774  -15.6889   19.8720 C.2     1  UNL1        0.2832
     11 O         -11.1377  -14.9094   18.6130 O.2     1  UNL1       -0.2622
     12 N         -12.6997  -16.2172   20.3435 N.am    1  UNL1       -0.2425
     13 C         -12.4765  -16.9317   21.6434 C.2     1  UNL1        0.2583
     14 O         -13.5288  -17.6133   22.4669 O.2     1  UNL1       -0.2692
     15 H         -13.5626  -16.1133   19.8811 H       1  UNL1        0.1587
     16 C          -6.9810  -15.4504   27.1762 C.3     1  UNL1        0.2526
     17 O          -6.3696  -15.3575   25.8097 O.3     1  UNL1       -0.4684
     18 O          -4.4426  -16.7532   23.9825 O.3     1  UNL1       -0.4499
     19 C          -3.4991  -17.0113   22.8454 C.ar    1  UNL1        0.1515
     20 C          -2.7224  -15.8781   22.2431 C.ar    1  UNL1        0.0379
     21 C          -1.7789  -16.1363   21.1060 C.ar    1  UNL1        0.0070
     22 C          -1.6119  -17.5277   20.5711 C.ar    1  UNL1        0.0721
     23 C          -2.3885  -18.6609   21.1733 C.ar    1  UNL1        0.0136
     24 C          -3.3321  -18.4027   22.3104 C.ar    1  UNL1        0.0690
     25 BR         -4.1087  -19.5360   22.9126 Br      1  UNL1       -0.0458
     26 C          -0.6684  -17.7858   19.4340 C.3     1  UNL1        0.4186
     27 F           0.2752  -18.0440   18.2969 F       1  UNL1       -0.1659
     28 F           0.3986  -17.0047   20.1420 F       1  UNL1       -0.1659
     29 F          -1.7354  -18.5669   18.7260 F       1  UNL1       -0.1659
@<TRIPOS>BOND
     1    16    17    1
     2    17     1    1
     3     1     2   ar
     4     2     3   ar
     5     3     7    1
     6     7     8    2
     7     8     9    1
     8     9    10    1
     9    10    11    2
    10    10    12   am
    11    12    13   am
    12    13    14    2
    13     3     4   ar
    14     4     5   ar
    15     5     6   ar
    16     6    18    1
    17    18    19    1
    18    19    20   ar
    19    20    21   ar
    20    21    22   ar
    21    22    26    1
    22    26    27    1
    23    26    28    1
    24    26    29    1
    25    22    23   ar
    26    23    24   ar
    27    24    25    1
    28     6     1   ar
    29    24    19   ar
    30    13     8    1
    31    12    15    1
@<TRIPOS>MOLECULE
*****
 29 31 0 0 0
SMALL
GASTEIGER

@<TRIPOS>ATOM
      1 C         -12.4569   -3.1063   18.5027 C.ar    1  UNL1        0.1730
      2 C         -12.7209   -1.6740   18.8617 C.ar    1  UNL1        0.0401
      3 C         -13.6685   -0.8561   18.0352 C.ar    1  UNL1        0.0039
      4 C         -14.3521   -1.4705   16.8498 C.ar    1  UNL1        0.0034
      5 C         -14.0881   -2.9027   16.4909 C.ar    1  UNL1        0.0406
      6 C         -13.1405   -3.7206   17.3173 C.ar    1  UNL1        0.1790
      7 C         -13.9326    0.5762   18.3942 C.2     1  UNL1        0.0113
      8 C         -15.1506    0.9373   19.1917 C.2     1  UNL1        0.0873
      9 S         -16.1889   -0.0198   19.6975 S.3     1  UNL1       -0.0254
     10 C         -17.2243    0.7702   20.4418 C.2     1  UNL1        0.2832
     11 O         -18.4439    0.2126   21.1139 O.2     1  UNL1       -0.2622
     12 N         -16.8259    2.2156   20.3959 N.am    1  UNL1       -0.2425
     13 C         -15.5443    2.3188   19.6233 C.2     1  UNL1        0.2583
     14 O         -14.7891    3.5819   19.3332 O.2     1  UNL1       -0.2692
     15 H         -17.3190    2.9649   20.8016 H       1  UNL1        0.1587
     16 C         -10.1065   -4.1568   18.8517 C.3     1  UNL1        0.2526
     17 O         -11.5093   -3.9242   19.3292 O.3     1  UNL1       -0.4684
     18 O         -12.8765   -5.1529   16.9583 O.3     1  UNL1       -0.4499
     19 C         -13.7340   -6.2407   17.5339 C.ar    1  UNL1        0.1515
     20 C         -14.8263   -5.9005   18.5042 C.ar    1  UNL1        0.0379
     21 C         -15.6838   -6.9883   19.0797 C.ar    1  UNL1        0.0070
     22 C         -15.4492   -8.4163   18.6851 C.ar    1  UNL1        0.0721
     23 C         -14.3570   -8.7565   17.7149 C.ar    1  UNL1        0.0136
     24 C         -13.4994   -7.6687   17.1393 C.ar    1  UNL1        0.0690
     25 BR        -12.4072   -8.0090   16.1691 Br      1  UNL1       -0.0458
     26 C         -16.3067   -9.5041   19.2606 C.3     1  UNL1        0.4186
     27 F         -17.1643  -10.5919   19.8363 F       1  UNL1       -0.1659
     28 F         -16.5093   -8.6873   20.5023 F       1  UNL1       -0.1659
     29 F         -16.1041  -10.3208   18.0189 F       1  UNL1       -0.1659
@<TRIPOS>BOND
     1    16    17    1
     2    17     1    1
     3     1     2   ar
     4     2     3   ar
     5     3     7    1
     6     7     8    2
     7     8     9    1
     8     9    10    1
     9    10    11    2
    10    10    12   am
    11    12    13   am
    12    13    14    2
    13     3     4   ar
    14     4     5   ar
    15     5     6   ar
    16     6    18    1
    17    18    19    1
    18    19    20   ar
    19    20    21   ar
    20    21    22   ar
    21    22    26    1
    22    26    27    1
    23    26    28    1
    24    26    29    1
    25    22    23   ar
    26    23    24   ar
    27    24    25    1
    28     6     1   ar
    29    24    19   ar
    30    13     8    1
    31    12    15    1
@<TRIPOS>MOLECULE
*****
 29 31 0 0 0
SMALL
GASTEIGER

@<TRIPOS>ATOM
      1 C           2.1496    1.7640   21.7162 C.ar    1  UNL1        0.1730
      2 C           2.9753    0.5171   21.6016 C.ar    1  UNL1        0.0401
      3 C           2.4295   -0.6804   20.8818 C.ar    1  UNL1        0.0039
      4 C           1.0579   -0.6309   20.2766 C.ar    1  UNL1        0.0034
      5 C           0.2322    0.6160   20.3912 C.ar    1  UNL1        0.0406
      6 C           0.7780    1.8135   21.1110 C.ar    1  UNL1        0.1790
      7 C           3.2553   -1.9274   20.7672 C.2     1  UNL1        0.0113
      8 C           4.3691   -1.9999   19.7651 C.2     1  UNL1        0.0873
      9 S           4.7726   -0.9115   18.8151 S.3     1  UNL1       -0.0254
     10 C           5.9279   -1.4123   17.9999 C.2     1  UNL1        0.2832
     11 O           6.6465   -0.6492   16.9270 O.2     1  UNL1       -0.2622
     12 N           6.2384   -2.8104   18.4462 N.am    1  UNL1       -0.2425
     13 C           5.2750   -3.1735   19.5371 C.2     1  UNL1        0.2583
     14 O           5.2262   -4.4807   20.2711 O.2     1  UNL1       -0.2692
     15 H           6.9496   -3.3882   18.0862 H       1  UNL1        0.1587
     16 C           3.2990    2.8058   23.8003 C.3     1  UNL1        0.2526
     17 O           2.6954    2.9615   22.4360 O.3     1  UNL1       -0.4684
     18 O          -0.0478    3.0605   21.2256 O.3     1  UNL1       -0.4499
     19 C          -0.9766    3.2407   22.3896 C.ar    1  UNL1        0.1515
     20 C          -0.4498    3.1465   23.7910 C.ar    1  UNL1        0.0379
     21 C          -1.3785    3.3267   24.9550 C.ar    1  UNL1        0.0070
     22 C          -2.8340    3.6010   24.7177 C.ar    1  UNL1        0.0721
     23 C          -3.3608    3.6952   23.3165 C.ar    1  UNL1        0.0136
     24 C          -2.4320    3.5151   22.1524 C.ar    1  UNL1        0.0690
     25 BR         -2.9588    3.6093   20.7511 Br      1  UNL1       -0.0458
     26 C          -3.7628    3.7812   25.8817 C.3     1  UNL1        0.4186
     27 F          -4.6915    3.9614   27.0458 F       1  UNL1       -0.1659
     28 F          -2.6308    4.3277   26.7003 F       1  UNL1       -0.1659
     29 F          -4.8947    3.2348   25.0632 F       1  UNL1       -0.1659
@<TRIPOS>BOND
     1    16    17    1
     2    17     1    1
     3     1     2   ar
     4     2     3   ar
     5     3     7    1
     6     7     8    2
     7     8     9    1
     8     9    10    1
     9    10    11    2
    10    10    12   am
    11    12    13   am
    12    13    14    2
    13     3     4   ar
    14     4     5   ar
    15     5     6   ar
    16     6    18    1
    17    18    19    1
    18    19    20   ar
    19    20    21   ar
    20    21    22   ar
    21    22    26    1
    22    26    27    1
    23    26    28    1
    24    26    29    1
    25    22    23   ar
    26    23    24   ar
    27    24    25    1
    28     6     1   ar
    29    24    19   ar
    30    13     8    1
    31    12    15    1
