@<TRIPOS>MOLECULE
*****
 28 30 0 0 0
SMALL
GASTEIGER

@<TRIPOS>ATOM
      1 C          -8.3111  -15.8741   24.3382 C.ar    1  UNL1        0.0514
      2 C          -8.1304  -15.6924   25.8162 C.ar    1  UNL1        0.0148
      3 C          -6.7610  -15.4557   26.3809 C.ar    1  UNL1        0.0044
      4 C          -5.5724  -15.4007   25.4676 C.ar    1  UNL1        0.0370
      5 C          -5.7531  -15.5824   23.9896 C.ar    1  UNL1        0.1398
      6 C          -7.1225  -15.8191   23.4249 C.ar    1  UNL1        0.0515
      7 N          -9.6805  -16.1108   23.7736 N.pl3   1  UNL1       -0.3123
      8 H         -10.3210  -15.3662   23.7073 H       1  UNL1        0.1522
      9 C         -10.7323  -17.6621   21.9743 C.ar    1  UNL1        0.0665
     10 C         -11.1256  -19.0334   21.5108 C.ar    1  UNL1        0.0057
     11 C         -10.8606  -20.2246   22.3830 C.ar    1  UNL1        0.0002
     12 C         -10.2021  -20.0446   23.7186 C.ar    1  UNL1        0.0013
     13 C          -9.8088  -18.6734   24.1821 C.ar    1  UNL1        0.0148
     14 C         -10.0738  -17.4821   23.3100 C.ar    1  UNL1        0.0527
     15 N         -12.3445  -16.2907   20.4677 N.am    1  UNL1       -0.3253
     16 C         -10.9974  -16.4708   21.1022 C.2     1  UNL1        0.2440
     17 O          -9.9153  -15.4597   20.8645 O.2     1  UNL1       -0.2703
     18 H         -12.5185  -15.5089   19.8953 H       1  UNL1        0.1453
     19 H         -13.0548  -16.9544   20.6237 H       1  UNL1        0.1453
     20 O          -4.5644  -15.5274   23.0764 O.3     1  UNL1       -0.4751
     21 C          -3.5673  -16.6479   23.0748 C.3     1  UNL1        0.2101
     22 C          -4.0066  -18.0433   23.4062 C.3     1  UNL1        0.0736
     23 C          -4.5420  -18.9372   22.3272 C.ar    1  UNL1       -0.0184
     24 C          -3.6008  -19.5920   21.3600 C.ar    1  UNL1       -0.0041
     25 C          -4.1362  -20.4859   20.2810 C.ar    1  UNL1       -0.0003
     26 C          -5.6128  -20.7250   20.1692 C.ar    1  UNL1       -0.0000
     27 C          -6.5540  -20.0702   21.1363 C.ar    1  UNL1       -0.0003
     28 C          -6.0186  -19.1763   22.2154 C.ar    1  UNL1       -0.0041
@<TRIPOS>BOND
     1    15    16   am
     2    16    17    2
     3    16     9    1
     4     9    10   ar
     5    10    11   ar
     6    11    12   ar
     7    12    13   ar
     8    13    14   ar
     9    14     7    1
    10     7     1    1
    11     1     2   ar
    12     2     3   ar
    13     3     4   ar
    14     4     5   ar
    15     5    20    1
    16    20    21    1
    17    21    22    1
    18    22    23    1
    19    23    24   ar
    20    24    25   ar
    21    25    26   ar
    22    26    27   ar
    23    27    28   ar
    24     5     6   ar
    25    14     9   ar
    26     6     1   ar
    27    28    23   ar
    28    15    18    1
    29    15    19    1
    30     7     8    1
@<TRIPOS>MOLECULE
*****
 28 30 0 0 0
SMALL
GASTEIGER

@<TRIPOS>ATOM
      1 C          -6.9824  -19.4045   21.2365 C.ar    1  UNL1        0.0514
      2 C          -6.1029  -20.1836   20.3039 C.ar    1  UNL1        0.0148
      3 C          -4.6134  -20.1553   20.4787 C.ar    1  UNL1        0.0044
      4 C          -4.0034  -19.3481   21.5860 C.ar    1  UNL1        0.0370
      5 C          -4.8828  -18.5691   22.5186 C.ar    1  UNL1        0.1398
      6 C          -6.3723  -18.5973   22.3439 C.ar    1  UNL1        0.0515
      7 N          -8.4719  -19.4328   21.0618 N.pl3   1  UNL1       -0.3123
      8 H          -8.8602  -19.6127   20.1752 H       1  UNL1        0.1522
      9 C         -10.2261  -17.9561   22.2834 C.ar    1  UNL1        0.0665
     10 C         -11.1240  -17.7101   23.4595 C.ar    1  UNL1        0.0057
     11 C         -11.1657  -18.6949   24.5901 C.ar    1  UNL1        0.0002
     12 C         -10.3094  -19.9257   24.5447 C.ar    1  UNL1        0.0013
     13 C          -9.4115  -20.1716   23.3686 C.ar    1  UNL1        0.0148
     14 C          -9.3699  -19.1868   22.2379 C.ar    1  UNL1        0.0527
     15 N          -9.7739  -15.5516   21.4094 N.am    1  UNL1       -0.3253
     16 C         -10.1844  -16.9712   21.1527 C.2     1  UNL1        0.2440
     17 O         -10.5533  -17.4061   19.7654 O.2     1  UNL1       -0.2703
     18 H          -9.7465  -14.9052   20.6673 H       1  UNL1        0.1453
     19 H          -9.5318  -15.2661   22.3200 H       1  UNL1        0.1453
     20 O          -4.2727  -17.7618   23.6259 O.3     1  UNL1       -0.4751
     21 C          -4.1265  -16.2763   23.4784 C.3     1  UNL1        0.2101
     22 C          -5.3280  -15.3878   23.6087 C.3     1  UNL1        0.0736
     23 C          -6.2646  -15.5582   24.7678 C.ar    1  UNL1       -0.0184
     24 C          -5.7634  -15.3774   26.1700 C.ar    1  UNL1       -0.0041
     25 C          -6.7000  -15.5478   27.3291 C.ar    1  UNL1       -0.0003
     26 C          -8.1379  -15.8990   27.0861 C.ar    1  UNL1       -0.0000
     27 C          -8.6392  -16.0799   25.6840 C.ar    1  UNL1       -0.0003
     28 C          -7.7025  -15.9095   24.5248 C.ar    1  UNL1       -0.0041
@<TRIPOS>BOND
     1    15    16   am
     2    16    17    2
     3    16     9    1
     4     9    10   ar
     5    10    11   ar
     6    11    12   ar
     7    12    13   ar
     8    13    14   ar
     9    14     7    1
    10     7     1    1
    11     1     2   ar
    12     2     3   ar
    13     3     4   ar
    14     4     5   ar
    15     5    20    1
    16    20    21    1
    17    21    22    1
    18    22    23    1
    19    23    24   ar
    20    24    25   ar
    21    25    26   ar
    22    26    27   ar
    23    27    28   ar
    24     5     6   ar
    25    14     9   ar
    26     6     1   ar
    27    28    23   ar
    28    15    18    1
    29    15    19    1
    30     7     8    1
@<TRIPOS>MOLECULE
*****
 28 30 0 0 0
SMALL
GASTEIGER

@<TRIPOS>ATOM
      1 C          -8.6249  -16.4913   22.2832 C.ar    1  UNL1        0.0514
      2 C         -10.1115  -16.5031   22.0835 C.ar    1  UNL1        0.0148
      3 C         -10.7710  -17.6804   21.4285 C.ar    1  UNL1        0.0044
      4 C          -9.9438  -18.8459   20.9732 C.ar    1  UNL1        0.0370
      5 C          -8.4573  -18.8342   21.1729 C.ar    1  UNL1        0.1398
      6 C          -7.7977  -17.6569   21.8279 C.ar    1  UNL1        0.0515
      7 N          -7.9654  -15.3140   22.9382 N.pl3   1  UNL1       -0.3123
      8 H          -7.8095  -14.4885   22.4248 H       1  UNL1        0.1522
      9 C          -6.0936  -15.5576   24.7234 C.ar    1  UNL1        0.0665
     10 C          -5.6717  -15.6379   26.1606 C.ar    1  UNL1        0.0057
     11 C          -6.6996  -15.5550   27.2498 C.ar    1  UNL1        0.0002
     12 C          -8.1495  -15.3918   26.9018 C.ar    1  UNL1        0.0013
     13 C          -8.5714  -15.3114   25.4646 C.ar    1  UNL1        0.0148
     14 C          -7.5434  -15.3943   24.3754 C.ar    1  UNL1        0.0527
     15 N          -4.3350  -16.9273   23.3888 N.am    1  UNL1       -0.3253
     16 C          -5.0656  -15.6405   23.6342 C.2     1  UNL1        0.2440
     17 O          -4.7682  -14.4365   22.7904 O.2     1  UNL1       -0.2703
     18 H          -3.6603  -16.9817   22.6739 H       1  UNL1        0.1453
     19 H          -4.5302  -17.7175   23.9426 H       1  UNL1        0.1453
     20 O          -7.6301  -19.9998   20.7176 O.3     1  UNL1       -0.4751
     21 C          -6.2764  -20.2387   21.3178 C.3     1  UNL1        0.2101
     22 C          -5.1049  -20.5390   20.4303 C.3     1  UNL1        0.0736
     23 C          -3.9144  -19.6266   20.4256 C.ar    1  UNL1       -0.0184
     24 C          -3.7145  -18.6602   19.2958 C.ar    1  UNL1       -0.0041
     25 C          -2.5239  -17.7478   19.2911 C.ar    1  UNL1       -0.0003
     26 C          -1.5332  -17.8018   20.4160 C.ar    1  UNL1       -0.0000
     27 C          -1.7330  -18.7681   21.5457 C.ar    1  UNL1       -0.0003
     28 C          -2.9236  -19.6805   21.5505 C.ar    1  UNL1       -0.0041
@<TRIPOS>BOND
     1    15    16   am
     2    16    17    2
     3    16     9    1
     4     9    10   ar
     5    10    11   ar
     6    11    12   ar
     7    12    13   ar
     8    13    14   ar
     9    14     7    1
    10     7     1    1
    11     1     2   ar
    12     2     3   ar
    13     3     4   ar
    14     4     5   ar
    15     5    20    1
    16    20    21    1
    17    21    22    1
    18    22    23    1
    19    23    24   ar
    20    24    25   ar
    21    25    26   ar
    22    26    27   ar
    23    27    28   ar
    24     5     6   ar
    25    14     9   ar
    26     6     1   ar
    27    28    23   ar
    28    15    18    1
    29    15    19    1
    30     7     8    1
@<TRIPOS>MOLECULE
*****
 28 30 0 0 0
SMALL
GASTEIGER

@<TRIPOS>ATOM
      1 C          -8.9263  -16.2346   24.0363 C.ar    1  UNL1        0.0514
      2 C          -8.7991  -15.5071   25.3420 C.ar    1  UNL1        0.0148
      3 C          -7.4412  -15.2066   25.9038 C.ar    1  UNL1        0.0044
      4 C          -6.2105  -15.6335   25.1601 C.ar    1  UNL1        0.0370
      5 C          -6.3377  -16.3610   23.8545 C.ar    1  UNL1        0.1398
      6 C          -7.6956  -16.6615   23.2926 C.ar    1  UNL1        0.0515
      7 N         -10.2842  -16.5351   23.4744 N.pl3   1  UNL1       -0.3123
      8 H         -11.0653  -16.0129   23.7686 H       1  UNL1        0.1522
      9 C         -10.7419  -19.0314   22.9181 C.ar    1  UNL1        0.0665
     10 C         -10.9098  -20.1275   21.9080 C.ar    1  UNL1        0.0057
     11 C         -10.7880  -19.8235   20.4441 C.ar    1  UNL1        0.0002
     12 C         -10.4982  -18.4235   19.9904 C.ar    1  UNL1        0.0013
     13 C         -10.3303  -17.3274   21.0005 C.ar    1  UNL1        0.0148
     14 C         -10.4522  -17.6313   22.4643 C.ar    1  UNL1        0.0527
     15 N         -12.0646  -18.8653   25.1480 N.am    1  UNL1       -0.3253
     16 C         -10.8638  -19.3353   24.3819 C.2     1  UNL1        0.2440
     17 O          -9.7847  -20.1092   25.0796 O.2     1  UNL1       -0.2703
     18 H         -12.1446  -19.0648   26.1088 H       1  UNL1        0.1453
     19 H         -12.7728  -18.3574   24.6901 H       1  UNL1        0.1453
     20 O          -5.1070  -16.7879   23.1108 O.3     1  UNL1       -0.4751
     21 C          -4.0387  -17.5705   23.8152 C.3     1  UNL1        0.2101
     22 C          -2.7068  -17.7814   23.1582 C.3     1  UNL1        0.0736
     23 C          -2.6287  -18.0113   21.6780 C.ar    1  UNL1       -0.0184
     24 C          -3.4236  -19.1163   21.0477 C.ar    1  UNL1       -0.0041
     25 C          -3.3456  -19.3462   19.5675 C.ar    1  UNL1       -0.0003
     26 C          -2.4726  -18.4712   18.7176 C.ar    1  UNL1       -0.0000
     27 C          -1.6777  -17.3663   19.3478 C.ar    1  UNL1       -0.0003
     28 C          -1.7558  -17.1363   20.8281 C.ar    1  UNL1       -0.0041
@<TRIPOS>BOND
     1    15    16   am
     2    16    17    2
     3    16     9    1
     4     9    10   ar
     5    10    11   ar
     6    11    12   ar
     7    12    13   ar
     8    13    14   ar
     9    14     7    1
    10     7     1    1
    11     1     2   ar
    12     2     3   ar
    13     3     4   ar
    14     4     5   ar
    15     5    20    1
    16    20    21    1
    17    21    22    1
    18    22    23    1
    19    23    24   ar
    20    24    25   ar
    21    25    26   ar
    22    26    27   ar
    23    27    28   ar
    24     5     6   ar
    25    14     9   ar
    26     6     1   ar
    27    28    23   ar
    28    15    18    1
    29    15    19    1
    30     7     8    1
@<TRIPOS>MOLECULE
*****
 28 30 0 0 0
SMALL
GASTEIGER

@<TRIPOS>ATOM
      1 C          -8.3941  -16.9920   23.3250 C.ar    1  UNL1        0.0514
      2 C          -8.8970  -16.0312   24.3613 C.ar    1  UNL1        0.0148
      3 C          -7.9311  -15.1591   25.1072 C.ar    1  UNL1        0.0044
      4 C          -6.4621  -15.2477   24.8167 C.ar    1  UNL1        0.0370
      5 C          -5.9591  -16.2085   23.7805 C.ar    1  UNL1        0.1398
      6 C          -6.9251  -17.0807   23.0346 C.ar    1  UNL1        0.0515
      7 N          -9.3600  -17.8642   22.5792 N.pl3   1  UNL1       -0.3123
      8 H          -9.0458  -18.4146   21.8259 H       1  UNL1        0.1522
      9 C         -11.8285  -17.1701   22.1611 C.ar    1  UNL1        0.0665
     10 C         -13.2732  -17.2036   22.5631 C.ar    1  UNL1        0.0057
     11 C         -13.6942  -17.9648   23.7852 C.ar    1  UNL1        0.0002
     12 C         -12.6705  -18.6924   24.6053 C.ar    1  UNL1        0.0013
     13 C         -11.2258  -18.6588   24.2033 C.ar    1  UNL1        0.0148
     14 C         -10.8048  -17.8977   22.9812 C.ar    1  UNL1        0.0527
     15 N         -12.2881  -16.3933   19.7249 N.am    1  UNL1       -0.3253
     16 C         -11.4075  -16.4090   20.9391 C.2     1  UNL1        0.2440
     17 O         -10.1060  -15.6635   20.9312 O.2     1  UNL1       -0.2703
     18 H         -12.0118  -15.8937   18.9228 H       1  UNL1        0.1453
     19 H         -13.1424  -16.8826   19.7300 H       1  UNL1        0.1453
     20 O          -4.4902  -16.2971   23.4900 O.3     1  UNL1       -0.4751
     21 C          -3.7505  -17.5762   23.7481 C.3     1  UNL1        0.2101
     22 C          -2.4569  -17.8505   23.0401 C.3     1  UNL1        0.0736
     23 C          -2.4472  -18.0807   21.5579 C.ar    1  UNL1       -0.0184
     24 C          -1.4606  -17.3543   20.6925 C.ar    1  UNL1       -0.0041
     25 C          -1.4509  -17.5845   19.2103 C.ar    1  UNL1       -0.0003
     26 C          -2.4279  -18.5410   18.5935 C.ar    1  UNL1       -0.0000
     27 C          -3.4145  -19.2674   19.4588 C.ar    1  UNL1       -0.0003
     28 C          -3.4242  -19.0373   20.9411 C.ar    1  UNL1       -0.0041
@<TRIPOS>BOND
     1    15    16   am
     2    16    17    2
     3    16     9    1
     4     9    10   ar
     5    10    11   ar
     6    11    12   ar
     7    12    13   ar
     8    13    14   ar
     9    14     7    1
    10     7     1    1
    11     1     2   ar
    12     2     3   ar
    13     3     4   ar
    14     4     5   ar
    15     5    20    1
    16    20    21    1
    17    21    22    1
    18    22    23    1
    19    23    24   ar
    20    24    25   ar
    21    25    26   ar
    22    26    27   ar
    23    27    28   ar
    24     5     6   ar
    25    14     9   ar
    26     6     1   ar
    27    28    23   ar
    28    15    18    1
    29    15    19    1
    30     7     8    1
@<TRIPOS>MOLECULE
*****
 28 30 0 0 0
SMALL
GASTEIGER

@<TRIPOS>ATOM
      1 C          -9.5945  -17.0706   23.4608 C.ar    1  UNL1        0.0514
      2 C         -10.5403  -18.0217   24.1324 C.ar    1  UNL1        0.0148
      3 C         -10.9851  -19.2649   23.4206 C.ar    1  UNL1        0.0044
      4 C         -10.4841  -19.5570   22.0373 C.ar    1  UNL1        0.0370
      5 C          -9.5383  -18.6060   21.3657 C.ar    1  UNL1        0.1398
      6 C          -9.0935  -17.3627   22.0775 C.ar    1  UNL1        0.0515
      7 N          -9.1498  -15.8274   24.1726 N.pl3   1  UNL1       -0.3123
      8 H          -9.8034  -15.1239   24.3895 H       1  UNL1        0.1522
      9 C          -7.3093  -15.6683   25.9994 C.ar    1  UNL1        0.0665
     10 C          -5.8687  -15.4969   26.3805 C.ar    1  UNL1        0.0057
     11 C          -4.8280  -15.3134   25.3160 C.ar    1  UNL1        0.0002
     12 C          -5.2278  -15.3012   23.8704 C.ar    1  UNL1        0.0013
     13 C          -6.6684  -15.4725   23.4893 C.ar    1  UNL1        0.0148
     14 C          -7.7092  -15.6560   24.5538 C.ar    1  UNL1        0.0527
     15 N          -8.9397  -17.2089   27.3102 N.am    1  UNL1       -0.3253
     16 C          -8.3500  -15.8518   27.0639 C.2     1  UNL1        0.2440
     17 O          -8.8011  -14.6784   27.8821 O.2     1  UNL1       -0.2703
     18 H          -9.6228  -17.3293   28.0089 H       1  UNL1        0.1453
     19 H          -8.6437  -17.9791   26.7732 H       1  UNL1        0.1453
     20 O          -9.0373  -18.8982   19.9824 O.3     1  UNL1       -0.4751
     21 C          -7.6301  -19.3765   19.7798 C.3     1  UNL1        0.2101
     22 C          -6.9160  -20.0959   20.8854 C.3     1  UNL1        0.0736
     23 C          -5.4912  -19.7533   21.2056 C.ar    1  UNL1       -0.0184
     24 C          -4.3803  -20.2957   20.3560 C.ar    1  UNL1       -0.0041
     25 C          -2.9555  -19.9531   20.6761 C.ar    1  UNL1       -0.0003
     26 C          -2.6415  -19.0682   21.8459 C.ar    1  UNL1       -0.0000
     27 C          -3.7524  -18.5259   22.6955 C.ar    1  UNL1       -0.0003
     28 C          -5.1772  -18.8685   22.3754 C.ar    1  UNL1       -0.0041
@<TRIPOS>BOND
     1    15    16   am
     2    16    17    2
     3    16     9    1
     4     9    10   ar
     5    10    11   ar
     6    11    12   ar
     7    12    13   ar
     8    13    14   ar
     9    14     7    1
    10     7     1    1
    11     1     2   ar
    12     2     3   ar
    13     3     4   ar
    14     4     5   ar
    15     5    20    1
    16    20    21    1
    17    21    22    1
    18    22    23    1
    19    23    24   ar
    20    24    25   ar
    21    25    26   ar
    22    26    27   ar
    23    27    28   ar
    24     5     6   ar
    25    14     9   ar
    26     6     1   ar
    27    28    23   ar
    28    15    18    1
    29    15    19    1
    30     7     8    1
@<TRIPOS>MOLECULE
*****
 28 30 0 0 0
SMALL
GASTEIGER

@<TRIPOS>ATOM
      1 C          -6.2800  -19.5327   21.4227 C.ar    1  UNL1        0.0514
      2 C          -6.7204  -19.7243   20.0016 C.ar    1  UNL1        0.0148
      3 C          -8.1593  -19.5231   19.6288 C.ar    1  UNL1        0.0044
      4 C          -9.1578  -19.1302   20.6770 C.ar    1  UNL1        0.0370
      5 C          -8.7174  -18.9386   22.0980 C.ar    1  UNL1        0.1398
      6 C          -7.2785  -19.1398   22.4709 C.ar    1  UNL1        0.0515
      7 N          -4.8411  -19.7339   21.7956 N.pl3   1  UNL1       -0.3123
      8 H          -4.6015  -20.3690   22.5087 H       1  UNL1        0.1522
      9 C          -3.1823  -17.7362   21.7079 C.ar    1  UNL1        0.0665
     10 C          -2.1083  -16.9699   20.9942 C.ar    1  UNL1        0.0057
     11 C          -1.6192  -17.4348   19.6546 C.ar    1  UNL1        0.0002
     12 C          -2.2041  -18.6661   19.0286 C.ar    1  UNL1        0.0013
     13 C          -3.2780  -19.4324   19.7423 C.ar    1  UNL1        0.0148
     14 C          -3.7671  -18.9675   21.0819 C.ar    1  UNL1        0.0527
     15 N          -4.2053  -15.8789   23.2091 N.am    1  UNL1       -0.3253
     16 C          -3.6714  -17.2713   23.0475 C.2     1  UNL1        0.2440
     17 O          -3.6265  -18.1987   24.2255 O.2     1  UNL1       -0.2703
     18 H          -4.5263  -15.5737   24.0883 H       1  UNL1        0.1453
     19 H          -4.2347  -15.2702   22.4359 H       1  UNL1        0.1453
     20 O          -9.7159  -18.5457   23.1461 O.3     1  UNL1       -0.4751
     21 C         -10.0901  -17.1040   23.3226 C.3     1  UNL1        0.2101
     22 C          -9.0201  -16.0675   23.4984 C.3     1  UNL1        0.0736
     23 C          -8.2933  -15.9540   24.8056 C.ar    1  UNL1       -0.0184
     24 C          -8.9134  -16.4985   26.0582 C.ar    1  UNL1       -0.0041
     25 C          -8.1866  -16.3850   27.3654 C.ar    1  UNL1       -0.0003
     26 C          -6.8397  -15.7271   27.4201 C.ar    1  UNL1       -0.0000
     27 C          -6.2196  -15.1826   26.1675 C.ar    1  UNL1       -0.0003
     28 C          -6.9464  -15.2961   24.8602 C.ar    1  UNL1       -0.0041
@<TRIPOS>BOND
     1    15    16   am
     2    16    17    2
     3    16     9    1
     4     9    10   ar
     5    10    11   ar
     6    11    12   ar
     7    12    13   ar
     8    13    14   ar
     9    14     7    1
    10     7     1    1
    11     1     2   ar
    12     2     3   ar
    13     3     4   ar
    14     4     5   ar
    15     5    20    1
    16    20    21    1
    17    21    22    1
    18    22    23    1
    19    23    24   ar
    20    24    25   ar
    21    25    26   ar
    22    26    27   ar
    23    27    28   ar
    24     5     6   ar
    25    14     9   ar
    26     6     1   ar
    27    28    23   ar
    28    15    18    1
    29    15    19    1
    30     7     8    1
@<TRIPOS>MOLECULE
*****
 28 30 0 0 0
SMALL
GASTEIGER

@<TRIPOS>ATOM
      1 C          -5.4194  -19.8705   21.1457 C.ar    1  UNL1        0.0514
      2 C          -5.4715  -21.1059   20.2963 C.ar    1  UNL1        0.0148
      3 C          -6.6794  -21.3851   19.4520 C.ar    1  UNL1        0.0044
      4 C          -7.8353  -20.4291   19.4569 C.ar    1  UNL1        0.0370
      5 C          -7.7832  -19.1938   20.3062 C.ar    1  UNL1        0.1398
      6 C          -6.5753  -18.9145   21.1506 C.ar    1  UNL1        0.0515
      7 N          -4.2115  -19.5913   21.9900 N.pl3   1  UNL1       -0.3123
      8 H          -4.1058  -20.0379   22.8609 H       1  UNL1        0.1522
      9 C          -2.9832  -17.3111   22.1954 C.ar    1  UNL1        0.0665
     10 C          -1.9364  -16.3514   21.7127 C.ar    1  UNL1        0.0057
     11 C          -1.0709  -16.7121   20.5419 C.ar    1  UNL1        0.0002
     12 C          -1.2523  -18.0325   19.8537 C.ar    1  UNL1        0.0013
     13 C          -2.2991  -18.9922   20.3364 C.ar    1  UNL1        0.0148
     14 C          -3.1646  -18.6315   21.5073 C.ar    1  UNL1        0.0527
     15 N          -4.6463  -15.6802   23.3462 N.am    1  UNL1       -0.3253
     16 C          -3.8487  -16.9504   23.3663 C.2     1  UNL1        0.2440
     17 O          -3.9165  -17.8599   24.5572 O.2     1  UNL1       -0.2703
     18 H          -5.2143  -15.4435   24.1147 H       1  UNL1        0.1453
     19 H          -4.6018  -15.0833   22.5646 H       1  UNL1        0.1453
     20 O          -8.9391  -18.2378   20.3112 O.3     1  UNL1       -0.4751
     21 C         -10.2771  -18.6760   19.7939 C.3     1  UNL1        0.2101
     22 C         -11.3057  -19.2200   20.7405 C.3     1  UNL1        0.0736
     23 C         -10.9933  -19.3336   22.2032 C.ar    1  UNL1       -0.0184
     24 C          -9.9177  -20.2693   22.6699 C.ar    1  UNL1       -0.0041
     25 C          -9.6053  -20.3829   24.1326 C.ar    1  UNL1       -0.0003
     26 C         -10.3684  -19.5609   25.1286 C.ar    1  UNL1       -0.0000
     27 C         -11.4439  -18.6253   24.6619 C.ar    1  UNL1       -0.0003
     28 C         -11.7564  -18.5116   23.1992 C.ar    1  UNL1       -0.0041
@<TRIPOS>BOND
     1    15    16   am
     2    16    17    2
     3    16     9    1
     4     9    10   ar
     5    10    11   ar
     6    11    12   ar
     7    12    13   ar
     8    13    14   ar
     9    14     7    1
    10     7     1    1
    11     1     2   ar
    12     2     3   ar
    13     3     4   ar
    14     4     5   ar
    15     5    20    1
    16    20    21    1
    17    21    22    1
    18    22    23    1
    19    23    24   ar
    20    24    25   ar
    21    25    26   ar
    22    26    27   ar
    23    27    28   ar
    24     5     6   ar
    25    14     9   ar
    26     6     1   ar
    27    28    23   ar
    28    15    18    1
    29    15    19    1
    30     7     8    1
@<TRIPOS>MOLECULE
*****
 28 30 0 0 0
SMALL
GASTEIGER

@<TRIPOS>ATOM
      1 C          -4.9232  -19.8220   21.1853 C.ar    1  UNL1        0.0514
      2 C          -5.2975  -20.9220   20.2365 C.ar    1  UNL1        0.0148
      3 C          -6.6855  -20.9851   19.6715 C.ar    1  UNL1        0.0044
      4 C          -7.6994  -19.9484   20.0552 C.ar    1  UNL1        0.0370
      5 C          -7.3252  -18.8485   21.0039 C.ar    1  UNL1        0.1398
      6 C          -5.9371  -18.7853   21.5690 C.ar    1  UNL1        0.0515
      7 N          -3.5352  -19.7589   21.7504 N.pl3   1  UNL1       -0.3123
      8 H          -3.2419  -20.4271   22.4112 H       1  UNL1        0.1522
      9 C          -2.5964  -17.3499   22.0064 C.ar    1  UNL1        0.0665
     10 C          -1.6553  -16.2687   21.5646 C.ar    1  UNL1        0.0057
     11 C          -0.7117  -16.5153   20.4249 C.ar    1  UNL1        0.0002
     12 C          -0.7093  -17.8430   19.7270 C.ar    1  UNL1        0.0013
     13 C          -1.6505  -18.9242   20.1688 C.ar    1  UNL1        0.0148
     14 C          -2.5940  -18.6776   21.3085 C.ar    1  UNL1        0.0527
     15 N          -4.3724  -15.8559   23.1742 N.am    1  UNL1       -0.3253
     16 C          -3.5400  -17.1034   23.1461 C.2     1  UNL1        0.2440
     17 O          -3.6511  -18.1043   24.2577 O.2     1  UNL1       -0.2703
     18 H          -4.9917  -15.6941   23.9222 H       1  UNL1        0.1453
     19 H          -4.2994  -15.1989   22.4446 H       1  UNL1        0.1453
     20 O          -8.3390  -17.8117   21.3876 O.3     1  UNL1       -0.4751
     21 C          -8.0028  -16.7816   22.4248 C.3     1  UNL1        0.2101
     22 C          -9.0989  -16.1091   23.1969 C.3     1  UNL1        0.0736
     23 C         -10.4373  -16.7727   23.3320 C.ar    1  UNL1       -0.0184
     24 C         -11.6182  -16.2404   22.5755 C.ar    1  UNL1       -0.0041
     25 C         -12.9566  -16.9040   22.7105 C.ar    1  UNL1       -0.0003
     26 C         -13.1141  -18.1000   23.6020 C.ar    1  UNL1       -0.0000
     27 C         -11.9334  -18.6323   24.3585 C.ar    1  UNL1       -0.0003
     28 C         -10.5949  -17.9687   24.2235 C.ar    1  UNL1       -0.0041
@<TRIPOS>BOND
     1    15    16   am
     2    16    17    2
     3    16     9    1
     4     9    10   ar
     5    10    11   ar
     6    11    12   ar
     7    12    13   ar
     8    13    14   ar
     9    14     7    1
    10     7     1    1
    11     1     2   ar
    12     2     3   ar
    13     3     4   ar
    14     4     5   ar
    15     5    20    1
    16    20    21    1
    17    21    22    1
    18    22    23    1
    19    23    24   ar
    20    24    25   ar
    21    25    26   ar
    22    26    27   ar
    23    27    28   ar
    24     5     6   ar
    25    14     9   ar
    26     6     1   ar
    27    28    23   ar
    28    15    18    1
    29    15    19    1
    30     7     8    1
