@<TRIPOS>MOLECULE
*****
 42 45 0 0 0
SMALL
GASTEIGER

@<TRIPOS>ATOM
      1 N          -4.5569  -20.1599   19.5239 N.am    1  UNL1       -0.2903
      2 C          -5.7306  -19.5990   20.2707 C.2     1  UNL1        0.3044
      3 O          -5.5655  -18.3685   21.1123 O.2     1  UNL1       -0.2525
      4 N          -7.0695  -20.2686   20.1757 N.am    1  UNL1       -0.2683
      5 H          -4.6653  -20.9676   18.9715 H       1  UNL1        0.1509
      6 H          -7.1779  -21.0763   19.6233 H       1  UNL1        0.1564
      7 C          -8.2432  -19.7077   20.9225 C.ar    1  UNL1        0.0514
      8 C          -9.1308  -18.6898   20.2695 C.ar    1  UNL1        0.0178
      9 C         -10.3045  -18.1289   21.0163 C.ar    1  UNL1        0.0383
     10 C         -10.5908  -18.5858   22.4160 C.ar    1  UNL1        0.0011
     11 C          -9.7033  -19.6037   23.0690 C.ar    1  UNL1        0.0030
     12 C          -8.5295  -20.1646   22.3222 C.ar    1  UNL1        0.0127
     13 C         -11.1919  -17.1111   20.3633 C.ar    1  UNL1        0.1839
     14 N         -10.8167  -16.2206   19.2160 N.ar    1  UNL1       -0.1081
     15 N         -12.0032  -15.3641   18.8865 N.ar    1  UNL1       -0.0227
     16 N         -13.1119  -15.7252   19.8303 N.ar    1  UNL1       -0.0429
     17 N         -12.6104  -16.8049   20.7430 N.ar    1  UNL1       -0.2113
     18 C         -13.3906  -17.4629   21.8423 C.3     1  UNL1        0.1573
     19 C          -9.9896  -20.0606   24.4687 C.3     1  UNL1        0.1072
     20 C          -9.0694  -21.2293   24.2755 C.3     1  UNL1        0.0339
     21 C         -10.9099  -18.8919   24.6620 C.3     1  UNL1        0.0339
     22 O         -10.2759  -20.5175   25.8685 O.3     1  UNL1       -0.3827
     23 H          -9.7766  -21.3285   26.0523 H       1  UNL1        0.2107
     24 C          -3.2180  -19.4903   19.6188 C.3     1  UNL1        0.0744
     25 C          -1.4389  -17.9393   18.5330 C.3     1  UNL1        0.0017
     26 C          -2.8656  -18.3808   18.6729 C.3     1  UNL1        0.0197
     27 C          -2.2315  -19.9302   20.6597 C.3     1  UNL1        0.0369
     28 C          -2.4029  -19.4978   22.0857 C.3     1  UNL1        0.0738
     29 N          -2.7917  -18.0833   22.3990 N.3     1  UNL1       -0.2726
     30 C          -2.1908  -16.9505   21.6209 C.3     1  UNL1        0.0721
     31 C          -2.5795  -15.5360   21.9342 C.3     1  UNL1        0.0174
     32 C          -3.5692  -15.2544   23.0257 C.3     1  UNL1        0.0031
     33 C          -4.1701  -16.3873   23.8038 C.3     1  UNL1        0.0204
     34 C          -3.7813  -17.8017   23.4905 C.3     1  UNL1        0.0724
     35 C          -5.1597  -16.1057   24.8953 C.3     1  UNL1        0.0277
     36 C          -6.6183  -15.9768   24.5702 C.ar    1  UNL1       -0.0220
     37 C          -7.0765  -16.0330   23.1430 C.ar    1  UNL1       -0.0020
     38 C          -8.5351  -15.9041   22.8179 C.ar    1  UNL1        0.0293
     39 C          -9.5357  -15.7189   23.9200 C.ar    1  UNL1        0.1401
     40 F         -10.9944  -15.5900   23.5949 F       1  UNL1       -0.2042
     41 C          -9.0775  -15.6627   25.3472 C.ar    1  UNL1        0.0293
     42 C          -7.6188  -15.7916   25.6723 C.ar    1  UNL1       -0.0020
@<TRIPOS>BOND
     1    25    26    1
     2    24    26    1
     3    24    27    1
     4    27    28    1
     5    28    29    1
     6    29    30    1
     7    30    31    1
     8    31    32    1
     9    32    33    1
    10    33    35    1
    11    35    36    1
    12    36    37   ar
    13    37    38   ar
    14    38    39   ar
    15    39    40    1
    16    39    41   ar
    17    41    42   ar
    18    33    34    1
    19    24     1    1
    20     1     2   am
    21     2     3    2
    22     2     4   am
    23     4     7    1
    24     7     8   ar
    25     8     9   ar
    26     9    13    1
    27    13    14   ar
    28    14    15   ar
    29    15    16   ar
    30    16    17   ar
    31    17    18    1
    32     9    10   ar
    33    10    11   ar
    34    11    19    1
    35    19    20    1
    36    19    21    1
    37    19    22    1
    38    11    12   ar
    39    34    29    1
    40    12     7   ar
    41    42    36   ar
    42    17    13   ar
    43     1     5    1
    44     4     6    1
    45    22    23    1
@<TRIPOS>MOLECULE
*****
 42 45 0 0 0
SMALL
GASTEIGER

@<TRIPOS>ATOM
      1 N          -7.2573  -16.8325   26.2829 N.am    1  UNL1       -0.2903
      2 C          -8.4701  -16.6462   25.4202 C.2     1  UNL1        0.3044
      3 O          -8.7790  -15.2971   24.8418 O.2     1  UNL1       -0.2525
      4 N          -9.3740  -17.8090   25.1358 N.am    1  UNL1       -0.2683
      5 H          -7.0546  -17.7179   26.6625 H       1  UNL1        0.1509
      6 H          -9.1712  -18.6945   25.5154 H       1  UNL1        0.1564
      7 C         -10.5868  -17.6227   24.2730 C.ar    1  UNL1        0.0514
      8 C         -10.4652  -16.9313   22.9474 C.ar    1  UNL1        0.0178
      9 C         -11.6780  -16.7450   22.0846 C.ar    1  UNL1        0.0383
     10 C         -13.0124  -17.2502   22.5474 C.ar    1  UNL1        0.0011
     11 C         -13.1340  -17.9416   23.8730 C.ar    1  UNL1        0.0030
     12 C         -11.9212  -18.1279   24.7358 C.ar    1  UNL1        0.0127
     13 C         -11.5564  -16.0536   20.7591 C.ar    1  UNL1        0.1839
     14 N         -12.6150  -15.9884   19.6982 N.ar    1  UNL1       -0.1081
     15 N         -12.0677  -15.2005   18.5451 N.ar    1  UNL1       -0.0227
     16 N         -10.6708  -14.7788   18.8932 N.ar    1  UNL1       -0.0429
     17 N         -10.3549  -15.3061   20.2615 N.ar    1  UNL1       -0.2113
     18 C          -9.0640  -15.1187   21.0022 C.3     1  UNL1        0.1573
     19 C         -14.4685  -18.4467   24.3358 C.3     1  UNL1        0.1072
     20 C         -13.9725  -18.4600   25.7513 C.3     1  UNL1        0.0339
     21 C         -14.9644  -18.4334   22.9202 C.3     1  UNL1        0.0339
     22 O         -15.8029  -18.9518   24.7986 O.3     1  UNL1       -0.3827
     23 H         -15.7881  -19.0688   25.7614 H       1  UNL1        0.2107
     24 C          -6.3535  -15.6697   26.5674 C.3     1  UNL1        0.0744
     25 C          -8.1140  -14.5415   28.1092 C.3     1  UNL1        0.0017
     26 C          -6.6896  -14.7108   27.6708 C.3     1  UNL1        0.0197
     27 C          -5.1134  -15.4657   25.7483 C.3     1  UNL1        0.0369
     28 C          -5.1970  -15.4562   24.2507 C.3     1  UNL1        0.0738
     29 N          -4.6230  -16.5945   23.4601 N.3     1  UNL1       -0.2726
     30 C          -3.1911  -16.5521   23.0156 C.3     1  UNL1        0.0721
     31 C          -2.6172  -17.6904   22.2251 C.3     1  UNL1        0.0174
     32 C          -3.4752  -18.8711   21.8792 C.3     1  UNL1        0.0031
     33 C          -4.9072  -18.9135   22.3238 C.3     1  UNL1        0.0204
     34 C          -5.4811  -17.7752   23.1143 C.3     1  UNL1        0.0724
     35 C          -5.7652  -20.0942   21.9779 C.3     1  UNL1        0.0277
     36 C          -7.1006  -19.8860   21.3274 C.ar    1  UNL1       -0.0220
     37 C          -8.3515  -19.9204   22.1546 C.ar    1  UNL1       -0.0020
     38 C          -9.6869  -19.7121   21.5041 C.ar    1  UNL1        0.0293
     39 C          -9.7716  -19.4695   20.0263 C.ar    1  UNL1        0.1401
     40 F         -11.1071  -19.2612   19.3758 F       1  UNL1       -0.2042
     41 C          -8.5209  -19.4351   19.1990 C.ar    1  UNL1        0.0293
     42 C          -7.1853  -19.6433   19.8495 C.ar    1  UNL1       -0.0020
@<TRIPOS>BOND
     1    25    26    1
     2    24    26    1
     3    24    27    1
     4    27    28    1
     5    28    29    1
     6    29    30    1
     7    30    31    1
     8    31    32    1
     9    32    33    1
    10    33    35    1
    11    35    36    1
    12    36    37   ar
    13    37    38   ar
    14    38    39   ar
    15    39    40    1
    16    39    41   ar
    17    41    42   ar
    18    33    34    1
    19    24     1    1
    20     1     2   am
    21     2     3    2
    22     2     4   am
    23     4     7    1
    24     7     8   ar
    25     8     9   ar
    26     9    13    1
    27    13    14   ar
    28    14    15   ar
    29    15    16   ar
    30    16    17   ar
    31    17    18    1
    32     9    10   ar
    33    10    11   ar
    34    11    19    1
    35    19    20    1
    36    19    21    1
    37    19    22    1
    38    11    12   ar
    39    34    29    1
    40    12     7   ar
    41    42    36   ar
    42    17    13   ar
    43     1     5    1
    44     4     6    1
    45    22    23    1
@<TRIPOS>MOLECULE
*****
 42 45 0 0 0
SMALL
GASTEIGER

@<TRIPOS>ATOM
      1 N           1.8758   -0.7431   29.0316 N.am    1  UNL1       -0.2903
      2 C           1.3407    0.3776   28.1903 C.2     1  UNL1        0.3044
      3 O           2.0770    1.6827   28.1234 O.2     1  UNL1       -0.2525
      4 N           0.0694    0.1931   27.4159 N.am    1  UNL1       -0.2683
      5 H           1.3925   -1.5997   29.0755 H       1  UNL1        0.1509
      6 H          -0.4138   -0.6635   27.4598 H       1  UNL1        0.1564
      7 C          -0.4657    1.3138   26.5746 C.ar    1  UNL1        0.0514
      8 C          -1.4800    2.2609   27.1441 C.ar    1  UNL1        0.0178
      9 C          -2.0150    3.3815   26.3028 C.ar    1  UNL1        0.0383
     10 C          -1.5358    3.5551   24.8920 C.ar    1  UNL1        0.0011
     11 C          -0.5215    2.6081   24.3226 C.ar    1  UNL1        0.0030
     12 C           0.0136    1.4874   25.1639 C.ar    1  UNL1        0.0127
     13 C          -3.0293    4.3286   26.8722 C.ar    1  UNL1        0.1839
     14 N          -4.5139    4.1160   26.9040 N.ar    1  UNL1       -0.1081
     15 N          -5.1393    5.3105   27.5613 N.ar    1  UNL1       -0.0227
     16 N          -4.0412    6.2614   27.9358 N.ar    1  UNL1       -0.0429
     17 N          -2.7372    5.6545   27.5099 N.ar    1  UNL1       -0.2113
     18 C          -1.3795    6.2662   27.6901 C.3     1  UNL1        0.1573
     19 C          -0.0423    2.7817   22.9118 C.3     1  UNL1        0.1072
     20 C           0.6931    1.4774   23.0011 C.3     1  UNL1        0.0339
     21 C          -0.7777    4.0860   22.8225 C.3     1  UNL1        0.0339
     22 O           0.4369    2.9553   21.5011 O.3     1  UNL1       -0.3827
     23 H           0.9886    2.1975   21.2514 H       1  UNL1        0.2107
     24 C           3.1471   -0.5586   29.8060 C.3     1  UNL1        0.0744
     25 C           2.4190    1.0520   31.7101 C.3     1  UNL1        0.0017
     26 C           3.0933   -0.2115   31.2643 C.3     1  UNL1        0.0197
     27 C           4.4722   -0.7212   29.1221 C.3     1  UNL1        0.0369
     28 C           4.5937   -1.6178   27.9257 C.3     1  UNL1        0.0738
     29 N           4.8620   -1.0299   26.5720 N.3     1  UNL1       -0.2726
     30 C           6.0885   -0.1965   26.3460 C.3     1  UNL1        0.0721
     31 C           6.3568    0.3914   24.9924 C.3     1  UNL1        0.0174
     32 C           5.3986    0.1458   23.8647 C.3     1  UNL1        0.0031
     33 C           4.1722   -0.6877   24.0907 C.3     1  UNL1        0.0204
     34 C           3.9039   -1.2755   25.4444 C.3     1  UNL1        0.0724
     35 C           3.2140   -0.9333   22.9631 C.3     1  UNL1        0.0277
     36 C           3.6036   -1.8372   21.8312 C.ar    1  UNL1       -0.0220
     37 C           3.1917   -1.5025   20.4282 C.ar    1  UNL1       -0.0020
     38 C           3.5813   -2.4064   19.2964 C.ar    1  UNL1        0.0293
     39 C           4.3828   -3.6450   19.5675 C.ar    1  UNL1        0.1401
     40 F           4.7724   -4.5489   18.4355 F       1  UNL1       -0.2042
     41 C           4.7948   -3.9797   20.9704 C.ar    1  UNL1        0.0293
     42 C           4.4052   -3.0757   22.1023 C.ar    1  UNL1       -0.0020
@<TRIPOS>BOND
     1    25    26    1
     2    24    26    1
     3    24    27    1
     4    27    28    1
     5    28    29    1
     6    29    30    1
     7    30    31    1
     8    31    32    1
     9    32    33    1
    10    33    35    1
    11    35    36    1
    12    36    37   ar
    13    37    38   ar
    14    38    39   ar
    15    39    40    1
    16    39    41   ar
    17    41    42   ar
    18    33    34    1
    19    24     1    1
    20     1     2   am
    21     2     3    2
    22     2     4   am
    23     4     7    1
    24     7     8   ar
    25     8     9   ar
    26     9    13    1
    27    13    14   ar
    28    14    15   ar
    29    15    16   ar
    30    16    17   ar
    31    17    18    1
    32     9    10   ar
    33    10    11   ar
    34    11    19    1
    35    19    20    1
    36    19    21    1
    37    19    22    1
    38    11    12   ar
    39    34    29    1
    40    12     7   ar
    41    42    36   ar
    42    17    13   ar
    43     1     5    1
    44     4     6    1
    45    22    23    1
@<TRIPOS>MOLECULE
*****
 42 45 0 0 0
SMALL
GASTEIGER

@<TRIPOS>ATOM
      1 N           5.1876    0.1287   27.0154 N.am    1  UNL1       -0.2903
      2 C           4.4394   -0.3231   25.7964 C.2     1  UNL1        0.3044
      3 O           3.5374   -1.5193   25.8707 O.2     1  UNL1       -0.2525
      4 N           4.5933    0.4211   24.5032 N.am    1  UNL1       -0.2683
      5 H           5.7797    0.9138   26.9667 H       1  UNL1        0.1509
      6 H           5.1853    1.2062   24.4545 H       1  UNL1        0.1564
      7 C           3.8450   -0.0307   23.2842 C.ar    1  UNL1        0.0514
      8 C           4.3620   -1.1796   22.4699 C.ar    1  UNL1        0.0178
      9 C           3.6137   -1.6314   21.2509 C.ar    1  UNL1        0.0383
     10 C           2.3486   -0.9345   20.8462 C.ar    1  UNL1        0.0011
     11 C           1.8317    0.2142   21.6605 C.ar    1  UNL1        0.0030
     12 C           2.5799    0.6661   22.8796 C.ar    1  UNL1        0.0127
     13 C           4.1307   -2.7802   20.4366 C.ar    1  UNL1        0.1839
     14 N           4.3140   -4.1894   20.9168 N.ar    1  UNL1       -0.1081
     15 N           4.8517   -5.0016   19.7761 N.ar    1  UNL1       -0.0227
     16 N           5.0006   -4.0944   18.5908 N.ar    1  UNL1       -0.0429
     17 N           4.5550   -2.7215   18.9991 N.ar    1  UNL1       -0.2113
     18 C           4.5370   -1.5037   18.1234 C.3     1  UNL1        0.1573
     19 C           0.5665    0.9111   21.2558 C.3     1  UNL1        0.1072
     20 C           0.6171    0.2281   19.9213 C.3     1  UNL1        0.0339
     21 C           0.5159    1.5942   22.5903 C.3     1  UNL1        0.0339
     22 O          -0.6986    1.6080   20.8512 O.3     1  UNL1       -0.3827
     23 H          -0.9405    1.3418   19.9503 H       1  UNL1        0.2107
     24 C           5.0338   -0.6155   28.3086 C.3     1  UNL1        0.0744
     25 C           7.0200   -2.1584   27.6575 C.3     1  UNL1        0.0017
     26 C           5.9388   -1.7700   28.6218 C.3     1  UNL1        0.0197
     27 C           3.9749   -0.2053   29.2887 C.3     1  UNL1        0.0369
     28 C           3.2787    1.1141   29.1321 C.3     1  UNL1        0.0738
     29 N           1.8663    1.1618   28.6290 N.3     1  UNL1       -0.2726
     30 C           0.9087    0.0610   28.9768 C.3     1  UNL1        0.0721
     31 C          -0.5036    0.1088   28.4737 C.3     1  UNL1        0.0174
     32 C          -0.9582    1.2574   27.6229 C.3     1  UNL1        0.0031
     33 C          -0.0006    2.3583   27.2751 C.3     1  UNL1        0.0204
     34 C           1.4117    2.3105   27.7782 C.3     1  UNL1        0.0724
     35 C          -0.4552    3.5069   26.4243 C.3     1  UNL1        0.0277
     36 C          -1.9031    3.6404   26.0559 C.ar    1  UNL1       -0.0220
     37 C          -2.3697    3.2355   24.6890 C.ar    1  UNL1       -0.0020
     38 C          -3.8176    3.3690   24.3206 C.ar    1  UNL1        0.0293
     39 C          -4.7990    3.9074   25.3191 C.ar    1  UNL1        0.1401
     40 F          -6.2469    4.0409   24.9507 F       1  UNL1       -0.2042
     41 C          -4.3325    4.3123   26.6860 C.ar    1  UNL1        0.0293
     42 C          -2.8845    4.1788   27.0544 C.ar    1  UNL1       -0.0020
@<TRIPOS>BOND
     1    25    26    1
     2    24    26    1
     3    24    27    1
     4    27    28    1
     5    28    29    1
     6    29    30    1
     7    30    31    1
     8    31    32    1
     9    32    33    1
    10    33    35    1
    11    35    36    1
    12    36    37   ar
    13    37    38   ar
    14    38    39   ar
    15    39    40    1
    16    39    41   ar
    17    41    42   ar
    18    33    34    1
    19    24     1    1
    20     1     2   am
    21     2     3    2
    22     2     4   am
    23     4     7    1
    24     7     8   ar
    25     8     9   ar
    26     9    13    1
    27    13    14   ar
    28    14    15   ar
    29    15    16   ar
    30    16    17   ar
    31    17    18    1
    32     9    10   ar
    33    10    11   ar
    34    11    19    1
    35    19    20    1
    36    19    21    1
    37    19    22    1
    38    11    12   ar
    39    34    29    1
    40    12     7   ar
    41    42    36   ar
    42    17    13   ar
    43     1     5    1
    44     4     6    1
    45    22    23    1
@<TRIPOS>MOLECULE
*****
 42 45 0 0 0
SMALL
GASTEIGER

@<TRIPOS>ATOM
      1 N          -0.6811    3.8084   20.4738 N.am    1  UNL1       -0.2903
      2 C           0.1622    2.5877   20.6938 C.2     1  UNL1        0.3044
      3 O          -0.4247    1.2232   20.4852 O.2     1  UNL1       -0.2525
      4 N           1.5925    2.7314   21.1224 N.am    1  UNL1       -0.2683
      5 H          -0.2959    4.7041   20.6107 H       1  UNL1        0.1509
      6 H           1.9777    3.6270   21.2594 H       1  UNL1        0.1564
      7 C           2.4358    1.5106   21.3424 C.ar    1  UNL1        0.0514
      8 C           3.1899    0.9036   20.1966 C.ar    1  UNL1        0.0178
      9 C           4.0333   -0.3172   20.4166 C.ar    1  UNL1        0.0383
     10 C           4.1225   -0.9310   21.7824 C.ar    1  UNL1        0.0011
     11 C           3.3685   -0.3239   22.9282 C.ar    1  UNL1        0.0030
     12 C           2.5251    0.8969   22.7082 C.ar    1  UNL1        0.0127
     13 C           4.7873   -0.9242   19.2708 C.ar    1  UNL1        0.1839
     14 N           5.8698   -0.2567   18.4753 N.ar    1  UNL1       -0.1081
     15 N           6.3428   -1.2253   17.4322 N.ar    1  UNL1       -0.0227
     16 N           5.5528   -2.4914   17.5829 N.ar    1  UNL1       -0.0429
     17 N           4.5914   -2.3054   18.7193 N.ar    1  UNL1       -0.2113
     18 C           3.6070   -3.3220   19.2168 C.3     1  UNL1        0.1573
     19 C           3.4577   -0.9377   24.2939 C.3     1  UNL1        0.1072
     20 C           4.3043   -2.0456   23.7408 C.3     1  UNL1        0.0339
     21 C           2.6112    0.1702   24.8471 C.3     1  UNL1        0.0339
     22 O           3.5470   -1.5514   25.6597 O.3     1  UNL1       -0.3827
     23 H           4.0824   -2.3592   25.6168 H       1  UNL1        0.2107
     24 C          -2.1114    3.6647   20.0452 C.3     1  UNL1        0.0744
     25 C          -3.9382    4.0001   18.2286 C.3     1  UNL1        0.0017
     26 C          -2.4920    3.8964   18.6129 C.3     1  UNL1        0.0197
     27 C          -3.1610    3.2892   21.0489 C.3     1  UNL1        0.0369
     28 C          -3.5916    4.2795   22.0900 C.3     1  UNL1        0.0738
     29 N          -3.3285    4.0045   23.5410 N.3     1  UNL1       -0.2726
     30 C          -4.3296    4.4221   24.5770 C.3     1  UNL1        0.0721
     31 C          -4.0666    4.1471   26.0278 C.3     1  UNL1        0.0174
     32 C          -2.8024    3.4545   26.4427 C.3     1  UNL1        0.0031
     33 C          -1.8013    3.0368   25.4068 C.3     1  UNL1        0.0204
     34 C          -2.0644    3.3118   23.9559 C.3     1  UNL1        0.0724
     35 C          -0.5372    2.3442   25.8216 C.3     1  UNL1        0.0277
     36 C          -0.2076    2.1934   27.2772 C.ar    1  UNL1       -0.0220
     37 C           0.4953    3.3005   28.0056 C.ar    1  UNL1       -0.0020
     38 C           0.8249    3.1497   29.4611 C.ar    1  UNL1        0.0293
     39 C           0.4517    1.8919   30.1883 C.ar    1  UNL1        0.1401
     40 F           0.7814    1.7412   31.6439 F       1  UNL1       -0.2042
     41 C          -0.2511    0.7849   29.4599 C.ar    1  UNL1        0.0293
     42 C          -0.5807    0.9356   28.0043 C.ar    1  UNL1       -0.0020
@<TRIPOS>BOND
     1    25    26    1
     2    24    26    1
     3    24    27    1
     4    27    28    1
     5    28    29    1
     6    29    30    1
     7    30    31    1
     8    31    32    1
     9    32    33    1
    10    33    35    1
    11    35    36    1
    12    36    37   ar
    13    37    38   ar
    14    38    39   ar
    15    39    40    1
    16    39    41   ar
    17    41    42   ar
    18    33    34    1
    19    24     1    1
    20     1     2   am
    21     2     3    2
    22     2     4   am
    23     4     7    1
    24     7     8   ar
    25     8     9   ar
    26     9    13    1
    27    13    14   ar
    28    14    15   ar
    29    15    16   ar
    30    16    17   ar
    31    17    18    1
    32     9    10   ar
    33    10    11   ar
    34    11    19    1
    35    19    20    1
    36    19    21    1
    37    19    22    1
    38    11    12   ar
    39    34    29    1
    40    12     7   ar
    41    42    36   ar
    42    17    13   ar
    43     1     5    1
    44     4     6    1
    45    22    23    1
@<TRIPOS>MOLECULE
*****
 42 45 0 0 0
SMALL
GASTEIGER

@<TRIPOS>ATOM
      1 N           4.9550   -2.1528   26.3984 N.am    1  UNL1       -0.2903
      2 C           4.5371   -1.6019   25.0673 C.2     1  UNL1        0.3044
      3 O           4.3671   -0.1225   24.8879 O.2     1  UNL1       -0.2525
      4 N           4.2892   -2.5305   23.9157 N.am    1  UNL1       -0.2683
      5 H           5.0666   -3.1239   26.5162 H       1  UNL1        0.1509
      6 H           4.4008   -3.5015   24.0335 H       1  UNL1        0.1564
      7 C           3.8714   -1.9796   22.5846 C.ar    1  UNL1        0.0514
      8 C           2.8155   -0.9166   22.5108 C.ar    1  UNL1        0.0178
      9 C           2.3976   -0.3657   21.1797 C.ar    1  UNL1        0.0383
     10 C           3.0355   -0.8777   19.9224 C.ar    1  UNL1        0.0011
     11 C           4.0914   -1.9406   19.9961 C.ar    1  UNL1        0.0030
     12 C           4.5093   -2.4916   21.3272 C.ar    1  UNL1        0.0127
     13 C           1.3418    0.6971   21.1060 C.ar    1  UNL1        0.1839
     14 N          -0.0824    0.4971   20.6796 N.ar    1  UNL1       -0.1081
     15 N          -0.7797    1.8230   20.7558 N.ar    1  UNL1       -0.0227
     16 N           0.2136    2.8426   21.2291 N.ar    1  UNL1       -0.0429
     17 N           1.5248    2.1467   21.4456 N.ar    1  UNL1       -0.2113
     18 C           2.7956    2.7879   21.9185 C.3     1  UNL1        0.1573
     19 C           4.7293   -2.4526   18.7388 C.3     1  UNL1        0.1072
     20 C           4.0653   -1.3586   17.9564 C.3     1  UNL1        0.0339
     21 C           5.3933   -3.5467   19.5211 C.3     1  UNL1        0.0339
     22 O           5.3672   -2.9646   17.4814 O.3     1  UNL1       -0.3827
     23 H           5.0999   -2.4080   16.7334 H       1  UNL1        0.2107
     24 C           5.2029   -1.2243   27.5501 C.3     1  UNL1        0.0744
     25 C           7.6123   -1.6082   28.4427 C.3     1  UNL1        0.0017
     26 C           6.5872   -0.7110   27.8151 C.3     1  UNL1        0.0197
     27 C           4.0664   -0.8090   28.4367 C.3     1  UNL1        0.0369
     28 C           3.3920    0.5134   28.2217 C.3     1  UNL1        0.0738
     29 N           1.8951    0.5913   28.1635 N.3     1  UNL1       -0.2726
     30 C           1.0642   -0.2306   29.1037 C.3     1  UNL1        0.0721
     31 C          -0.4326   -0.1527   29.0455 C.3     1  UNL1        0.0174
     32 C          -1.0985    0.7470   28.0469 C.3     1  UNL1        0.0031
     33 C          -0.2677    1.5689   27.1067 C.3     1  UNL1        0.0204
     34 C           1.2292    1.4910   27.1649 C.3     1  UNL1        0.0724
     35 C          -0.9336    2.4686   26.1081 C.3     1  UNL1        0.0277
     36 C          -1.7986    3.6003   26.5781 C.ar    1  UNL1       -0.0220
     37 C          -3.2913    3.4975   26.4720 C.ar    1  UNL1       -0.0020
     38 C          -4.1563    4.6293   26.9420 C.ar    1  UNL1        0.0293
     39 C          -3.5286    5.8639   27.5180 C.ar    1  UNL1        0.1401
     40 F          -4.3937    6.9957   27.9880 F       1  UNL1       -0.2042
     41 C          -2.0359    5.9667   27.6241 C.ar    1  UNL1        0.0293
     42 C          -1.1709    4.8349   27.1541 C.ar    1  UNL1       -0.0020
@<TRIPOS>BOND
     1    25    26    1
     2    24    26    1
     3    24    27    1
     4    27    28    1
     5    28    29    1
     6    29    30    1
     7    30    31    1
     8    31    32    1
     9    32    33    1
    10    33    35    1
    11    35    36    1
    12    36    37   ar
    13    37    38   ar
    14    38    39   ar
    15    39    40    1
    16    39    41   ar
    17    41    42   ar
    18    33    34    1
    19    24     1    1
    20     1     2   am
    21     2     3    2
    22     2     4   am
    23     4     7    1
    24     7     8   ar
    25     8     9   ar
    26     9    13    1
    27    13    14   ar
    28    14    15   ar
    29    15    16   ar
    30    16    17   ar
    31    17    18    1
    32     9    10   ar
    33    10    11   ar
    34    11    19    1
    35    19    20    1
    36    19    21    1
    37    19    22    1
    38    11    12   ar
    39    34    29    1
    40    12     7   ar
    41    42    36   ar
    42    17    13   ar
    43     1     5    1
    44     4     6    1
    45    22    23    1
@<TRIPOS>MOLECULE
*****
 42 45 0 0 0
SMALL
GASTEIGER

@<TRIPOS>ATOM
      1 N           0.9423    2.1862   27.1835 N.am    1  UNL1       -0.2903
      2 C           0.0482    2.2219   25.9797 C.2     1  UNL1        0.3044
      3 O          -0.2953    0.9500   25.2626 O.2     1  UNL1       -0.2525
      4 N          -0.5025    3.5295   25.4930 N.am    1  UNL1       -0.2683
      5 H           1.1678    3.0210   27.6541 H       1  UNL1        0.1509
      6 H          -0.2771    4.3643   25.9636 H       1  UNL1        0.1564
      7 C          -1.3967    3.5653   24.2892 C.ar    1  UNL1        0.0514
      8 C          -0.8012    3.5688   22.9124 C.ar    1  UNL1        0.0178
      9 C          -1.6954    3.6045   21.7086 C.ar    1  UNL1        0.0383
     10 C          -3.1851    3.6367   21.8815 C.ar    1  UNL1        0.0011
     11 C          -3.7805    3.6331   23.2582 C.ar    1  UNL1        0.0030
     12 C          -2.8864    3.5974   24.4621 C.ar    1  UNL1        0.0127
     13 C          -1.0999    3.6081   20.3319 C.ar    1  UNL1        0.1839
     14 N          -1.2171    4.7123   19.3234 N.ar    1  UNL1       -0.1081
     15 N          -0.4723    4.2948   18.0901 N.ar    1  UNL1       -0.0227
     16 N           0.1053    2.9325   18.3364 N.ar    1  UNL1       -0.0429
     17 N          -0.2826    2.5081   19.7219 N.ar    1  UNL1       -0.2113
     18 C           0.0826    1.2114   20.3815 C.3     1  UNL1        0.1573
     19 C          -5.2702    3.6652   23.4311 C.3     1  UNL1        0.1072
     20 C          -5.4415    3.7328   21.9425 C.3     1  UNL1        0.0339
     21 C          -5.0989    3.5977   24.9198 C.3     1  UNL1        0.0339
     22 O          -6.7598    3.6974   23.6040 O.3     1  UNL1       -0.3827
     23 H          -7.1854    3.7455   22.7337 H       1  UNL1        0.2107
     24 C           1.4930    0.8786   27.6702 C.3     1  UNL1        0.0744
     25 C          -0.6742   -0.1924   28.6219 C.3     1  UNL1        0.0017
     26 C           0.7856    0.1249   28.7571 C.3     1  UNL1        0.0197
     27 C           2.7512    0.3247   27.0699 C.3     1  UNL1        0.0369
     28 C           3.1600    0.7248   25.6833 C.3     1  UNL1        0.0738
     29 N           3.4996   -0.3265   24.6687 N.3     1  UNL1       -0.2726
     30 C           4.4551   -1.4278   25.0209 C.3     1  UNL1        0.0721
     31 C           4.7946   -2.4791   24.0063 C.3     1  UNL1        0.0174
     32 C           4.1786   -2.4291   22.6395 C.3     1  UNL1        0.0031
     33 C           3.2231   -1.3279   22.2873 C.3     1  UNL1        0.0204
     34 C           2.8836   -0.2766   23.3019 C.3     1  UNL1        0.0724
     35 C           2.6071   -1.2779   20.9206 C.3     1  UNL1        0.0277
     36 C           3.4165   -0.8038   19.7500 C.ar    1  UNL1       -0.0220
     37 C           3.8502   -1.7774   18.6945 C.ar    1  UNL1       -0.0020
     38 C           4.6596   -1.3033   17.5240 C.ar    1  UNL1        0.0293
     39 C           5.0352    0.1443   17.4089 C.ar    1  UNL1        0.1401
     40 F           5.8445    0.6184   16.2383 F       1  UNL1       -0.2042
     41 C           4.6014    1.1179   18.4643 C.ar    1  UNL1        0.0293
     42 C           3.7921    0.6438   19.6349 C.ar    1  UNL1       -0.0020
@<TRIPOS>BOND
     1    25    26    1
     2    24    26    1
     3    24    27    1
     4    27    28    1
     5    28    29    1
     6    29    30    1
     7    30    31    1
     8    31    32    1
     9    32    33    1
    10    33    35    1
    11    35    36    1
    12    36    37   ar
    13    37    38   ar
    14    38    39   ar
    15    39    40    1
    16    39    41   ar
    17    41    42   ar
    18    33    34    1
    19    24     1    1
    20     1     2   am
    21     2     3    2
    22     2     4   am
    23     4     7    1
    24     7     8   ar
    25     8     9   ar
    26     9    13    1
    27    13    14   ar
    28    14    15   ar
    29    15    16   ar
    30    16    17   ar
    31    17    18    1
    32     9    10   ar
    33    10    11   ar
    34    11    19    1
    35    19    20    1
    36    19    21    1
    37    19    22    1
    38    11    12   ar
    39    34    29    1
    40    12     7   ar
    41    42    36   ar
    42    17    13   ar
    43     1     5    1
    44     4     6    1
    45    22    23    1
@<TRIPOS>MOLECULE
*****
 42 45 0 0 0
SMALL
GASTEIGER

@<TRIPOS>ATOM
      1 N           6.4452   -3.2205   20.1742 N.am    1  UNL1       -0.2903
      2 C           6.2789   -3.6464   21.6028 C.2     1  UNL1        0.3044
      3 O           4.9203   -4.0119   22.1231 O.2     1  UNL1       -0.2525
      4 N           7.4711   -3.7068   22.5111 N.am    1  UNL1       -0.2683
      5 H           7.3368   -2.9806   19.8327 H       1  UNL1        0.1509
      6 H           8.3627   -3.4669   22.1696 H       1  UNL1        0.1564
      7 C           7.3048   -4.1326   23.9397 C.ar    1  UNL1        0.0514
      8 C           6.7512   -3.1712   24.9494 C.ar    1  UNL1        0.0178
      9 C           6.5849   -3.5971   26.3780 C.ar    1  UNL1        0.0383
     10 C           6.9722   -4.9843   26.7970 C.ar    1  UNL1        0.0011
     11 C           7.5257   -5.9457   25.7874 C.ar    1  UNL1        0.0030
     12 C           7.6920   -5.5199   24.3587 C.ar    1  UNL1        0.0127
     13 C           6.0314   -2.6357   27.3875 C.ar    1  UNL1        0.1839
     14 N           6.5136   -2.4630   28.7975 N.ar    1  UNL1       -0.1081
     15 N           5.6787   -1.3987   29.4458 N.ar    1  UNL1       -0.0227
     16 N           4.6806   -0.9136   28.4366 N.ar    1  UNL1       -0.0429
     17 N           4.8986   -1.6781   27.1645 N.ar    1  UNL1       -0.2113
     18 C           4.1204   -1.5138   25.8928 C.3     1  UNL1        0.1573
     19 C           7.9129   -7.3330   26.2064 C.3     1  UNL1        0.1072
     20 C           7.7164   -6.9535   27.6443 C.3     1  UNL1        0.0339
     21 C           8.1093   -7.7125   24.7686 C.3     1  UNL1        0.0339
     22 O           8.3001   -8.7203   26.6254 O.3     1  UNL1       -0.3827
     23 H           8.2638   -8.7879   27.5924 H       1  UNL1        0.2107
     24 C           5.2529   -3.1602   19.2659 C.3     1  UNL1        0.0744
     25 C           3.4136   -4.9925   19.3620 C.3     1  UNL1        0.0017
     26 C           4.6518   -4.4266   18.7323 C.3     1  UNL1        0.0197
     27 C           4.6619   -1.8334   18.8913 C.3     1  UNL1        0.0369
     28 C           4.5918   -0.7304   19.9054 C.3     1  UNL1        0.0738
     29 N           3.2595   -0.2442   20.3941 N.3     1  UNL1       -0.2726
     30 C           1.9965   -0.8273   19.8329 C.3     1  UNL1        0.0721
     31 C           0.6643   -0.3412   20.3215 C.3     1  UNL1        0.0174
     32 C           0.5950    0.7280   21.3713 C.3     1  UNL1        0.0031
     33 C           1.8580    1.3111   21.9325 C.3     1  UNL1        0.0204
     34 C           3.1902    0.8249   21.4438 C.3     1  UNL1        0.0724
     35 C           1.7887    2.3802   22.9823 C.3     1  UNL1        0.0277
     36 C           0.9596    2.1691   24.2143 C.ar    1  UNL1       -0.0220
     37 C          -0.4037    2.7866   24.3158 C.ar    1  UNL1       -0.0020
     38 C          -1.2328    2.5754   25.5478 C.ar    1  UNL1        0.0293
     39 C          -0.6988    1.7467   26.6783 C.ar    1  UNL1        0.1401
     40 F          -1.5280    1.5355   27.9104 F       1  UNL1       -0.2042
     41 C           0.6644    1.1292   26.5768 C.ar    1  UNL1        0.0293
     42 C           1.4936    1.3404   25.3448 C.ar    1  UNL1       -0.0020
@<TRIPOS>BOND
     1    25    26    1
     2    24    26    1
     3    24    27    1
     4    27    28    1
     5    28    29    1
     6    29    30    1
     7    30    31    1
     8    31    32    1
     9    32    33    1
    10    33    35    1
    11    35    36    1
    12    36    37   ar
    13    37    38   ar
    14    38    39   ar
    15    39    40    1
    16    39    41   ar
    17    41    42   ar
    18    33    34    1
    19    24     1    1
    20     1     2   am
    21     2     3    2
    22     2     4   am
    23     4     7    1
    24     7     8   ar
    25     8     9   ar
    26     9    13    1
    27    13    14   ar
    28    14    15   ar
    29    15    16   ar
    30    16    17   ar
    31    17    18    1
    32     9    10   ar
    33    10    11   ar
    34    11    19    1
    35    19    20    1
    36    19    21    1
    37    19    22    1
    38    11    12   ar
    39    34    29    1
    40    12     7   ar
    41    42    36   ar
    42    17    13   ar
    43     1     5    1
    44     4     6    1
    45    22    23    1
@<TRIPOS>MOLECULE
*****
 42 45 0 0 0
SMALL
GASTEIGER

@<TRIPOS>ATOM
      1 N           5.7372   -1.7488   26.2991 N.am    1  UNL1       -0.2903
      2 C           5.2591   -1.4019   24.9203 C.2     1  UNL1        0.3044
      3 O           5.6801   -0.1109   24.2832 O.2     1  UNL1       -0.2525
      4 N           4.3598   -2.3460   24.1787 N.am    1  UNL1       -0.2683
      5 H           5.4609   -2.5961   26.7173 H       1  UNL1        0.1509
      6 H           4.0835   -3.1933   24.5969 H       1  UNL1        0.1564
      7 C           3.8817   -1.9991   22.8000 C.ar    1  UNL1        0.0514
      8 C           2.8880   -0.8920   22.6071 C.ar    1  UNL1        0.0178
      9 C           2.4099   -0.5451   21.2284 C.ar    1  UNL1        0.0383
     10 C           2.9253   -1.3053   20.0424 C.ar    1  UNL1        0.0011
     11 C           3.9189   -2.4123   20.2352 C.ar    1  UNL1        0.0030
     12 C           4.3971   -2.7593   21.6140 C.ar    1  UNL1        0.0127
     13 C           1.4163    0.5619   21.0356 C.ar    1  UNL1        0.1839
     14 N          -0.0674    0.3989   20.8858 N.ar    1  UNL1       -0.1081
     15 N          -0.6687    1.7626   20.7164 N.ar    1  UNL1       -0.0227
     16 N           0.4432    2.7685   20.7615 N.ar    1  UNL1       -0.0429
     17 N           1.7318    2.0263   20.9588 N.ar    1  UNL1       -0.2113
     18 C           3.0963    2.6408   21.0612 C.3     1  UNL1        0.1573
     19 C           4.4343   -3.1725   19.0492 C.3     1  UNL1        0.1072
     20 C           3.4609   -4.2776   19.3346 C.3     1  UNL1        0.0339
     21 C           5.4076   -2.0674   18.7639 C.3     1  UNL1        0.0339
     22 O           4.9497   -3.9327   17.8633 O.3     1  UNL1       -0.3827
     23 H           4.4673   -4.7703   17.7816 H       1  UNL1        0.2107
     24 C           6.6365   -0.8047   27.0407 C.3     1  UNL1        0.0744
     25 C           8.5832    0.6910   26.1906 C.3     1  UNL1        0.0017
     26 C           8.0689   -0.6498   26.6236 C.3     1  UNL1        0.0197
     27 C           6.1032   -0.0153   28.1995 C.3     1  UNL1        0.0369
     28 C           4.9920   -0.5729   29.0388 C.3     1  UNL1        0.0738
     29 N           5.3085   -1.4222   30.2340 N.3     1  UNL1       -0.2726
     30 C           6.2302   -2.5975   30.0960 C.3     1  UNL1        0.0721
     31 C           6.5467   -3.4468   31.2913 C.3     1  UNL1        0.0174
     32 C           5.9415   -3.1207   32.6244 C.3     1  UNL1        0.0031
     33 C           5.0198   -1.9454   32.7624 C.3     1  UNL1        0.0204
     34 C           4.7033   -1.0962   31.5672 C.3     1  UNL1        0.0724
     35 C           4.4145   -1.6193   34.0956 C.3     1  UNL1        0.0277
     36 C           5.1401   -0.7156   35.0478 C.ar    1  UNL1       -0.0220
     37 C           4.4386   -0.1901   36.2651 C.ar    1  UNL1       -0.0020
     38 C           5.1642    0.7136   37.2174 C.ar    1  UNL1        0.0293
     39 C           6.5913    1.0919   36.9523 C.ar    1  UNL1        0.1401
     40 F           7.3169    1.9957   37.9046 F       1  UNL1       -0.2042
     41 C           7.2928    0.5665   35.7351 C.ar    1  UNL1        0.0293
     42 C           6.5672   -0.3373   34.7828 C.ar    1  UNL1       -0.0020
@<TRIPOS>BOND
     1    25    26    1
     2    24    26    1
     3    24    27    1
     4    27    28    1
     5    28    29    1
     6    29    30    1
     7    30    31    1
     8    31    32    1
     9    32    33    1
    10    33    35    1
    11    35    36    1
    12    36    37   ar
    13    37    38   ar
    14    38    39   ar
    15    39    40    1
    16    39    41   ar
    17    41    42   ar
    18    33    34    1
    19    24     1    1
    20     1     2   am
    21     2     3    2
    22     2     4   am
    23     4     7    1
    24     7     8   ar
    25     8     9   ar
    26     9    13    1
    27    13    14   ar
    28    14    15   ar
    29    15    16   ar
    30    16    17   ar
    31    17    18    1
    32     9    10   ar
    33    10    11   ar
    34    11    19    1
    35    19    20    1
    36    19    21    1
    37    19    22    1
    38    11    12   ar
    39    34    29    1
    40    12     7   ar
    41    42    36   ar
    42    17    13   ar
    43     1     5    1
    44     4     6    1
    45    22    23    1
