@<TRIPOS>MOLECULE
*****
 28 31 0 0 0
SMALL
GASTEIGER

@<TRIPOS>ATOM
      1 C          -6.6780  -15.7600   23.8831 C.3     1  UNL1        0.1380
      2 C          -5.8074  -15.4014   25.0508 C.3     1  UNL1        0.0183
      3 C          -7.1847  -14.8187   24.9352 C.3     1  UNL1        0.0183
      4 C         -12.7409  -18.9361   24.5189 C.3     1  UNL1        0.1123
      5 N         -11.5227  -18.1511   24.1319 N.pl3   1  UNL1       -0.3031
      6 C         -10.3326  -18.1151   25.0442 C.3     1  UNL1        0.1127
      7 C          -9.1144  -17.3301   24.6572 C.3     1  UNL1        0.1196
      8 N          -9.0864  -16.5811   23.3578 N.am    1  UNL1       -0.2554
      9 C          -7.8681  -15.7960   22.9708 C.2     1  UNL1        0.2368
     10 O          -7.8401  -15.0470   21.6715 O.2     1  UNL1       -0.2741
     11 C         -10.2765  -16.6171   22.4456 C.ar    1  UNL1        0.0672
     12 C         -10.2484  -15.8681   21.1462 C.ar    1  UNL1        0.0162
     13 C         -11.4385  -15.9041   20.2340 C.ar    1  UNL1        0.0014
     14 C         -12.6568  -16.6891   20.6210 C.ar    1  UNL1        0.0014
     15 C         -12.6848  -17.4381   21.9203 C.ar    1  UNL1        0.0158
     16 C         -11.4946  -17.4021   22.8326 C.ar    1  UNL1        0.0618
     17 C          -5.7580  -16.6889   23.1478 C.2     1  UNL1        0.2335
     18 O          -4.2826  -16.4194   23.1233 O.2     1  UNL1       -0.2743
     19 N          -6.3133  -17.8874   22.4369 N.am    1  UNL1       -0.2829
     20 H          -7.2817  -18.0643   22.4530 H       1  UNL1        0.1549
     21 C          -5.3933  -18.8163   21.7016 C.ar    1  UNL1        0.0618
     22 C          -3.9180  -18.7787   21.9700 C.ar    1  UNL1        0.0269
     23 C          -2.9979  -19.7075   21.2347 C.ar    1  UNL1        0.0590
     24 CL         -1.5227  -19.6700   21.5032 Cl      1  UNL1       -0.0822
     25 C          -3.5533  -20.6741   20.2309 C.ar    1  UNL1        0.0123
     26 C          -5.0285  -20.7116   19.9624 C.ar    1  UNL1        0.0135
     27 C          -5.9486  -19.7827   20.6978 C.ar    1  UNL1        0.0711
     28 CL         -7.4239  -19.8203   20.4293 Cl      1  UNL1       -0.0810
@<TRIPOS>BOND
     1     4     5    1
     2     5     6    1
     3     6     7    1
     4     7     8    1
     5     8     9   am
     6     9    10    2
     7     9     1    1
     8     1    17    1
     9    17    18    2
    10    17    19   am
    11    19    21    1
    12    21    22   ar
    13    22    23   ar
    14    23    24    1
    15    23    25   ar
    16    25    26   ar
    17    26    27   ar
    18    27    28    1
    19     1     2    1
    20     2     3    1
    21     8    11    1
    22    11    12   ar
    23    12    13   ar
    24    13    14   ar
    25    14    15   ar
    26    15    16   ar
    27    16     5    1
    28     3     1    1
    29    16    11   ar
    30    27    21   ar
    31    19    20    1
@<TRIPOS>MOLECULE
*****
 28 31 0 0 0
SMALL
GASTEIGER

@<TRIPOS>ATOM
      1 C          -7.2129  -15.9887   24.8449 C.3     1  UNL1        0.1380
      2 C          -6.1608  -15.1526   25.5114 C.3     1  UNL1        0.0183
      3 C          -7.5684  -15.1399   26.0294 C.3     1  UNL1        0.0183
      4 C         -11.3211  -15.4481   19.3604 C.3     1  UNL1        0.1123
      5 N         -10.6282  -15.7371   20.6590 N.pl3   1  UNL1       -0.3031
      6 C          -9.2914  -15.1216   20.9491 C.3     1  UNL1        0.1127
      7 C          -8.5986  -15.4106   22.2477 C.3     1  UNL1        0.1196
      8 N          -9.2425  -16.3152   23.2562 N.am    1  UNL1       -0.2554
      9 C          -8.5496  -16.6042   24.5549 C.2     1  UNL1        0.2368
     10 O          -9.1935  -17.5088   25.5634 O.2     1  UNL1       -0.2741
     11 C         -10.5793  -16.9307   22.9661 C.ar    1  UNL1        0.0672
     12 C         -11.2232  -17.8353   23.9747 C.ar    1  UNL1        0.0162
     13 C         -12.5599  -18.4508   23.6846 C.ar    1  UNL1        0.0014
     14 C         -13.2528  -18.1618   22.3859 C.ar    1  UNL1        0.0014
     15 C         -12.6089  -17.2572   21.3774 C.ar    1  UNL1        0.0158
     16 C         -11.2721  -16.6417   21.6675 C.ar    1  UNL1        0.0618
     17 C          -6.3930  -16.6237   23.7611 C.2     1  UNL1        0.2335
     18 O          -5.2818  -15.8531   23.1121 O.2     1  UNL1       -0.2743
     19 N          -6.6844  -18.0294   23.3263 N.am    1  UNL1       -0.2829
     20 H          -7.4138  -18.5352   23.7523 H       1  UNL1        0.1549
     21 C          -5.8646  -18.6645   22.2425 C.ar    1  UNL1        0.0618
     22 C          -4.4026  -18.9196   22.4599 C.ar    1  UNL1        0.0269
     23 C          -3.5827  -19.5546   21.3762 C.ar    1  UNL1        0.0590
     24 CL         -2.1207  -19.8098   21.5936 Cl      1  UNL1       -0.0822
     25 C          -4.2250  -19.9345   20.0749 C.ar    1  UNL1        0.0123
     26 C          -5.6870  -19.6794   19.8575 C.ar    1  UNL1        0.0135
     27 C          -6.5068  -19.0443   20.9413 C.ar    1  UNL1        0.0711
     28 CL         -7.9689  -18.7891   20.7239 Cl      1  UNL1       -0.0810
@<TRIPOS>BOND
     1     4     5    1
     2     5     6    1
     3     6     7    1
     4     7     8    1
     5     8     9   am
     6     9    10    2
     7     9     1    1
     8     1    17    1
     9    17    18    2
    10    17    19   am
    11    19    21    1
    12    21    22   ar
    13    22    23   ar
    14    23    24    1
    15    23    25   ar
    16    25    26   ar
    17    26    27   ar
    18    27    28    1
    19     1     2    1
    20     2     3    1
    21     8    11    1
    22    11    12   ar
    23    12    13   ar
    24    13    14   ar
    25    14    15   ar
    26    15    16   ar
    27    16     5    1
    28     3     1    1
    29    16    11   ar
    30    27    21   ar
    31    19    20    1
@<TRIPOS>MOLECULE
*****
 28 31 0 0 0
SMALL
GASTEIGER

@<TRIPOS>ATOM
      1 C          -6.8595  -16.0306   24.2412 C.3     1  UNL1        0.1380
      2 C          -7.8847  -15.9030   25.3287 C.3     1  UNL1        0.0183
      3 C          -6.4300  -15.7173   25.6438 C.3     1  UNL1        0.0183
      4 C          -3.8492  -20.8673   20.3947 C.3     1  UNL1        0.1123
      5 N          -4.2680  -19.6634   21.1857 N.pl3   1  UNL1       -0.3031
      6 C          -5.6034  -19.6420   21.8684 C.3     1  UNL1        0.1127
      7 C          -6.0221  -18.4382   22.6593 C.3     1  UNL1        0.1196
      8 N          -5.1053  -17.2559   22.7675 N.am    1  UNL1       -0.2554
      9 C          -5.5241  -16.0521   23.5584 C.2     1  UNL1        0.2368
     10 O          -4.6074  -14.8697   23.6666 O.2     1  UNL1       -0.2741
     11 C          -3.7699  -17.2773   22.0847 C.ar    1  UNL1        0.0672
     12 C          -2.8532  -16.0950   22.1929 C.ar    1  UNL1        0.0162
     13 C          -1.5178  -16.1164   21.5101 C.ar    1  UNL1        0.0014
     14 C          -1.0991  -17.3202   20.7192 C.ar    1  UNL1        0.0014
     15 C          -2.0158  -18.5026   20.6110 C.ar    1  UNL1        0.0158
     16 C          -3.3512  -18.4811   21.2938 C.ar    1  UNL1        0.0618
     17 C          -7.7529  -16.3366   23.0757 C.2     1  UNL1        0.2335
     18 O          -7.7150  -15.4680   21.8534 O.2     1  UNL1       -0.2743
     19 N          -8.6840  -17.5112   23.1325 N.am    1  UNL1       -0.2829
     20 H          -8.7089  -18.0813   23.9348 H       1  UNL1        0.1549
     21 C          -9.5774  -17.8171   21.9670 C.ar    1  UNL1        0.0618
     22 C          -9.1485  -18.8184   20.9358 C.ar    1  UNL1        0.0269
     23 C         -10.0417  -19.1244   19.7703 C.ar    1  UNL1        0.0590
     24 CL         -9.6128  -20.1257   18.7392 Cl      1  UNL1       -0.0822
     25 C         -11.3641  -18.4290   19.6360 C.ar    1  UNL1        0.0123
     26 C         -11.7930  -17.4277   20.6672 C.ar    1  UNL1        0.0135
     27 C         -10.8996  -17.1217   21.8327 C.ar    1  UNL1        0.0711
     28 CL        -11.3285  -16.1204   22.8640 Cl      1  UNL1       -0.0810
@<TRIPOS>BOND
     1     4     5    1
     2     5     6    1
     3     6     7    1
     4     7     8    1
     5     8     9   am
     6     9    10    2
     7     9     1    1
     8     1    17    1
     9    17    18    2
    10    17    19   am
    11    19    21    1
    12    21    22   ar
    13    22    23   ar
    14    23    24    1
    15    23    25   ar
    16    25    26   ar
    17    26    27   ar
    18    27    28    1
    19     1     2    1
    20     2     3    1
    21     8    11    1
    22    11    12   ar
    23    12    13   ar
    24    13    14   ar
    25    14    15   ar
    26    15    16   ar
    27    16     5    1
    28     3     1    1
    29    16    11   ar
    30    27    21   ar
    31    19    20    1
@<TRIPOS>MOLECULE
*****
 28 31 0 0 0
SMALL
GASTEIGER

@<TRIPOS>ATOM
      1 C          -6.5877  -16.0536   23.7566 C.3     1  UNL1        0.1380
      2 C          -5.6495  -15.8022   24.8997 C.3     1  UNL1        0.0183
      3 C          -7.0112  -15.1731   24.8947 C.3     1  UNL1        0.0183
      4 C         -12.7742  -18.9322   24.5880 C.3     1  UNL1        0.1123
      5 N         -11.5361  -18.1971   24.1676 N.pl3   1  UNL1       -0.3031
      6 C         -10.3020  -18.2589   25.0179 C.3     1  UNL1        0.1127
      7 C          -9.0639  -17.5238   24.5975 C.3     1  UNL1        0.1196
      8 N          -9.0600  -16.7269   23.3267 N.am    1  UNL1       -0.2554
      9 C          -7.8218  -15.9918   22.9063 C.2     1  UNL1        0.2368
     10 O          -7.8178  -15.1949   21.6355 O.2     1  UNL1       -0.2741
     11 C         -10.2940  -16.6651   22.4763 C.ar    1  UNL1        0.0672
     12 C         -10.2901  -15.8682   21.2055 C.ar    1  UNL1        0.0162
     13 C         -11.5242  -15.8064   20.3552 C.ar    1  UNL1        0.0014
     14 C         -12.7623  -16.5415   20.7756 C.ar    1  UNL1        0.0014
     15 C         -12.7663  -17.3384   22.0464 C.ar    1  UNL1        0.0158
     16 C         -11.5321  -17.4002   22.8968 C.ar    1  UNL1        0.0618
     17 C          -5.7356  -16.9556   22.9138 C.2     1  UNL1        0.2335
     18 O          -6.3295  -18.1867   22.2961 O.2     1  UNL1       -0.2743
     19 N          -4.2896  -16.6265   22.6888 N.am    1  UNL1       -0.2829
     20 H          -3.8997  -15.8185   23.0942 H       1  UNL1        0.1549
     21 C          -3.4374  -17.5285   21.8460 C.ar    1  UNL1        0.0618
     22 C          -3.9580  -18.8691   21.4195 C.ar    1  UNL1        0.0269
     23 C          -3.1060  -19.7711   20.5767 C.ar    1  UNL1        0.0590
     24 CL         -3.6265  -21.1116   20.1503 Cl      1  UNL1       -0.0822
     25 C          -1.7332  -19.3325   20.1604 C.ar    1  UNL1        0.0123
     26 C          -1.2126  -17.9920   20.5868 C.ar    1  UNL1        0.0135
     27 C          -2.0647  -17.0900   21.4296 C.ar    1  UNL1        0.0711
     28 CL         -1.5442  -15.7493   21.8561 Cl      1  UNL1       -0.0810
@<TRIPOS>BOND
     1     4     5    1
     2     5     6    1
     3     6     7    1
     4     7     8    1
     5     8     9   am
     6     9    10    2
     7     9     1    1
     8     1    17    1
     9    17    18    2
    10    17    19   am
    11    19    21    1
    12    21    22   ar
    13    22    23   ar
    14    23    24    1
    15    23    25   ar
    16    25    26   ar
    17    26    27   ar
    18    27    28    1
    19     1     2    1
    20     2     3    1
    21     8    11    1
    22    11    12   ar
    23    12    13   ar
    24    13    14   ar
    25    14    15   ar
    26    15    16   ar
    27    16     5    1
    28     3     1    1
    29    16    11   ar
    30    27    21   ar
    31    19    20    1
@<TRIPOS>MOLECULE
*****
 28 31 0 0 0
SMALL
GASTEIGER

@<TRIPOS>ATOM
      1 C          -6.7877  -15.9295   24.3424 C.3     1  UNL1        0.1380
      2 C          -7.7714  -15.7438   25.4594 C.3     1  UNL1        0.0183
      3 C          -6.3022  -15.5922   25.7210 C.3     1  UNL1        0.0183
      4 C          -4.1036  -20.8971   20.4220 C.3     1  UNL1        0.1123
      5 N          -4.4471  -19.6746   21.2207 N.pl3   1  UNL1       -0.3031
      6 C          -5.7575  -19.5967   21.9464 C.3     1  UNL1        0.1127
      7 C          -6.1008  -18.3743   22.7451 C.3     1  UNL1        0.1196
      8 N          -5.1338  -17.2299   22.8179 N.am    1  UNL1       -0.2554
      9 C          -5.4773  -16.0075   23.6166 C.2     1  UNL1        0.2368
     10 O          -4.5103  -14.8631   23.6895 O.2     1  UNL1       -0.2741
     11 C          -3.8235  -17.3079   22.0922 C.ar    1  UNL1        0.0672
     12 C          -2.8565  -16.1635   22.1650 C.ar    1  UNL1        0.0162
     13 C          -1.5461  -16.2415   21.4393 C.ar    1  UNL1        0.0014
     14 C          -1.2027  -17.4639   20.6406 C.ar    1  UNL1        0.0014
     15 C          -2.1697  -18.6083   20.5677 C.ar    1  UNL1        0.0158
     16 C          -3.4801  -18.5303   21.2935 C.ar    1  UNL1        0.0618
     17 C          -7.7282  -16.2397   23.2158 C.2     1  UNL1        0.2335
     18 O          -7.5973  -15.5159   21.9086 O.2     1  UNL1       -0.2743
     19 N          -8.7997  -17.2738   23.3965 N.am    1  UNL1       -0.2829
     20 H          -8.8856  -17.7489   24.2545 H       1  UNL1        0.1549
     21 C          -9.7403  -17.5841   22.2700 C.ar    1  UNL1        0.0618
     22 C         -10.2912  -16.4735   21.4255 C.ar    1  UNL1        0.0269
     23 C         -11.2318  -16.7837   20.2990 C.ar    1  UNL1        0.0590
     24 CL        -11.7827  -15.6732   19.4546 Cl      1  UNL1       -0.0822
     25 C         -11.6214  -18.2046   20.0169 C.ar    1  UNL1        0.0123
     26 C         -11.0704  -19.3151   20.8613 C.ar    1  UNL1        0.0135
     27 C         -10.1298  -19.0048   21.9879 C.ar    1  UNL1        0.0711
     28 CL         -9.5788  -20.1154   22.8324 Cl      1  UNL1       -0.0810
@<TRIPOS>BOND
     1     4     5    1
     2     5     6    1
     3     6     7    1
     4     7     8    1
     5     8     9   am
     6     9    10    2
     7     9     1    1
     8     1    17    1
     9    17    18    2
    10    17    19   am
    11    19    21    1
    12    21    22   ar
    13    22    23   ar
    14    23    24    1
    15    23    25   ar
    16    25    26   ar
    17    26    27   ar
    18    27    28    1
    19     1     2    1
    20     2     3    1
    21     8    11    1
    22    11    12   ar
    23    12    13   ar
    24    13    14   ar
    25    14    15   ar
    26    15    16   ar
    27    16     5    1
    28     3     1    1
    29    16    11   ar
    30    27    21   ar
    31    19    20    1
@<TRIPOS>MOLECULE
*****
 28 31 0 0 0
SMALL
GASTEIGER

@<TRIPOS>ATOM
      1 C          -7.2315  -16.2020   24.1034 C.3     1  UNL1        0.1380
      2 C          -6.0712  -15.2862   24.3586 C.3     1  UNL1        0.0183
      3 C          -7.4225  -14.9595   24.9217 C.3     1  UNL1        0.0183
      4 C         -12.3263  -15.8305   19.5038 C.3     1  UNL1        0.1123
      5 N         -11.4012  -16.0610   20.6620 N.pl3   1  UNL1       -0.3031
      6 C         -10.0064  -15.5104   20.6290 C.3     1  UNL1        0.1127
      7 C          -9.0815  -15.7409   21.7871 C.3     1  UNL1        0.1196
      8 N          -9.5514  -16.5221   22.9783 N.am    1  UNL1       -0.2554
      9 C          -8.6264  -16.7527   24.1364 C.2     1  UNL1        0.2368
     10 O          -9.0963  -17.5339   25.3276 O.2     1  UNL1       -0.2741
     11 C         -10.9462  -17.0728   23.0113 C.ar    1  UNL1        0.0672
     12 C         -11.4161  -17.8540   24.2025 C.ar    1  UNL1        0.0162
     13 C         -12.8110  -18.4047   24.2355 C.ar    1  UNL1        0.0014
     14 C         -13.7360  -18.1742   23.0773 C.ar    1  UNL1        0.0014
     15 C         -13.2661  -17.3929   21.8862 C.ar    1  UNL1        0.0158
     16 C         -11.8711  -16.8423   21.8532 C.ar    1  UNL1        0.0618
     17 C          -6.5561  -17.2533   23.2735 C.2     1  UNL1        0.2335
     18 O          -7.3289  -18.4506   22.8056 O.2     1  UNL1       -0.2743
     19 N          -5.1077  -17.1071   22.9116 N.am    1  UNL1       -0.2829
     20 H          -4.6005  -16.3212   23.2188 H       1  UNL1        0.1549
     21 C          -4.4323  -18.1584   22.0818 C.ar    1  UNL1        0.0618
     22 C          -5.2437  -19.2479   21.4459 C.ar    1  UNL1        0.0269
     23 C          -4.5683  -20.2992   20.6160 C.ar    1  UNL1        0.0590
     24 CL         -5.3797  -21.3887   19.9802 Cl      1  UNL1       -0.0822
     25 C          -3.0813  -20.2609   20.4221 C.ar    1  UNL1        0.0123
     26 C          -2.2699  -19.1713   21.0580 C.ar    1  UNL1        0.0135
     27 C          -2.9454  -18.1200   21.8879 C.ar    1  UNL1        0.0711
     28 CL         -2.1339  -17.0304   22.5238 Cl      1  UNL1       -0.0810
@<TRIPOS>BOND
     1     4     5    1
     2     5     6    1
     3     6     7    1
     4     7     8    1
     5     8     9   am
     6     9    10    2
     7     9     1    1
     8     1    17    1
     9    17    18    2
    10    17    19   am
    11    19    21    1
    12    21    22   ar
    13    22    23   ar
    14    23    24    1
    15    23    25   ar
    16    25    26   ar
    17    26    27   ar
    18    27    28    1
    19     1     2    1
    20     2     3    1
    21     8    11    1
    22    11    12   ar
    23    12    13   ar
    24    13    14   ar
    25    14    15   ar
    26    15    16   ar
    27    16     5    1
    28     3     1    1
    29    16    11   ar
    30    27    21   ar
    31    19    20    1
@<TRIPOS>MOLECULE
*****
 28 31 0 0 0
SMALL
GASTEIGER

@<TRIPOS>ATOM
      1 C           1.0063    1.6909   19.9229 C.3     1  UNL1        0.1380
      2 C           0.2210    2.9267   19.5969 C.3     1  UNL1        0.0183
      3 C           0.5258    1.9263   18.5216 C.3     1  UNL1        0.0183
      4 C           7.2810    0.2447   17.5174 C.3     1  UNL1        0.1123
      5 N           5.8881    0.2782   18.0731 N.pl3   1  UNL1       -0.3031
      6 C           5.1849    1.5905   18.2558 C.3     1  UNL1        0.1127
      7 C           3.7920    1.6240   18.8115 C.3     1  UNL1        0.1196
      8 N           3.1024    0.3452   19.1845 N.am    1  UNL1       -0.2554
      9 C           1.7095    0.3787   19.7402 C.2     1  UNL1        0.2368
     10 O           1.0199   -0.9001   20.1132 O.2     1  UNL1       -0.2741
     11 C           3.8056   -0.9671   19.0018 C.ar    1  UNL1        0.0672
     12 C           3.1160   -2.2459   19.3748 C.ar    1  UNL1        0.0162
     13 C           3.8192   -3.5581   19.1921 C.ar    1  UNL1        0.0014
     14 C           5.2122   -3.5916   18.6364 C.ar    1  UNL1        0.0014
     15 C           5.9018   -2.3129   18.2634 C.ar    1  UNL1        0.0158
     16 C           5.1985   -1.0005   18.4461 C.ar    1  UNL1        0.0618
     17 C           1.2425    1.9113   21.3877 C.2     1  UNL1        0.2335
     18 O           2.2033    2.9699   21.8416 O.2     1  UNL1       -0.2743
     19 N           0.5178    1.0730   22.3987 N.am    1  UNL1       -0.2829
     20 H          -0.1129    0.3782   22.1008 H       1  UNL1        0.1549
     21 C           0.7540    1.2934   23.8635 C.ar    1  UNL1        0.0618
     22 C          -0.1862    2.1545   24.6536 C.ar    1  UNL1        0.0269
     23 C           0.0499    2.3749   26.1184 C.ar    1  UNL1        0.0590
     24 CL         -0.8903    3.2361   26.9085 Cl      1  UNL1       -0.0822
     25 C           1.2264    1.7340   26.7931 C.ar    1  UNL1        0.0123
     26 C           2.1667    0.8729   26.0031 C.ar    1  UNL1        0.0135
     27 C           1.9305    0.6525   24.5382 C.ar    1  UNL1        0.0711
     28 CL          2.8707   -0.2087   23.7481 Cl      1  UNL1       -0.0810
@<TRIPOS>BOND
     1     4     5    1
     2     5     6    1
     3     6     7    1
     4     7     8    1
     5     8     9   am
     6     9    10    2
     7     9     1    1
     8     1    17    1
     9    17    18    2
    10    17    19   am
    11    19    21    1
    12    21    22   ar
    13    22    23   ar
    14    23    24    1
    15    23    25   ar
    16    25    26   ar
    17    26    27   ar
    18    27    28    1
    19     1     2    1
    20     2     3    1
    21     8    11    1
    22    11    12   ar
    23    12    13   ar
    24    13    14   ar
    25    14    15   ar
    26    15    16   ar
    27    16     5    1
    28     3     1    1
    29    16    11   ar
    30    27    21   ar
    31    19    20    1
@<TRIPOS>MOLECULE
*****
 28 31 0 0 0
SMALL
GASTEIGER

@<TRIPOS>ATOM
      1 C          -6.4022  -16.5388   23.7498 C.3     1  UNL1        0.1380
      2 C          -6.4859  -15.5238   24.8512 C.3     1  UNL1        0.0183
      3 C          -5.2453  -16.3505   24.6858 C.3     1  UNL1        0.0183
      4 C          -0.4020  -17.0069   20.4288 C.3     1  UNL1        0.1123
      5 N          -1.7641  -17.1598   21.0384 N.pl3   1  UNL1       -0.3031
      6 C          -2.3162  -16.0800   21.9212 C.3     1  UNL1        0.1127
      7 C          -3.6782  -16.2330   22.5307 C.3     1  UNL1        0.1196
      8 N          -4.4880  -17.4656   22.2575 N.am    1  UNL1       -0.2554
      9 C          -5.8501  -17.6185   22.8671 C.2     1  UNL1        0.2368
     10 O          -6.6599  -18.8512   22.5939 O.2     1  UNL1       -0.2741
     11 C          -3.9359  -18.5454   21.3748 C.ar    1  UNL1        0.0672
     12 C          -4.7458  -19.7781   21.1016 C.ar    1  UNL1        0.0162
     13 C          -4.1936  -20.8578   20.2189 C.ar    1  UNL1        0.0014
     14 C          -2.8316  -20.7050   19.6093 C.ar    1  UNL1        0.0014
     15 C          -2.0217  -19.4723   19.8825 C.ar    1  UNL1        0.0158
     16 C          -2.5739  -18.3925   20.7653 C.ar    1  UNL1        0.0618
     17 C          -7.7509  -16.3520   23.1204 C.2     1  UNL1        0.2335
     18 O          -8.0400  -15.1175   22.3190 O.2     1  UNL1       -0.2743
     19 N          -8.8104  -17.3998   23.2923 N.am    1  UNL1       -0.2829
     20 H          -8.6206  -18.2101   23.8183 H       1  UNL1        0.1549
     21 C         -10.1591  -17.2130   22.6628 C.ar    1  UNL1        0.0618
     22 C         -10.2799  -16.5114   21.3426 C.ar    1  UNL1        0.0269
     23 C         -11.6285  -16.3246   20.7131 C.ar    1  UNL1        0.0590
     24 CL        -11.7493  -15.6229   19.3929 Cl      1  UNL1       -0.0822
     25 C         -12.8564  -16.8395   21.4039 C.ar    1  UNL1        0.0123
     26 C         -12.7356  -17.5412   22.7242 C.ar    1  UNL1        0.0135
     27 C         -11.3869  -17.7279   23.3536 C.ar    1  UNL1        0.0711
     28 CL        -11.2661  -18.4296   24.6739 Cl      1  UNL1       -0.0810
@<TRIPOS>BOND
     1     4     5    1
     2     5     6    1
     3     6     7    1
     4     7     8    1
     5     8     9   am
     6     9    10    2
     7     9     1    1
     8     1    17    1
     9    17    18    2
    10    17    19   am
    11    19    21    1
    12    21    22   ar
    13    22    23   ar
    14    23    24    1
    15    23    25   ar
    16    25    26   ar
    17    26    27   ar
    18    27    28    1
    19     1     2    1
    20     2     3    1
    21     8    11    1
    22    11    12   ar
    23    12    13   ar
    24    13    14   ar
    25    14    15   ar
    26    15    16   ar
    27    16     5    1
    28     3     1    1
    29    16    11   ar
    30    27    21   ar
    31    19    20    1
@<TRIPOS>MOLECULE
*****
 28 31 0 0 0
SMALL
GASTEIGER

@<TRIPOS>ATOM
      1 C           5.8110   -0.2332   27.1023 C.3     1  UNL1        0.1380
      2 C           6.0825    0.7154   25.9724 C.3     1  UNL1        0.0183
      3 C           7.2243    0.0962   26.7226 C.3     1  UNL1        0.0183
      4 C           7.4555   -6.9074   27.1102 C.3     1  UNL1        0.1123
      5 N           7.1067   -5.4759   27.3919 N.pl3   1  UNL1       -0.3031
      6 C           6.8572   -4.5274   26.2570 C.3     1  UNL1        0.1127
      7 C           6.5085   -3.0961   26.5388 C.3     1  UNL1        0.1196
      8 N           6.4093   -2.6132   27.9555 N.am    1  UNL1       -0.2554
      9 C           6.0605   -1.1817   28.2372 C.2     1  UNL1        0.2368
     10 O           5.9613   -0.6988   29.6539 O.2     1  UNL1       -0.2741
     11 C           6.6588   -3.5617   29.0904 C.ar    1  UNL1        0.0672
     12 C           6.5595   -3.0788   30.5071 C.ar    1  UNL1        0.0162
     13 C           6.8090   -4.0273   31.6420 C.ar    1  UNL1        0.0014
     14 C           7.1578   -5.4587   31.3602 C.ar    1  UNL1        0.0014
     15 C           7.2570   -5.9416   29.9435 C.ar    1  UNL1        0.0158
     16 C           7.0075   -4.9930   28.8086 C.ar    1  UNL1        0.0618
     17 C           4.3111   -0.2331   27.0879 C.2     1  UNL1        0.2335
     18 O           3.5696   -1.1829   26.1946 O.2     1  UNL1       -0.2743
     19 N           3.5526    0.7168   27.9668 N.am    1  UNL1       -0.2829
     20 H           4.0393    1.3402   28.5531 H       1  UNL1        0.1549
     21 C           2.0527    0.7169   27.9523 C.ar    1  UNL1        0.0618
     22 C           1.3133    1.4110   26.8472 C.ar    1  UNL1        0.0269
     23 C          -0.1866    1.4111   26.8327 C.ar    1  UNL1        0.0590
     24 CL         -0.9260    2.1052   25.7275 Cl      1  UNL1       -0.0822
     25 C          -0.9472    0.7169   27.9235 C.ar    1  UNL1        0.0123
     26 C          -0.2078    0.0228   29.0287 C.ar    1  UNL1        0.0135
     27 C           1.2922    0.0227   29.0431 C.ar    1  UNL1        0.0711
     28 CL          2.0316   -0.6714   30.1483 Cl      1  UNL1       -0.0810
@<TRIPOS>BOND
     1     4     5    1
     2     5     6    1
     3     6     7    1
     4     7     8    1
     5     8     9   am
     6     9    10    2
     7     9     1    1
     8     1    17    1
     9    17    18    2
    10    17    19   am
    11    19    21    1
    12    21    22   ar
    13    22    23   ar
    14    23    24    1
    15    23    25   ar
    16    25    26   ar
    17    26    27   ar
    18    27    28    1
    19     1     2    1
    20     2     3    1
    21     8    11    1
    22    11    12   ar
    23    12    13   ar
    24    13    14   ar
    25    14    15   ar
    26    15    16   ar
    27    16     5    1
    28     3     1    1
    29    16    11   ar
    30    27    21   ar
    31    19    20    1
