@<TRIPOS>MOLECULE
*****
 22 24 0 0 0
SMALL
GASTEIGER

@<TRIPOS>ATOM
      1 C          -8.8112  -17.4333   21.9611 C.ar    1  UNL1        0.0911
      2 C          -8.4083  -18.6045   21.1151 C.ar    1  UNL1        0.1390
      3 O          -9.4251  -19.2921   20.2529 O.3     1  UNL1       -0.5055
      4 C          -6.9885  -19.0883   21.1312 C.ar    1  UNL1        0.0682
      5 C          -6.5855  -20.2595   20.2852 C.ar    1  UNL1        0.0061
      6 C          -5.1658  -20.7432   20.3014 C.ar    1  UNL1        0.0003
      7 C          -4.1490  -20.0556   21.1636 C.ar    1  UNL1        0.0031
      8 C          -4.5519  -18.8844   22.0096 C.ar    1  UNL1        0.0377
      9 C          -5.9717  -18.4007   21.9935 C.ar    1  UNL1        0.1516
     10 O          -6.3747  -17.2294   22.8395 O.2     1  UNL1       -0.4211
     11 C          -7.7944  -16.7457   22.8233 C.ar    1  UNL1        0.3449
     12 O          -8.1975  -15.5744   23.6694 O.2     1  UNL1       -0.2447
     13 H         -10.3120  -18.9899   20.2428 H       1  UNL1        0.2922
     14 C         -10.2310  -16.9495   21.9449 C.3     1  UNL1        0.0539
     15 C         -11.2324  -17.5311   22.8984 C.ar    1  UNL1       -0.0181
     16 C         -12.6875  -17.1965   22.7542 C.ar    1  UNL1       -0.0040
     17 C         -13.6888  -17.7781   23.7077 C.ar    1  UNL1       -0.0003
     18 C         -13.2351  -18.6942   24.8053 C.ar    1  UNL1       -0.0000
     19 C         -11.7800  -19.0288   24.9495 C.ar    1  UNL1       -0.0003
     20 C         -10.7786  -18.4472   23.9961 C.ar    1  UNL1       -0.0040
     21 C         -11.3662  -16.2595   19.7122 C.3     1  UNL1        0.0007
     22 C         -10.6494  -15.8843   20.9753 C.3     1  UNL1        0.0091
@<TRIPOS>BOND
     1    21    22    1
     2    22    14    1
     3    14    15    1
     4    15    16   ar
     5    16    17   ar
     6    17    18   ar
     7    18    19   ar
     8    19    20   ar
     9    14     1    1
    10     1     2   ar
    11     2     3    1
    12     2     4   ar
    13     4     5   ar
    14     5     6   ar
    15     6     7   ar
    16     7     8   ar
    17     8     9   ar
    18     9    10   ar
    19    10    11   ar
    20    11    12    2
    21    20    15   ar
    22    11     1   ar
    23     9     4   ar
    24     3    13    1
@<TRIPOS>MOLECULE
*****
 22 24 0 0 0
SMALL
GASTEIGER

@<TRIPOS>ATOM
      1 C          -9.2639  -18.0634   21.2453 C.ar    1  UNL1        0.0911
      2 C          -7.9577  -17.8827   21.9602 C.ar    1  UNL1        0.1390
      3 O          -7.8407  -16.8752   23.0653 O.3     1  UNL1       -0.5055
      4 C          -6.7685  -18.7096   21.5702 C.ar    1  UNL1        0.0682
      5 C          -5.4624  -18.5289   22.2851 C.ar    1  UNL1        0.0061
      6 C          -4.2732  -19.3558   21.8950 C.ar    1  UNL1        0.0003
      7 C          -4.3903  -20.3634   20.7900 C.ar    1  UNL1        0.0031
      8 C          -5.6965  -20.5441   20.0750 C.ar    1  UNL1        0.0377
      9 C          -6.8856  -19.7172   20.4651 C.ar    1  UNL1        0.1516
     10 O          -8.1919  -19.8978   19.7501 O.2     1  UNL1       -0.4211
     11 C          -9.3810  -19.0709   20.1402 C.ar    1  UNL1        0.3449
     12 O         -10.6873  -19.2516   19.4253 O.2     1  UNL1       -0.2447
     13 H          -8.5835  -16.3586   23.3090 H       1  UNL1        0.2922
     14 C         -10.4531  -17.2365   21.6354 C.3     1  UNL1        0.0539
     15 C         -11.3828  -17.7194   22.7089 C.ar    1  UNL1       -0.0181
     16 C         -12.8424  -17.3795   22.6457 C.ar    1  UNL1       -0.0040
     17 C         -13.7721  -17.8624   23.7192 C.ar    1  UNL1       -0.0003
     18 C         -13.2423  -18.6854   24.8558 C.ar    1  UNL1       -0.0000
     19 C         -11.7826  -19.0254   24.9190 C.ar    1  UNL1       -0.0003
     20 C         -10.8529  -18.5424   23.8455 C.ar    1  UNL1       -0.0040
     21 C         -11.4504  -15.8952   19.6464 C.3     1  UNL1        0.0007
     22 C         -10.7126  -15.9267   20.9520 C.3     1  UNL1        0.0091
@<TRIPOS>BOND
     1    21    22    1
     2    22    14    1
     3    14    15    1
     4    15    16   ar
     5    16    17   ar
     6    17    18   ar
     7    18    19   ar
     8    19    20   ar
     9    14     1    1
    10     1     2   ar
    11     2     3    1
    12     2     4   ar
    13     4     5   ar
    14     5     6   ar
    15     6     7   ar
    16     7     8   ar
    17     8     9   ar
    18     9    10   ar
    19    10    11   ar
    20    11    12    2
    21    20    15   ar
    22    11     1   ar
    23     9     4   ar
    24     3    13    1
@<TRIPOS>MOLECULE
*****
 22 24 0 0 0
SMALL
GASTEIGER

@<TRIPOS>ATOM
      1 C          -7.3088  -17.9933   22.8978 C.ar    1  UNL1        0.0911
      2 C          -6.4367  -19.0256   22.2469 C.ar    1  UNL1        0.1390
      3 O          -7.0485  -20.2657   21.6656 O.3     1  UNL1       -0.5055
      4 C          -4.9527  -18.8179   22.1772 C.ar    1  UNL1        0.0682
      5 C          -4.0807  -19.8502   21.5263 C.ar    1  UNL1        0.0061
      6 C          -2.5968  -19.6424   21.4567 C.ar    1  UNL1        0.0003
      7 C          -1.9850  -18.4023   22.0380 C.ar    1  UNL1        0.0031
      8 C          -2.8571  -17.3700   22.6889 C.ar    1  UNL1        0.0377
      9 C          -4.3409  -17.5778   22.7585 C.ar    1  UNL1        0.1516
     10 O          -5.2131  -16.5454   23.4095 O.2     1  UNL1       -0.4211
     11 C          -6.6970  -16.7532   23.4791 C.ar    1  UNL1        0.3449
     12 O          -7.5692  -15.7208   24.1300 O.2     1  UNL1       -0.2447
     13 H          -7.9755  -20.3954   21.7091 H       1  UNL1        0.2922
     14 C          -8.7928  -18.2010   22.9674 C.3     1  UNL1        0.0539
     15 C          -9.6691  -17.7330   21.8436 C.ar    1  UNL1       -0.0181
     16 C         -10.1191  -16.3032   21.7888 C.ar    1  UNL1       -0.0040
     17 C         -10.9954  -15.8352   20.6650 C.ar    1  UNL1       -0.0003
     18 C         -11.4218  -16.7971   19.5959 C.ar    1  UNL1       -0.0000
     19 C         -10.9719  -18.2270   19.6507 C.ar    1  UNL1       -0.0003
     20 C         -10.0955  -18.6950   20.7745 C.ar    1  UNL1       -0.0040
     21 C          -9.5614  -20.3679   24.1772 C.3     1  UNL1        0.0007
     22 C          -9.4003  -18.8767   24.1609 C.3     1  UNL1        0.0091
@<TRIPOS>BOND
     1    21    22    1
     2    22    14    1
     3    14    15    1
     4    15    16   ar
     5    16    17   ar
     6    17    18   ar
     7    18    19   ar
     8    19    20   ar
     9    14     1    1
    10     1     2   ar
    11     2     3    1
    12     2     4   ar
    13     4     5   ar
    14     5     6   ar
    15     6     7   ar
    16     7     8   ar
    17     8     9   ar
    18     9    10   ar
    19    10    11   ar
    20    11    12    2
    21    20    15   ar
    22    11     1   ar
    23     9     4   ar
    24     3    13    1
@<TRIPOS>MOLECULE
*****
 22 24 0 0 0
SMALL
GASTEIGER

@<TRIPOS>ATOM
      1 C          -8.9943  -17.5076   22.0505 C.ar    1  UNL1        0.0911
      2 C          -7.9504  -16.7542   22.8204 C.ar    1  UNL1        0.1390
      3 O          -8.3152  -15.4882   23.5374 O.3     1  UNL1       -0.5055
      4 C          -6.5417  -17.2668   22.8732 C.ar    1  UNL1        0.0682
      5 C          -5.4978  -16.5134   23.6430 C.ar    1  UNL1        0.0061
      6 C          -4.0892  -17.0261   23.6958 C.ar    1  UNL1        0.0003
      7 C          -3.7244  -18.2921   22.9788 C.ar    1  UNL1        0.0031
      8 C          -4.7682  -19.0455   22.2090 C.ar    1  UNL1        0.0377
      9 C          -6.1769  -18.5329   22.1562 C.ar    1  UNL1        0.1516
     10 O          -7.2209  -19.2863   21.3863 O.2     1  UNL1       -0.4211
     11 C          -8.6295  -18.7736   21.3335 C.ar    1  UNL1        0.3449
     12 O          -9.6735  -19.5270   20.5637 O.2     1  UNL1       -0.2447
     13 H          -9.1952  -15.1680   23.5044 H       1  UNL1        0.2922
     14 C         -10.4031  -16.9950   21.9977 C.3     1  UNL1        0.0539
     15 C         -11.4314  -17.5282   22.9507 C.ar    1  UNL1       -0.0181
     16 C         -11.0150  -18.4242   24.0792 C.ar    1  UNL1       -0.0040
     17 C         -12.0433  -18.9575   25.0322 C.ar    1  UNL1       -0.0003
     18 C         -13.4881  -18.5946   24.8566 C.ar    1  UNL1       -0.0000
     19 C         -13.9046  -17.6985   23.7281 C.ar    1  UNL1       -0.0003
     20 C         -12.8763  -17.1653   22.7751 C.ar    1  UNL1       -0.0040
     21 C         -11.4357  -16.3510   19.7024 C.3     1  UNL1        0.0007
     22 C         -10.7834  -15.9492   20.9919 C.3     1  UNL1        0.0091
@<TRIPOS>BOND
     1    21    22    1
     2    22    14    1
     3    14    15    1
     4    15    16   ar
     5    16    17   ar
     6    17    18   ar
     7    18    19   ar
     8    19    20   ar
     9    14     1    1
    10     1     2   ar
    11     2     3    1
    12     2     4   ar
    13     4     5   ar
    14     5     6   ar
    15     6     7   ar
    16     7     8   ar
    17     8     9   ar
    18     9    10   ar
    19    10    11   ar
    20    11    12    2
    21    20    15   ar
    22    11     1   ar
    23     9     4   ar
    24     3    13    1
@<TRIPOS>MOLECULE
*****
 22 24 0 0 0
SMALL
GASTEIGER

@<TRIPOS>ATOM
      1 C          -7.3326  -18.4938   21.7062 C.ar    1  UNL1        0.0911
      2 C          -6.2777  -19.3726   21.1021 C.ar    1  UNL1        0.1390
      3 O          -6.6679  -20.4764   20.1644 O.3     1  UNL1       -0.5055
      4 C          -4.8327  -19.1475   21.4357 C.ar    1  UNL1        0.0682
      5 C          -3.7778  -20.0264   20.8316 C.ar    1  UNL1        0.0061
      6 C          -2.3329  -19.8013   21.1652 C.ar    1  UNL1        0.0003
      7 C          -1.9427  -18.6974   22.1028 C.ar    1  UNL1        0.0031
      8 C          -2.9975  -17.8186   22.7069 C.ar    1  UNL1        0.0377
      9 C          -4.4425  -18.0437   22.3733 C.ar    1  UNL1        0.1516
     10 O          -5.4974  -17.1648   22.9774 O.2     1  UNL1       -0.4211
     11 C          -6.9424  -17.3899   22.6438 C.ar    1  UNL1        0.3449
     12 O          -7.9973  -16.5110   23.2479 O.2     1  UNL1       -0.2447
     13 H          -7.5705  -20.6170   19.9560 H       1  UNL1        0.2922
     14 C          -8.7776  -18.7188   21.3726 C.3     1  UNL1        0.0539
     15 C          -9.7879  -18.8610   22.4723 C.ar    1  UNL1       -0.0181
     16 C          -9.5631  -19.8545   23.5733 C.ar    1  UNL1       -0.0040
     17 C         -10.5733  -19.9966   24.6730 C.ar    1  UNL1       -0.0003
     18 C         -11.8083  -19.1453   24.6716 C.ar    1  UNL1       -0.0000
     19 C         -12.0331  -18.1517   23.5705 C.ar    1  UNL1       -0.0003
     20 C         -11.0229  -18.0096   22.4708 C.ar    1  UNL1       -0.0040
     21 C         -10.2962  -19.7580   19.5386 C.3     1  UNL1        0.0007
     22 C          -9.2124  -18.8016   19.9394 C.3     1  UNL1        0.0091
@<TRIPOS>BOND
     1    21    22    1
     2    22    14    1
     3    14    15    1
     4    15    16   ar
     5    16    17   ar
     6    17    18   ar
     7    18    19   ar
     8    19    20   ar
     9    14     1    1
    10     1     2   ar
    11     2     3    1
    12     2     4   ar
    13     4     5   ar
    14     5     6   ar
    15     6     7   ar
    16     7     8   ar
    17     8     9   ar
    18     9    10   ar
    19    10    11   ar
    20    11    12    2
    21    20    15   ar
    22    11     1   ar
    23     9     4   ar
    24     3    13    1
@<TRIPOS>MOLECULE
*****
 22 24 0 0 0
SMALL
GASTEIGER

@<TRIPOS>ATOM
      1 C         -12.4177   -6.7099   18.0764 C.ar    1  UNL1        0.0911
      2 C         -13.5520   -6.3744   18.9988 C.ar    1  UNL1        0.1390
      3 O         -13.3468   -5.3916   20.1133 O.3     1  UNL1       -0.5055
      4 C         -14.8915   -7.0216   18.8067 C.ar    1  UNL1        0.0682
      5 C         -16.0258   -6.6861   19.7291 C.ar    1  UNL1        0.0061
      6 C         -17.3652   -7.3333   19.5370 C.ar    1  UNL1        0.0003
      7 C         -17.5704   -8.3161   18.4225 C.ar    1  UNL1        0.0031
      8 C         -16.4362   -8.6516   17.5001 C.ar    1  UNL1        0.0377
      9 C         -15.0967   -8.0044   17.6922 C.ar    1  UNL1        0.1516
     10 O         -13.9624   -8.3399   16.7698 O.2     1  UNL1       -0.4211
     11 C         -12.6229   -7.6927   16.9619 C.ar    1  UNL1        0.3449
     12 O         -11.4886   -8.0282   16.0395 O.2     1  UNL1       -0.2447
     13 H         -12.5101   -4.9873   20.2333 H       1  UNL1        0.2922
     14 C         -11.0782   -6.0627   18.2685 C.3     1  UNL1        0.0539
     15 C         -10.7309   -4.8176   17.5076 C.ar    1  UNL1       -0.0181
     16 C          -9.4358   -4.7351   16.7553 C.ar    1  UNL1       -0.0040
     17 C          -9.0885   -3.4900   15.9943 C.ar    1  UNL1       -0.0003
     18 C         -10.0362   -2.3273   15.9857 C.ar    1  UNL1       -0.0000
     19 C         -11.3313   -2.4098   16.7381 C.ar    1  UNL1       -0.0003
     20 C         -11.6786   -3.6549   17.4990 C.ar    1  UNL1       -0.0040
     21 C          -9.2720   -7.8505   18.8078 C.3     1  UNL1        0.0007
     22 C         -10.0861   -6.6606   19.2215 C.3     1  UNL1        0.0091
@<TRIPOS>BOND
     1    21    22    1
     2    22    14    1
     3    14    15    1
     4    15    16   ar
     5    16    17   ar
     6    17    18   ar
     7    18    19   ar
     8    19    20   ar
     9    14     1    1
    10     1     2   ar
    11     2     3    1
    12     2     4   ar
    13     4     5   ar
    14     5     6   ar
    15     6     7   ar
    16     7     8   ar
    17     8     9   ar
    18     9    10   ar
    19    10    11   ar
    20    11    12    2
    21    20    15   ar
    22    11     1   ar
    23     9     4   ar
    24     3    13    1
@<TRIPOS>MOLECULE
*****
 22 24 0 0 0
SMALL
GASTEIGER

@<TRIPOS>ATOM
      1 C         -14.2047   -6.4258   18.0377 C.ar    1  UNL1        0.0911
      2 C         -14.7449   -7.7881   17.7179 C.ar    1  UNL1        0.1390
      3 O         -14.0431   -8.6573   16.7170 O.3     1  UNL1       -0.5055
      4 C         -15.9870   -8.2812   18.3992 C.ar    1  UNL1        0.0682
      5 C         -16.5273   -9.6435   18.0794 C.ar    1  UNL1        0.0061
      6 C         -17.7693  -10.1366   18.7606 C.ar    1  UNL1        0.0003
      7 C         -18.4712   -9.2674   19.7616 C.ar    1  UNL1        0.0031
      8 C         -17.9309   -7.9051   20.0813 C.ar    1  UNL1        0.0377
      9 C         -16.6889   -7.4120   19.4001 C.ar    1  UNL1        0.1516
     10 O         -16.1485   -6.0497   19.7198 O.2     1  UNL1       -0.4211
     11 C         -14.9065   -5.5566   19.0386 C.ar    1  UNL1        0.3449
     12 O         -14.3662   -4.1942   19.3583 O.2     1  UNL1       -0.2447
     13 H         -13.2672   -8.3493   16.2914 H       1  UNL1        0.2922
     14 C         -12.9625   -5.9327   17.3564 C.3     1  UNL1        0.0539
     15 C         -11.6227   -6.1388   17.9987 C.ar    1  UNL1       -0.0181
     16 C         -10.9732   -7.4903   17.9616 C.ar    1  UNL1       -0.0040
     17 C          -9.6334   -7.6963   18.6039 C.ar    1  UNL1       -0.0003
     18 C          -8.9432   -6.5509   19.2833 C.ar    1  UNL1       -0.0000
     19 C          -9.5928   -5.1993   19.3204 C.ar    1  UNL1       -0.0003
     20 C         -10.9326   -4.9932   18.6781 C.ar    1  UNL1       -0.0040
     21 C         -13.2409   -3.7453   15.9826 C.3     1  UNL1        0.0007
     22 C         -13.0602   -5.2335   16.0330 C.3     1  UNL1        0.0091
@<TRIPOS>BOND
     1    21    22    1
     2    22    14    1
     3    14    15    1
     4    15    16   ar
     5    16    17   ar
     6    17    18   ar
     7    18    19   ar
     8    19    20   ar
     9    14     1    1
    10     1     2   ar
    11     2     3    1
    12     2     4   ar
    13     4     5   ar
    14     5     6   ar
    15     6     7   ar
    16     7     8   ar
    17     8     9   ar
    18     9    10   ar
    19    10    11   ar
    20    11    12    2
    21    20    15   ar
    22    11     1   ar
    23     9     4   ar
    24     3    13    1
@<TRIPOS>MOLECULE
*****
 22 24 0 0 0
SMALL
GASTEIGER

@<TRIPOS>ATOM
      1 C         -14.5988   -7.0669   17.5329 C.ar    1  UNL1        0.0911
      2 C         -15.0685   -8.3530   18.1455 C.ar    1  UNL1        0.1390
      3 O         -14.1733   -9.1084   19.0825 O.3     1  UNL1       -0.5055
      4 C         -16.4334   -8.8839   17.8209 C.ar    1  UNL1        0.0682
      5 C         -16.9030  -10.1701   18.4335 C.ar    1  UNL1        0.0061
      6 C         -18.2679  -10.7009   18.1089 C.ar    1  UNL1        0.0003
      7 C         -19.1631   -9.9456   17.1718 C.ar    1  UNL1        0.0031
      8 C         -18.6934   -8.6594   16.5593 C.ar    1  UNL1        0.0377
      9 C         -17.3286   -8.1286   16.8839 C.ar    1  UNL1        0.1516
     10 O         -16.8589   -6.8424   16.2713 O.2     1  UNL1       -0.4211
     11 C         -15.4940   -6.3116   16.5959 C.ar    1  UNL1        0.3449
     12 O         -15.0243   -5.0254   15.9833 O.2     1  UNL1       -0.2447
     13 H         -13.3207   -8.7767   19.2853 H       1  UNL1        0.2922
     14 C         -13.2339   -6.5360   17.8575 C.3     1  UNL1        0.0539
     15 C         -13.0903   -5.2509   18.6176 C.ar    1  UNL1       -0.0181
     16 C         -12.2623   -4.1345   18.0537 C.ar    1  UNL1       -0.0040
     17 C         -12.1187   -2.8493   18.8138 C.ar    1  UNL1       -0.0003
     18 C         -12.8030   -2.6806   20.1378 C.ar    1  UNL1       -0.0000
     19 C         -13.6311   -3.7970   20.7018 C.ar    1  UNL1       -0.0003
     20 C         -13.7747   -5.0822   19.9417 C.ar    1  UNL1       -0.0040
     21 C         -11.9281   -7.8403   16.0290 C.3     1  UNL1        0.0007
     22 C         -12.0127   -7.2903   17.4219 C.3     1  UNL1        0.0091
@<TRIPOS>BOND
     1    21    22    1
     2    22    14    1
     3    14    15    1
     4    15    16   ar
     5    16    17   ar
     6    17    18   ar
     7    18    19   ar
     8    19    20   ar
     9    14     1    1
    10     1     2   ar
    11     2     3    1
    12     2     4   ar
    13     4     5   ar
    14     5     6   ar
    15     6     7   ar
    16     7     8   ar
    17     8     9   ar
    18     9    10   ar
    19    10    11   ar
    20    11    12    2
    21    20    15   ar
    22    11     1   ar
    23     9     4   ar
    24     3    13    1
@<TRIPOS>MOLECULE
*****
 22 24 0 0 0
SMALL
GASTEIGER

@<TRIPOS>ATOM
      1 C         -13.9653   -4.9320   18.3993 C.ar    1  UNL1        0.0911
      2 C         -13.9925   -6.3671   18.8348 C.ar    1  UNL1        0.1390
      3 O         -12.8845   -6.9140   19.6852 O.3     1  UNL1       -0.5055
      4 C         -15.1277   -7.2555   18.4198 C.ar    1  UNL1        0.0682
      5 C         -15.1549   -8.6906   18.8552 C.ar    1  UNL1        0.0061
      6 C         -16.2901   -9.5788   18.4402 C.ar    1  UNL1        0.0003
      7 C         -17.3981   -9.0320   17.5897 C.ar    1  UNL1        0.0031
      8 C         -17.3709   -7.5969   17.1543 C.ar    1  UNL1        0.0377
      9 C         -16.2357   -6.7086   17.5693 C.ar    1  UNL1        0.1516
     10 O         -16.2085   -5.2734   17.1339 O.2     1  UNL1       -0.4211
     11 C         -15.0733   -4.3851   17.5489 C.ar    1  UNL1        0.3449
     12 O         -15.0461   -2.9499   17.1134 O.2     1  UNL1       -0.2447
     13 H         -12.1753   -6.3591   19.9445 H       1  UNL1        0.2922
     14 C         -12.8301   -4.0436   18.8144 C.3     1  UNL1        0.0539
     15 C         -11.5734   -4.0010   17.9964 C.ar    1  UNL1       -0.0181
     16 C         -10.5314   -5.0664   18.1663 C.ar    1  UNL1       -0.0040
     17 C          -9.2747   -5.0237   17.3483 C.ar    1  UNL1       -0.0003
     18 C          -9.0602   -3.9156   16.3604 C.ar    1  UNL1       -0.0000
     19 C         -10.1023   -2.8501   16.1904 C.ar    1  UNL1       -0.0003
     20 C         -11.3589   -2.8928   17.0084 C.ar    1  UNL1       -0.0040
     21 C         -14.0896   -3.4188   20.9990 C.3     1  UNL1        0.0007
     22 C         -12.9515   -3.1980   20.0473 C.3     1  UNL1        0.0091
@<TRIPOS>BOND
     1    21    22    1
     2    22    14    1
     3    14    15    1
     4    15    16   ar
     5    16    17   ar
     6    17    18   ar
     7    18    19   ar
     8    19    20   ar
     9    14     1    1
    10     1     2   ar
    11     2     3    1
    12     2     4   ar
    13     4     5   ar
    14     5     6   ar
    15     6     7   ar
    16     7     8   ar
    17     8     9   ar
    18     9    10   ar
    19    10    11   ar
    20    11    12    2
    21    20    15   ar
    22    11     1   ar
    23     9     4   ar
    24     3    13    1
