@<TRIPOS>MOLECULE
*****
 24 26 0 0 0
SMALL
GASTEIGER

@<TRIPOS>ATOM
      1 C          -7.9539  -18.1178   21.7211 C.3     1  UNL1        0.1471
      2 O          -6.6419  -17.4664   22.0439 O.3     1  UNL1       -0.3812
      3 C          -9.0862  -18.9976   21.2807 C.3     1  UNL1        0.0584
      4 C         -10.3718  -18.3125   21.6384 C.ar    1  UNL1       -0.0202
      5 C         -11.8063  -18.7071   21.4473 C.ar    1  UNL1       -0.0044
      6 C         -12.9030  -17.7984   21.9177 C.ar    1  UNL1       -0.0003
      7 C         -12.5653  -16.4951   22.5792 C.ar    1  UNL1       -0.0002
      8 C         -11.1309  -16.1006   22.7703 C.ar    1  UNL1       -0.0011
      9 C         -10.0341  -17.0093   22.2999 C.ar    1  UNL1        0.0157
     10 C          -8.5398  -16.8890   22.3510 C.3     1  UNL1        0.2136
     11 H          -5.9159  -18.0375   21.7480 H       1  UNL1        0.2105
     12 C          -7.0938  -19.2104   21.1586 C.3     1  UNL1        0.1001
     13 C          -4.7166  -19.7068   20.2355 C.3     1  UNL1        0.0859
     14 N          -5.9637  -18.8733   20.2318 N.3     1  UNL1       -0.2942
     15 H          -6.3393  -18.9096   19.2841 H       1  UNL1        0.1234
     16 O          -7.7670  -15.7413   22.9303 O.3     1  UNL1       -0.4725
     17 C          -7.3687  -15.7591   24.3764 C.ar    1  UNL1        0.1372
     18 C          -8.3836  -16.0906   25.4299 C.ar    1  UNL1        0.0662
     19 C          -7.9854  -16.1085   26.8759 C.ar    1  UNL1        0.1431
     20 F          -9.0004  -16.4401   27.9294 F       1  UNL1       -0.2041
     21 C          -6.5720  -15.7949   27.2684 C.ar    1  UNL1        0.0295
     22 C          -5.5570  -15.4634   26.2149 C.ar    1  UNL1        0.0010
     23 C          -5.9553  -15.4455   24.7689 C.ar    1  UNL1        0.0123
     24 C          -4.9403  -15.1140   23.7154 C.3     1  UNL1        0.0342
@<TRIPOS>BOND
     1    13    14    1
     2    14    12    1
     3    12     1    1
     4     1     2    1
     5     1     3    1
     6     3     4    1
     7     4     5   ar
     8     5     6   ar
     9     6     7   ar
    10     7     8   ar
    11     8     9   ar
    12     9    10    1
    13    10    16    1
    14    16    17    1
    15    17    18   ar
    16    18    19   ar
    17    19    20    1
    18    19    21   ar
    19    21    22   ar
    20    22    23   ar
    21    23    24    1
    22    10     1    1
    23    23    17   ar
    24     9     4   ar
    25    14    15    1
    26     2    11    1
@<TRIPOS>MOLECULE
*****
 24 26 0 0 0
SMALL
GASTEIGER

@<TRIPOS>ATOM
      1 C          -6.7946  -16.0060   23.3963 C.3     1  UNL1        0.1471
      2 O          -7.7531  -14.8630   23.5537 O.3     1  UNL1       -0.3812
      3 C          -5.6617  -16.9880   23.4439 C.3     1  UNL1        0.0584
      4 C          -5.9959  -18.1262   22.5259 C.ar    1  UNL1       -0.0202
      5 C          -5.2537  -19.3802   22.1705 C.ar    1  UNL1       -0.0044
      6 C          -5.8509  -20.3557   21.2001 C.ar    1  UNL1       -0.0003
      7 C          -7.1903  -20.0771   20.5851 C.ar    1  UNL1       -0.0002
      8 C          -7.9326  -18.8231   20.9405 C.ar    1  UNL1       -0.0011
      9 C          -7.3354  -17.8476   21.9109 C.ar    1  UNL1        0.0157
     10 C          -7.8290  -16.5372   22.4488 C.3     1  UNL1        0.2136
     11 H          -7.3870  -14.2176   24.1785 H       1  UNL1        0.2105
     12 C          -5.9605  -15.2357   24.3767 C.3     1  UNL1        0.1001
     13 C          -6.5550  -15.4232   26.8989 C.3     1  UNL1        0.0859
     14 N          -6.5925  -14.6589   25.6087 N.3     1  UNL1       -0.2942
     15 H          -6.1348  -13.7642   25.7831 H       1  UNL1        0.1234
     16 O          -9.1288  -15.8745   22.1005 O.3     1  UNL1       -0.4725
     17 C         -10.4212  -16.6120   22.2904 C.ar    1  UNL1        0.1372
     18 C         -10.6788  -17.3575   23.5663 C.ar    1  UNL1        0.0662
     19 C         -11.9711  -18.0948   23.7563 C.ar    1  UNL1        0.1431
     20 F         -12.2288  -18.8403   25.0321 F       1  UNL1       -0.2041
     21 C         -13.0059  -18.0867   22.6703 C.ar    1  UNL1        0.0295
     22 C         -12.7482  -17.3412   21.3944 C.ar    1  UNL1        0.0010
     23 C         -11.4559  -16.6038   21.2044 C.ar    1  UNL1        0.0123
     24 C         -11.1983  -15.8583   19.9286 C.3     1  UNL1        0.0342
@<TRIPOS>BOND
     1    13    14    1
     2    14    12    1
     3    12     1    1
     4     1     2    1
     5     1     3    1
     6     3     4    1
     7     4     5   ar
     8     5     6   ar
     9     6     7   ar
    10     7     8   ar
    11     8     9   ar
    12     9    10    1
    13    10    16    1
    14    16    17    1
    15    17    18   ar
    16    18    19   ar
    17    19    20    1
    18    19    21   ar
    19    21    22   ar
    20    22    23   ar
    21    23    24    1
    22    10     1    1
    23    23    17   ar
    24     9     4   ar
    25    14    15    1
    26     2    11    1
@<TRIPOS>MOLECULE
*****
 24 26 0 0 0
SMALL
GASTEIGER

@<TRIPOS>ATOM
      1 C          -9.6666  -17.1819   21.7559 C.3     1  UNL1        0.1471
      2 O         -10.0763  -15.8493   22.3094 O.3     1  UNL1       -0.3812
      3 C          -9.5543  -18.5282   21.1042 C.3     1  UNL1        0.0584
      4 C          -8.1476  -19.0159   21.2872 C.ar    1  UNL1       -0.0202
      5 C          -7.4583  -20.2765   20.8561 C.ar    1  UNL1       -0.0044
      6 C          -6.0119  -20.4921   21.1899 C.ar    1  UNL1       -0.0003
      7 C          -5.2549  -19.4472   21.9548 C.ar    1  UNL1       -0.0002
      8 C          -5.9442  -18.1866   22.3858 C.ar    1  UNL1       -0.0011
      9 C          -7.3905  -17.9710   22.0520 C.ar    1  UNL1        0.0157
     10 C          -8.3293  -16.8375   22.3417 C.3     1  UNL1        0.2136
     11 H         -11.0107  -15.6878   22.1051 H       1  UNL1        0.2105
     12 C         -11.0895  -17.2477   21.2859 C.3     1  UNL1        0.1001
     13 C         -12.9508  -17.7204   23.0357 C.3     1  UNL1        0.0859
     14 N         -12.1954  -16.7549   22.1714 N.3     1  UNL1       -0.2942
     15 H         -11.7856  -16.0597   22.7951 H       1  UNL1        0.1234
     16 O          -7.9903  -15.5804   23.0864 O.3     1  UNL1       -0.4725
     17 C          -7.5040  -15.6560   24.5035 C.ar    1  UNL1        0.1372
     18 C          -8.4658  -15.9710   25.6106 C.ar    1  UNL1        0.0662
     19 C          -7.9797  -16.0467   27.0276 C.ar    1  UNL1        0.1431
     20 F          -8.9415  -16.3616   28.1347 F       1  UNL1       -0.2041
     21 C          -6.5317  -15.8074   27.3375 C.ar    1  UNL1        0.0295
     22 C          -5.5699  -15.4925   26.2304 C.ar    1  UNL1        0.0010
     23 C          -6.0560  -15.4168   24.8134 C.ar    1  UNL1        0.0123
     24 C          -5.0942  -15.1018   23.7062 C.3     1  UNL1        0.0342
@<TRIPOS>BOND
     1    13    14    1
     2    14    12    1
     3    12     1    1
     4     1     2    1
     5     1     3    1
     6     3     4    1
     7     4     5   ar
     8     5     6   ar
     9     6     7   ar
    10     7     8   ar
    11     8     9   ar
    12     9    10    1
    13    10    16    1
    14    16    17    1
    15    17    18   ar
    16    18    19   ar
    17    19    20    1
    18    19    21   ar
    19    21    22   ar
    20    22    23   ar
    21    23    24    1
    22    10     1    1
    23    23    17   ar
    24     9     4   ar
    25    14    15    1
    26     2    11    1
@<TRIPOS>MOLECULE
*****
 24 26 0 0 0
SMALL
GASTEIGER

@<TRIPOS>ATOM
      1 C          -7.9160  -16.1595   23.5638 C.3     1  UNL1        0.1471
      2 O          -6.9307  -15.6014   22.5801 O.3     1  UNL1       -0.3812
      3 C          -8.8330  -16.4598   24.7122 C.3     1  UNL1        0.0584
      4 C          -9.5207  -17.7623   24.4281 C.ar    1  UNL1       -0.0202
      5 C         -10.5312  -18.5539   25.2039 C.ar    1  UNL1       -0.0044
      6 C         -11.0498  -19.8502   24.6557 C.ar    1  UNL1       -0.0003
      7 C         -10.5579  -20.3549   23.3316 C.ar    1  UNL1       -0.0002
      8 C          -9.5473  -19.5632   22.5557 C.ar    1  UNL1       -0.0011
      9 C          -9.0287  -18.2669   23.1039 C.ar    1  UNL1        0.0157
     10 C          -8.0370  -17.2764   22.5698 C.3     1  UNL1        0.2136
     11 H          -6.5811  -14.7606   22.9143 H       1  UNL1        0.2105
     12 C          -7.5891  -14.9260   24.3521 C.3     1  UNL1        0.1001
     13 C          -5.5352  -15.1671   25.9247 C.3     1  UNL1        0.0859
     14 N          -6.1621  -14.6041   24.6838 N.3     1  UNL1       -0.2942
     15 H          -5.5974  -14.9248   23.8971 H       1  UNL1        0.1234
     16 O          -7.2963  -17.3839   21.2699 O.3     1  UNL1       -0.4725
     17 C          -6.4144  -18.5680   21.0048 C.ar    1  UNL1        0.1372
     18 C          -5.0715  -18.6660   21.6658 C.ar    1  UNL1        0.0662
     19 C          -4.1897  -19.8501   21.4008 C.ar    1  UNL1        0.1431
     20 F          -2.8468  -19.9481   22.0618 F       1  UNL1       -0.2041
     21 C          -4.6508  -20.9362   20.4747 C.ar    1  UNL1        0.0295
     22 C          -5.9937  -20.8383   19.8137 C.ar    1  UNL1        0.0010
     23 C          -6.8755  -19.6542   20.0787 C.ar    1  UNL1        0.0123
     24 C          -8.2185  -19.5562   19.4176 C.3     1  UNL1        0.0342
@<TRIPOS>BOND
     1    13    14    1
     2    14    12    1
     3    12     1    1
     4     1     2    1
     5     1     3    1
     6     3     4    1
     7     4     5   ar
     8     5     6   ar
     9     6     7   ar
    10     7     8   ar
    11     8     9   ar
    12     9    10    1
    13    10    16    1
    14    16    17    1
    15    17    18   ar
    16    18    19   ar
    17    19    20    1
    18    19    21   ar
    19    21    22   ar
    20    22    23   ar
    21    23    24    1
    22    10     1    1
    23    23    17   ar
    24     9     4   ar
    25    14    15    1
    26     2    11    1
@<TRIPOS>MOLECULE
*****
 24 26 0 0 0
SMALL
GASTEIGER

@<TRIPOS>ATOM
      1 C          -6.6381  -18.7765   21.8530 C.3     1  UNL1        0.1471
      2 O          -7.4646  -19.8002   21.1327 O.3     1  UNL1       -0.3812
      3 C          -5.5752  -17.8752   22.4079 C.3     1  UNL1        0.0584
      4 C          -6.2223  -16.9462   23.3918 C.ar    1  UNL1       -0.0202
      5 C          -5.6685  -15.8447   24.2461 C.ar    1  UNL1       -0.0044
      6 C          -6.5776  -15.0703   25.1537 C.ar    1  UNL1       -0.0003
      7 C          -8.0406  -15.3974   25.2070 C.ar    1  UNL1       -0.0002
      8 C          -8.5944  -16.4989   24.3526 C.ar    1  UNL1       -0.0011
      9 C          -7.6853  -17.2733   23.4451 C.ar    1  UNL1        0.0157
     10 C          -7.9422  -18.4045   22.4940 C.3     1  UNL1        0.2136
     11 H          -6.8962  -20.3146   20.5383 H       1  UNL1        0.2105
     12 C          -5.5068  -19.3625   21.0614 C.3     1  UNL1        0.1001
     13 C          -3.5913  -18.8103   19.3953 C.3     1  UNL1        0.0859
     14 N          -5.0231  -18.6724   19.8206 N.3     1  UNL1       -0.2942
     15 H          -5.5940  -19.0187   19.0495 H       1  UNL1        0.1234
     16 O          -9.2702  -19.0502   22.2303 O.3     1  UNL1       -0.4725
     17 C         -10.4794  -18.2006   21.9731 C.ar    1  UNL1        0.1372
     18 C         -10.5950  -17.4287   20.6921 C.ar    1  UNL1        0.0662
     19 C         -11.8041  -16.5792   20.4348 C.ar    1  UNL1        0.1431
     20 F         -11.9196  -15.8072   19.1539 F       1  UNL1       -0.2041
     21 C         -12.8977  -16.5015   21.4585 C.ar    1  UNL1        0.0295
     22 C         -12.7822  -17.2735   22.7394 C.ar    1  UNL1        0.0010
     23 C         -11.5731  -18.1230   22.9968 C.ar    1  UNL1        0.0123
     24 C         -11.4576  -18.8949   24.2777 C.3     1  UNL1        0.0342
@<TRIPOS>BOND
     1    13    14    1
     2    14    12    1
     3    12     1    1
     4     1     2    1
     5     1     3    1
     6     3     4    1
     7     4     5   ar
     8     5     6   ar
     9     6     7   ar
    10     7     8   ar
    11     8     9   ar
    12     9    10    1
    13    10    16    1
    14    16    17    1
    15    17    18   ar
    16    18    19   ar
    17    19    20    1
    18    19    21   ar
    19    21    22   ar
    20    22    23   ar
    21    23    24    1
    22    10     1    1
    23    23    17   ar
    24     9     4   ar
    25    14    15    1
    26     2    11    1
@<TRIPOS>MOLECULE
*****
 24 26 0 0 0
SMALL
GASTEIGER

@<TRIPOS>ATOM
      1 C          -7.4088  -15.9113   24.0878 C.3     1  UNL1        0.1471
      2 O          -8.6597  -15.2664   24.6067 O.3     1  UNL1       -0.3812
      3 C          -6.0171  -16.3022   23.6873 C.3     1  UNL1        0.0584
      4 C          -6.0918  -17.6239   22.9819 C.ar    1  UNL1       -0.0202
      5 C          -5.0363  -18.4946   22.3673 C.ar    1  UNL1       -0.0044
      6 C          -5.4186  -19.7911   21.7172 C.ar    1  UNL1       -0.0003
      7 C          -6.8564  -20.2170   21.6817 C.ar    1  UNL1       -0.0002
      8 C          -7.9119  -19.3464   22.2962 C.ar    1  UNL1       -0.0011
      9 C          -7.5296  -18.0498   22.9464 C.ar    1  UNL1        0.0157
     10 C          -8.3435  -16.9913   23.6299 C.3     1  UNL1        0.2136
     11 H          -8.4365  -14.4239   25.0325 H       1  UNL1        0.2105
     12 C          -6.7355  -14.6964   24.6542 C.3     1  UNL1        0.1001
     13 C          -6.5329  -15.3019   27.1726 C.3     1  UNL1        0.0859
     14 N          -5.9086  -14.8097   25.9006 N.3     1  UNL1       -0.2942
     15 H          -5.1383  -15.4431   25.6863 H       1  UNL1        0.1234
     16 O          -9.8311  -17.0097   23.8217 O.3     1  UNL1       -0.4725
     17 C         -10.7418  -16.8725   22.6376 C.ar    1  UNL1        0.1372
     18 C         -10.3115  -16.0632   21.4503 C.ar    1  UNL1        0.0662
     19 C         -11.2221  -15.9260   20.2663 C.ar    1  UNL1        0.1431
     20 F         -10.7917  -15.1167   19.0789 F       1  UNL1       -0.2041
     21 C         -12.5631  -16.5981   20.2696 C.ar    1  UNL1        0.0295
     22 C         -12.9934  -17.4074   21.4570 C.ar    1  UNL1        0.0010
     23 C         -12.0828  -17.5446   22.6410 C.ar    1  UNL1        0.0123
     24 C         -12.5131  -18.3540   23.8283 C.3     1  UNL1        0.0342
@<TRIPOS>BOND
     1    13    14    1
     2    14    12    1
     3    12     1    1
     4     1     2    1
     5     1     3    1
     6     3     4    1
     7     4     5   ar
     8     5     6   ar
     9     6     7   ar
    10     7     8   ar
    11     8     9   ar
    12     9    10    1
    13    10    16    1
    14    16    17    1
    15    17    18   ar
    16    18    19   ar
    17    19    20    1
    18    19    21   ar
    19    21    22   ar
    20    22    23   ar
    21    23    24    1
    22    10     1    1
    23    23    17   ar
    24     9     4   ar
    25    14    15    1
    26     2    11    1
@<TRIPOS>MOLECULE
*****
 24 26 0 0 0
SMALL
GASTEIGER

@<TRIPOS>ATOM
      1 C          -6.4470  -18.6523   21.7453 C.3     1  UNL1        0.1471
      2 O          -6.7439  -17.3977   22.5120 O.3     1  UNL1       -0.3812
      3 C          -5.8876  -19.9105   21.1502 C.3     1  UNL1        0.0584
      4 C          -6.8594  -20.4089   20.1220 C.ar    1  UNL1       -0.0202
      5 C          -6.8380  -21.6051   19.2173 C.ar    1  UNL1       -0.0044
      6 C          -7.9765  -21.8511   18.2722 C.ar    1  UNL1       -0.0003
      7 C          -9.1365  -20.9010   18.2318 C.ar    1  UNL1       -0.0002
      8 C          -9.1579  -19.7047   19.1365 C.ar    1  UNL1       -0.0011
      9 C          -8.0194  -19.4587   20.0816 C.ar    1  UNL1        0.0157
     10 C          -7.7645  -18.3731   21.0849 C.3     1  UNL1        0.2136
     11 H          -6.0192  -17.2181   23.1312 H       1  UNL1        0.2105
     12 C          -5.1915  -18.6693   22.5660 C.3     1  UNL1        0.1001
     13 C          -2.7258  -17.8912   22.8203 C.3     1  UNL1        0.0859
     14 N          -4.1179  -17.6522   22.3154 N.3     1  UNL1       -0.2942
     15 H          -4.0490  -17.5398   21.3039 H       1  UNL1        0.1234
     16 O          -8.6684  -17.2121   21.3765 O.3     1  UNL1       -0.4725
     17 C         -10.0524  -17.4528   21.9027 C.ar    1  UNL1        0.1372
     18 C         -10.2447  -18.1606   23.2112 C.ar    1  UNL1        0.0662
     19 C         -11.6285  -18.4013   23.7374 C.ar    1  UNL1        0.1431
     20 F         -11.8208  -19.1091   25.0459 F       1  UNL1       -0.2041
     21 C         -12.8201  -17.9342   22.9552 C.ar    1  UNL1        0.0295
     22 C         -12.6278  -17.2264   21.6467 C.ar    1  UNL1        0.0010
     23 C         -11.2440  -16.9857   21.1205 C.ar    1  UNL1        0.0123
     24 C         -11.0517  -16.2780   19.8120 C.3     1  UNL1        0.0342
@<TRIPOS>BOND
     1    13    14    1
     2    14    12    1
     3    12     1    1
     4     1     2    1
     5     1     3    1
     6     3     4    1
     7     4     5   ar
     8     5     6   ar
     9     6     7   ar
    10     7     8   ar
    11     8     9   ar
    12     9    10    1
    13    10    16    1
    14    16    17    1
    15    17    18   ar
    16    18    19   ar
    17    19    20    1
    18    19    21   ar
    19    21    22   ar
    20    22    23   ar
    21    23    24    1
    22    10     1    1
    23    23    17   ar
    24     9     4   ar
    25    14    15    1
    26     2    11    1
@<TRIPOS>MOLECULE
*****
 24 26 0 0 0
SMALL
GASTEIGER

@<TRIPOS>ATOM
      1 C          -6.3881  -15.9926   24.0556 C.3     1  UNL1        0.1471
      2 O          -7.6867  -15.2639   24.2360 O.3     1  UNL1       -0.3812
      3 C          -4.9830  -16.5165   24.0874 C.3     1  UNL1        0.0584
      4 C          -4.8956  -17.6677   23.1297 C.ar    1  UNL1       -0.0202
      5 C          -3.7603  -18.5694   22.7450 C.ar    1  UNL1       -0.0044
      6 C          -3.9763  -19.6586   21.7366 C.ar    1  UNL1       -0.0003
      7 C          -5.3275  -19.8461   21.1129 C.ar    1  UNL1       -0.0002
      8 C          -6.4628  -18.9444   21.4976 C.ar    1  UNL1       -0.0011
      9 C          -6.2469  -17.8552   22.5060 C.ar    1  UNL1        0.0157
     10 C          -7.1692  -16.8199   23.0782 C.3     1  UNL1        0.2136
     11 H          -7.5710  -14.5529   24.8856 H       1  UNL1        0.2105
     12 C          -5.8784  -15.0129   25.0707 C.3     1  UNL1        0.1001
     13 C          -6.7320  -15.8491   27.3777 C.3     1  UNL1        0.0859
     14 N          -6.6491  -14.7738   26.3352 N.3     1  UNL1       -0.2942
     15 H          -6.2314  -13.9592   26.7850 H       1  UNL1        0.1234
     16 O          -8.6184  -16.6431   22.7336 O.3     1  UNL1       -0.4725
     17 C          -9.4453  -17.8303   22.3372 C.ar    1  UNL1        0.1372
     18 C          -9.6850  -18.1266   20.8865 C.ar    1  UNL1        0.0662
     19 C         -10.5119  -19.3137   20.4901 C.ar    1  UNL1        0.1431
     20 F         -10.7516  -19.6101   19.0394 F       1  UNL1       -0.2041
     21 C         -11.0991  -20.2044   21.5446 C.ar    1  UNL1        0.0295
     22 C         -10.8594  -19.9080   22.9953 C.ar    1  UNL1        0.0010
     23 C         -10.0325  -18.7210   23.3917 C.ar    1  UNL1        0.0123
     24 C          -9.7928  -18.4246   24.8424 C.3     1  UNL1        0.0342
@<TRIPOS>BOND
     1    13    14    1
     2    14    12    1
     3    12     1    1
     4     1     2    1
     5     1     3    1
     6     3     4    1
     7     4     5   ar
     8     5     6   ar
     9     6     7   ar
    10     7     8   ar
    11     8     9   ar
    12     9    10    1
    13    10    16    1
    14    16    17    1
    15    17    18   ar
    16    18    19   ar
    17    19    20    1
    18    19    21   ar
    19    21    22   ar
    20    22    23   ar
    21    23    24    1
    22    10     1    1
    23    23    17   ar
    24     9     4   ar
    25    14    15    1
    26     2    11    1
@<TRIPOS>MOLECULE
*****
 24 26 0 0 0
SMALL
GASTEIGER

@<TRIPOS>ATOM
      1 C          -6.3078  -16.2494   23.6980 C.3     1  UNL1        0.1471
      2 O          -7.7075  -15.7116   23.7355 O.3     1  UNL1       -0.3812
      3 C          -4.8510  -16.5621   23.8714 C.3     1  UNL1        0.0584
      4 C          -4.5159  -17.7196   22.9781 C.ar    1  UNL1       -0.0202
      5 C          -3.2343  -18.4590   22.7315 C.ar    1  UNL1       -0.0044
      6 C          -3.2024  -19.6009   21.7595 C.ar    1  UNL1       -0.0003
      7 C          -4.4520  -20.0036   21.0341 C.ar    1  UNL1       -0.0002
      8 C          -5.7336  -19.2642   21.2806 C.ar    1  UNL1       -0.0011
      9 C          -5.7656  -18.1222   22.2526 C.ar    1  UNL1        0.0157
     10 C          -6.8730  -17.2136   22.6976 C.3     1  UNL1        0.2136
     11 H          -7.7525  -14.9701   24.3592 H       1  UNL1        0.2105
     12 C          -6.0352  -15.1728   24.7063 C.3     1  UNL1        0.1001
     13 C          -6.6854  -15.5060   27.1995 C.3     1  UNL1        0.0859
     14 N          -6.9904  -14.9484   25.8408 N.3     1  UNL1       -0.2942
     15 H          -7.0845  -13.9388   25.9512 H       1  UNL1        0.1234
     16 O          -8.2958  -17.2609   22.2251 O.3     1  UNL1       -0.4725
     17 C          -9.3009  -18.1020   22.9548 C.ar    1  UNL1        0.1372
     18 C          -8.8901  -19.4184   23.5450 C.ar    1  UNL1        0.0662
     19 C          -9.8951  -20.2595   24.2747 C.ar    1  UNL1        0.1431
     20 F          -9.4844  -21.5759   24.8649 F       1  UNL1       -0.2041
     21 C         -11.3110  -19.7841   24.4142 C.ar    1  UNL1        0.0295
     22 C         -11.7217  -18.4677   23.8240 C.ar    1  UNL1        0.0010
     23 C         -10.7168  -17.6266   23.0943 C.ar    1  UNL1        0.0123
     24 C         -11.1275  -16.3102   22.5041 C.3     1  UNL1        0.0342
@<TRIPOS>BOND
     1    13    14    1
     2    14    12    1
     3    12     1    1
     4     1     2    1
     5     1     3    1
     6     3     4    1
     7     4     5   ar
     8     5     6   ar
     9     6     7   ar
    10     7     8   ar
    11     8     9   ar
    12     9    10    1
    13    10    16    1
    14    16    17    1
    15    17    18   ar
    16    18    19   ar
    17    19    20    1
    18    19    21   ar
    19    21    22   ar
    20    22    23   ar
    21    23    24    1
    22    10     1    1
    23    23    17   ar
    24     9     4   ar
    25    14    15    1
    26     2    11    1
