@<TRIPOS>MOLECULE
*****
 29 31 0 0 0
SMALL
GASTEIGER

@<TRIPOS>ATOM
      1 N          -9.7329  -20.2667   22.7492 N.am    1  UNL1       -0.2573
      2 C          -8.4721  -19.8718   22.0389 C.2     1  UNL1        0.3080
      3 O          -8.5417  -19.2655   20.6687 O.2     1  UNL1       -0.2522
      4 N          -7.1417  -20.0833   22.6988 N.am    1  UNL1       -0.2681
      5 H          -7.0960  -20.4812   23.5981 H       1  UNL1        0.1564
      6 C          -5.8810  -19.6883   21.9885 C.ar    1  UNL1        0.0516
      7 C          -4.9510  -18.6893   22.6108 C.ar    1  UNL1        0.0147
      8 C          -3.6902  -18.2944   21.9004 C.ar    1  UNL1        0.0011
      9 C          -3.3595  -18.8985   20.5678 C.ar    1  UNL1       -0.0004
     10 C          -4.2895  -19.8974   19.9456 C.ar    1  UNL1        0.0011
     11 C          -5.5503  -20.2923   20.6559 C.ar    1  UNL1        0.0147
     12 C          -2.0988  -18.5036   19.8574 C.2     1  UNL1        0.0249
     13 C          -2.0039  -17.9807   18.4547 C.2     1  UNL1        0.1194
     14 N          -0.5581  -17.7162   18.1554 N.2     1  UNL1       -0.1510
     15 N           0.2406  -18.0755   19.3732 N.2     1  UNL1       -0.1695
     16 C          -0.7115  -18.5621   20.4252 C.3     1  UNL1        0.1771
     17 C         -11.0632  -20.0553   22.0894 C.3     1  UNL1        0.1219
     18 C         -12.3009  -16.5359   20.7357 C.ar    1  UNL1        0.1385
     19 C         -12.8932  -15.9457   21.9809 C.ar    1  UNL1        0.0369
     20 C         -12.8756  -16.7252   23.2623 C.ar    1  UNL1        0.0028
     21 C         -12.2656  -18.0951   23.2985 C.ar    1  UNL1       -0.0024
     22 C         -11.6732  -18.6854   22.0533 C.ar    1  UNL1        0.0007
     23 C         -11.6909  -17.9058   20.7719 C.ar    1  UNL1        0.0343
     24 C         -11.0404  -15.2081   18.8924 C.3     1  UNL1        0.2525
     25 O         -12.3185  -15.7564   19.4543 O.3     1  UNL1       -0.4714
     26 C          -9.6632  -20.8731   24.1195 C.3     1  UNL1        0.1269
     27 C         -10.2534  -20.1471   25.2918 C.3     1  UNL1        0.1586
     28 O          -9.7253  -18.7985   25.6821 O.3     1  UNL1       -0.3802
     29 H          -8.8096  -18.8865   25.9899 H       1  UNL1        0.2105
@<TRIPOS>BOND
     1    24    25    1
     2    25    18    1
     3    18    19   ar
     4    19    20   ar
     5    20    21   ar
     6    21    22   ar
     7    22    17    1
     8    17     1    1
     9     1    26    1
    10    26    27    1
    11    27    28    1
    12     1     2   am
    13     2     3    2
    14     2     4   am
    15     4     6    1
    16     6     7   ar
    17     7     8   ar
    18     8     9   ar
    19     9    12    1
    20    12    13    2
    21    13    14    1
    22    14    15    2
    23    15    16    1
    24     9    10   ar
    25    10    11   ar
    26    22    23   ar
    27    23    18   ar
    28    11     6   ar
    29    16    12    1
    30    28    29    1
    31     4     5    1
@<TRIPOS>MOLECULE
*****
 29 31 0 0 0
SMALL
GASTEIGER

@<TRIPOS>ATOM
      1 N          -8.5242  -16.0986   24.8812 N.am    1  UNL1       -0.2573
      2 C          -7.4276  -16.3638   23.8927 C.2     1  UNL1        0.3080
      3 O          -7.6730  -16.1584   22.4272 O.2     1  UNL1       -0.2522
      4 N          -6.0856  -16.8344   24.3697 N.am    1  UNL1       -0.2681
      5 H          -5.9245  -16.9692   25.3316 H       1  UNL1        0.1564
      6 C          -4.9889  -17.0996   23.3813 C.ar    1  UNL1        0.0516
      7 C          -3.9104  -16.0795   23.1659 C.ar    1  UNL1        0.0147
      8 C          -2.8138  -16.3447   22.1774 C.ar    1  UNL1        0.0011
      9 C          -2.7957  -17.6301   21.4043 C.ar    1  UNL1       -0.0004
     10 C          -3.8742  -18.6501   21.6197 C.ar    1  UNL1        0.0011
     11 C          -4.9708  -18.3849   22.6082 C.ar    1  UNL1        0.0147
     12 C          -1.6991  -17.8953   20.4158 C.2     1  UNL1        0.0249
     13 C          -0.3415  -18.4491   20.7325 C.2     1  UNL1        0.1194
     14 N           0.4291  -18.5494   19.4495 N.2     1  UNL1       -0.1510
     15 N          -0.4522  -18.0575   18.3399 N.2     1  UNL1       -0.1695
     16 C          -1.7675  -17.6533   18.9370 C.3     1  UNL1        0.1771
     17 C          -9.8662  -15.6280   24.4042 C.3     1  UNL1        0.1219
     18 C         -12.0878  -16.8156   21.3375 C.ar    1  UNL1        0.1385
     19 C         -12.3414  -18.2467   21.7086 C.ar    1  UNL1        0.0369
     20 C         -11.7699  -18.8049   22.9782 C.ar    1  UNL1        0.0028
     21 C         -10.9449  -17.9320   23.8767 C.ar    1  UNL1       -0.0024
     22 C         -10.6913  -16.5009   23.5057 C.ar    1  UNL1        0.0007
     23 C         -11.2627  -15.9428   22.2361 C.ar    1  UNL1        0.0343
     24 C         -11.7621  -15.5760   19.0776 C.3     1  UNL1        0.2525
     25 O         -12.6592  -16.2574   20.0679 O.3     1  UNL1       -0.4714
     26 C          -8.2788  -16.3039   26.3467 C.3     1  UNL1        0.1269
     27 C          -7.6227  -15.2246   27.1557 C.3     1  UNL1        0.1586
     28 O          -6.2233  -14.7915   26.8335 O.3     1  UNL1       -0.3802
     29 H          -5.6100  -15.5221   27.0098 H       1  UNL1        0.2105
@<TRIPOS>BOND
     1    24    25    1
     2    25    18    1
     3    18    19   ar
     4    19    20   ar
     5    20    21   ar
     6    21    22   ar
     7    22    17    1
     8    17     1    1
     9     1    26    1
    10    26    27    1
    11    27    28    1
    12     1     2   am
    13     2     3    2
    14     2     4   am
    15     4     6    1
    16     6     7   ar
    17     7     8   ar
    18     8     9   ar
    19     9    12    1
    20    12    13    2
    21    13    14    1
    22    14    15    2
    23    15    16    1
    24     9    10   ar
    25    10    11   ar
    26    22    23   ar
    27    23    18   ar
    28    11     6   ar
    29    16    12    1
    30    28    29    1
    31     4     5    1
@<TRIPOS>MOLECULE
*****
 29 31 0 0 0
SMALL
GASTEIGER

@<TRIPOS>ATOM
      1 N          -9.4003  -18.7644   22.9724 N.am    1  UNL1       -0.2573
      2 C          -8.0086  -18.4238   22.5284 C.2     1  UNL1        0.3080
      3 O          -7.6238  -16.9923   22.2988 O.2     1  UNL1       -0.2522
      4 N          -7.0017  -19.5148   22.3139 N.am    1  UNL1       -0.2681
      5 H          -7.2543  -20.4544   22.4646 H       1  UNL1        0.1564
      6 C          -5.6100  -19.1742   21.8699 C.ar    1  UNL1        0.0516
      7 C          -5.1910  -19.4309   20.4526 C.ar    1  UNL1        0.0147
      8 C          -3.7993  -19.0904   20.0085 C.ar    1  UNL1        0.0011
      9 C          -2.8266  -18.4931   20.9818 C.ar    1  UNL1       -0.0004
     10 C          -3.2456  -18.2364   22.3990 C.ar    1  UNL1        0.0011
     11 C          -4.6373  -18.5770   22.8430 C.ar    1  UNL1        0.0147
     12 C          -1.4349  -18.1525   20.5377 C.2     1  UNL1        0.0249
     13 C          -0.4048  -19.1239   20.0426 C.2     1  UNL1        0.1194
     14 N           0.8378  -18.3525   19.7097 N.2     1  UNL1       -0.1510
     15 N           0.5757  -16.9042   19.9991 N.2     1  UNL1       -0.1695
     16 C          -0.8289  -16.7805   20.5109 C.3     1  UNL1        0.1771
     17 C         -10.4072  -17.6735   23.1869 C.3     1  UNL1        0.1219
     18 C         -10.8799  -15.3792   19.9833 C.ar    1  UNL1        0.1385
     19 C         -12.3178  -15.6482   19.6516 C.ar    1  UNL1        0.0369
     20 C         -13.1188  -16.5924   20.4983 C.ar    1  UNL1        0.0028
     21 C         -12.4820  -17.2674   21.6767 C.ar    1  UNL1       -0.0024
     22 C         -11.0441  -16.9984   22.0084 C.ar    1  UNL1        0.0007
     23 C         -10.2431  -16.0543   21.1617 C.ar    1  UNL1        0.0343
     24 C          -8.9868  -13.6144   19.7561 C.3     1  UNL1        0.2525
     25 O         -10.0788  -14.4351   19.1366 O.3     1  UNL1       -0.4714
     26 C          -9.7851  -20.1960   23.2020 C.3     1  UNL1        0.1269
     27 C          -9.7086  -20.7813   24.5809 C.3     1  UNL1        0.1586
     28 O         -10.3049  -20.0437   25.7429 O.3     1  UNL1       -0.3802
     29 H          -9.8145  -19.2196   25.8889 H       1  UNL1        0.2105
@<TRIPOS>BOND
     1    24    25    1
     2    25    18    1
     3    18    19   ar
     4    19    20   ar
     5    20    21   ar
     6    21    22   ar
     7    22    17    1
     8    17     1    1
     9     1    26    1
    10    26    27    1
    11    27    28    1
    12     1     2   am
    13     2     3    2
    14     2     4   am
    15     4     6    1
    16     6     7   ar
    17     7     8   ar
    18     8     9   ar
    19     9    12    1
    20    12    13    2
    21    13    14    1
    22    14    15    2
    23    15    16    1
    24     9    10   ar
    25    10    11   ar
    26    22    23   ar
    27    23    18   ar
    28    11     6   ar
    29    16    12    1
    30    28    29    1
    31     4     5    1
@<TRIPOS>MOLECULE
*****
 29 31 0 0 0
SMALL
GASTEIGER

@<TRIPOS>ATOM
      1 N         -11.1750   -4.8948   18.0313 N.am    1  UNL1       -0.2573
      2 C         -12.5116   -5.5694   17.9406 C.2     1  UNL1        0.3080
      3 O         -13.4897   -5.1567   16.8809 O.2     1  UNL1       -0.2522
      4 N         -12.8702   -6.6568   18.9097 N.am    1  UNL1       -0.2681
      5 H         -12.2283   -6.9276   19.6053 H       1  UNL1        0.1564
      6 C         -14.2069   -7.3314   18.8190 C.ar    1  UNL1        0.0516
      7 C         -14.3271   -8.6716   18.1560 C.ar    1  UNL1        0.0147
      8 C         -15.6638   -9.3462   18.0654 C.ar    1  UNL1        0.0011
      9 C         -16.8802   -8.6807   18.6376 C.ar    1  UNL1       -0.0004
     10 C         -16.7599   -7.3405   19.3006 C.ar    1  UNL1        0.0011
     11 C         -15.4232   -6.6659   19.3913 C.ar    1  UNL1        0.0147
     12 C         -18.2168   -9.3553   18.5469 C.2     1  UNL1        0.0249
     13 C         -18.6947  -10.2168   17.4158 C.2     1  UNL1        0.1194
     14 N         -20.0835  -10.6808   17.7412 N.2     1  UNL1       -0.1510
     15 N         -20.4640  -10.1061   19.0735 N.2     1  UNL1       -0.1695
     16 C         -19.3103   -9.2869   19.5715 C.3     1  UNL1        0.1771
     17 C         -10.8164   -3.8074   17.0623 C.3     1  UNL1        0.1219
     18 C         -13.0859   -0.7807   18.2615 C.ar    1  UNL1        0.1385
     19 C         -12.3044    0.3859   17.7341 C.ar    1  UNL1        0.0369
     20 C         -11.0269    0.1548   16.9827 C.ar    1  UNL1        0.0028
     21 C         -10.5309   -1.2430   16.7587 C.ar    1  UNL1       -0.0024
     22 C         -11.3124   -2.4096   17.2862 C.ar    1  UNL1        0.0007
     23 C         -12.5899   -2.1785   18.0376 C.ar    1  UNL1        0.0343
     24 C         -15.0433    0.7856   18.9434 C.3     1  UNL1        0.2525
     25 O         -14.3634   -0.5496   19.0129 O.3     1  UNL1       -0.4714
     26 C         -10.1969   -5.3075   19.0911 C.3     1  UNL1        0.1269
     27 C          -9.3870   -6.5581   18.9181 C.3     1  UNL1        0.1586
     28 O         -10.0006   -7.8953   19.2100 O.3     1  UNL1       -0.3802
     29 H         -10.1991   -7.9602   20.1572 H       1  UNL1        0.2105
@<TRIPOS>BOND
     1    24    25    1
     2    25    18    1
     3    18    19   ar
     4    19    20   ar
     5    20    21   ar
     6    21    22   ar
     7    22    17    1
     8    17     1    1
     9     1    26    1
    10    26    27    1
    11    27    28    1
    12     1     2   am
    13     2     3    2
    14     2     4   am
    15     4     6    1
    16     6     7   ar
    17     7     8   ar
    18     8     9   ar
    19     9    12    1
    20    12    13    2
    21    13    14    1
    22    14    15    2
    23    15    16    1
    24     9    10   ar
    25    10    11   ar
    26    22    23   ar
    27    23    18   ar
    28    11     6   ar
    29    16    12    1
    30    28    29    1
    31     4     5    1
@<TRIPOS>MOLECULE
*****
 29 31 0 0 0
SMALL
GASTEIGER

@<TRIPOS>ATOM
      1 N           5.4566   -2.5504   20.6958 N.am    1  UNL1       -0.2573
      2 C           5.4762   -2.9599   22.1387 C.2     1  UNL1        0.3080
      3 O           4.2826   -3.6390   22.7419 O.2     1  UNL1       -0.2522
      4 N           6.6896   -2.6901   22.9785 N.am    1  UNL1       -0.2681
      5 H           7.4730   -2.2444   22.5825 H       1  UNL1        0.1564
      6 C           6.7092   -3.0996   24.4214 C.ar    1  UNL1        0.0516
      7 C           6.9124   -4.5394   24.7897 C.ar    1  UNL1        0.0147
      8 C           6.9321   -4.9489   26.2326 C.ar    1  UNL1        0.0011
      9 C           6.7485   -3.9185   27.3072 C.ar    1  UNL1       -0.0004
     10 C           6.5453   -2.4787   26.9388 C.ar    1  UNL1        0.0011
     11 C           6.5256   -2.0693   25.4959 C.ar    1  UNL1        0.0147
     12 C           6.7681   -4.3279   28.7501 C.2     1  UNL1        0.0249
     13 C           6.9510   -5.7237   29.2681 C.2     1  UNL1        0.1194
     14 N           6.9043   -5.6719   30.7665 N.2     1  UNL1       -0.1510
     15 N           6.6924   -4.2441   31.1745 N.2     1  UNL1       -0.1695
     16 C           6.6082   -3.4134   29.9283 C.3     1  UNL1        0.1771
     17 C           4.2433   -2.8201   19.8561 C.3     1  UNL1        0.1219
     18 C           1.2857   -0.1740   19.8304 C.ar    1  UNL1        0.1385
     19 C           1.5935    0.5829   18.5726 C.ar    1  UNL1        0.0369
     20 C           2.7845    0.2055   17.7425 C.ar    1  UNL1        0.0028
     21 C           3.6678   -0.9288   18.1704 C.ar    1  UNL1       -0.0024
     22 C           3.3600   -1.6857   19.4282 C.ar    1  UNL1        0.0007
     23 C           2.1690   -1.3083   20.2583 C.ar    1  UNL1        0.0343
     24 C          -0.2185    1.6491   20.9092 C.3     1  UNL1        0.2525
     25 O           0.0946    0.2034   20.6605 O.3     1  UNL1       -0.4714
     26 C           6.6503   -1.8712   20.0927 C.3     1  UNL1        0.1269
     27 C           7.3463   -2.4848   18.9141 C.3     1  UNL1        0.1586
     28 O           6.8740   -2.1817   17.5230 O.3     1  UNL1       -0.3802
     29 H           5.9853   -2.5491   17.3960 H       1  UNL1        0.2105
@<TRIPOS>BOND
     1    24    25    1
     2    25    18    1
     3    18    19   ar
     4    19    20   ar
     5    20    21   ar
     6    21    22   ar
     7    22    17    1
     8    17     1    1
     9     1    26    1
    10    26    27    1
    11    27    28    1
    12     1     2   am
    13     2     3    2
    14     2     4   am
    15     4     6    1
    16     6     7   ar
    17     7     8   ar
    18     8     9   ar
    19     9    12    1
    20    12    13    2
    21    13    14    1
    22    14    15    2
    23    15    16    1
    24     9    10   ar
    25    10    11   ar
    26    22    23   ar
    27    23    18   ar
    28    11     6   ar
    29    16    12    1
    30    28    29    1
    31     4     5    1
@<TRIPOS>MOLECULE
*****
 29 31 0 0 0
SMALL
GASTEIGER

@<TRIPOS>ATOM
      1 N          -1.9239    3.4955   21.7376 N.am    1  UNL1       -0.2573
      2 C          -0.6872    2.7779   21.2840 C.2     1  UNL1        0.3080
      3 O           0.6372    3.0954   21.9125 O.2     1  UNL1       -0.2522
      4 N          -0.7751    1.7429   20.2019 N.am    1  UNL1       -0.2681
      5 H          -1.6443    1.5345   19.7894 H       1  UNL1        0.1564
      6 C           0.4616    1.0253   19.7482 C.ar    1  UNL1        0.0516
      7 C           1.3027    1.6024   18.6483 C.ar    1  UNL1        0.0147
      8 C           2.5393    0.8848   18.1947 C.ar    1  UNL1        0.0011
      9 C           2.9350   -0.4097   18.8409 C.ar    1  UNL1       -0.0004
     10 C           2.0939   -0.9867   19.9408 C.ar    1  UNL1        0.0011
     11 C           0.8573   -0.2692   20.3944 C.ar    1  UNL1        0.0147
     12 C           4.1716   -1.1273   18.3873 C.2     1  UNL1        0.0249
     13 C           5.3607   -0.5003   17.7217 C.2     1  UNL1        0.1194
     14 N           6.3603   -1.5833   17.4427 N.2     1  UNL1       -0.1510
     15 N           5.7891   -2.8796   17.9358 N.2     1  UNL1       -0.1695
     16 C           4.4364   -2.5979   18.5196 C.3     1  UNL1        0.1771
     17 C          -1.8361    4.5305   22.8197 C.3     1  UNL1        0.1219
     18 C          -4.7538    4.5908   25.5093 C.ar    1  UNL1        0.1385
     19 C          -4.0736    3.9452   26.6799 C.ar    1  UNL1        0.0369
     20 C          -2.6476    3.4947   26.5639 C.ar    1  UNL1        0.0028
     21 C          -1.9017    3.6898   25.2772 C.ar    1  UNL1       -0.0024
     22 C          -2.5820    4.3354   24.1065 C.ar    1  UNL1        0.0007
     23 C          -4.0080    4.7859   24.2226 C.ar    1  UNL1        0.0343
     24 C          -7.0732    5.0210   24.4206 C.3     1  UNL1        0.2525
     25 O          -6.1798    5.0413   25.6253 O.3     1  UNL1       -0.4714
     26 C          -3.2484    3.1779   21.1091 C.3     1  UNL1        0.1269
     27 C          -3.6436    3.8351   19.8200 C.3     1  UNL1        0.1586
     28 O          -2.6806    3.8713   18.6706 O.3     1  UNL1       -0.3802
     29 H          -1.9170    4.4214   18.9058 H       1  UNL1        0.2105
@<TRIPOS>BOND
     1    24    25    1
     2    25    18    1
     3    18    19   ar
     4    19    20   ar
     5    20    21   ar
     6    21    22   ar
     7    22    17    1
     8    17     1    1
     9     1    26    1
    10    26    27    1
    11    27    28    1
    12     1     2   am
    13     2     3    2
    14     2     4   am
    15     4     6    1
    16     6     7   ar
    17     7     8   ar
    18     8     9   ar
    19     9    12    1
    20    12    13    2
    21    13    14    1
    22    14    15    2
    23    15    16    1
    24     9    10   ar
    25    10    11   ar
    26    22    23   ar
    27    23    18   ar
    28    11     6   ar
    29    16    12    1
    30    28    29    1
    31     4     5    1
@<TRIPOS>MOLECULE
*****
 29 31 0 0 0
SMALL
GASTEIGER

@<TRIPOS>ATOM
      1 N           6.6469   -3.6993   27.9968 N.am    1  UNL1       -0.2573
      2 C           6.6186   -3.3066   26.5494 C.2     1  UNL1        0.3080
      3 O           6.9153   -1.8915   26.1503 O.2     1  UNL1       -0.2522
      4 N           6.2936   -4.3292   25.5011 N.am    1  UNL1       -0.2681
      5 H           6.0988   -5.2580   25.7631 H       1  UNL1        0.1564
      6 C           6.2653   -3.9365   24.0537 C.ar    1  UNL1        0.0516
      7 C           7.4357   -4.2486   23.1689 C.ar    1  UNL1        0.0147
      8 C           7.4074   -3.8559   21.7215 C.ar    1  UNL1        0.0011
      9 C           6.2087   -3.1511   21.1589 C.ar    1  UNL1       -0.0004
     10 C           5.0383   -2.8390   22.0437 C.ar    1  UNL1        0.0011
     11 C           5.0666   -3.2317   23.4911 C.ar    1  UNL1        0.0147
     12 C           6.1804   -2.7584   19.7115 C.2     1  UNL1        0.0249
     13 C           4.9584   -2.6675   18.8463 C.2     1  UNL1        0.1194
     14 N           5.3919   -2.2406   17.4752 N.2     1  UNL1       -0.1510
     15 N           6.8818   -2.0677   17.4930 N.2     1  UNL1       -0.1695
     16 C           7.3691   -2.3877   18.8751 C.3     1  UNL1        0.1771
     17 C           6.9719   -2.6769   29.0451 C.3     1  UNL1        0.1219
     18 C           3.7480   -0.5542   29.9676 C.ar    1  UNL1        0.1385
     19 C           3.6681   -0.7885   31.4470 C.ar    1  UNL1        0.0369
     20 C           4.6894   -1.6523   32.1258 C.ar    1  UNL1        0.0028
     21 C           5.7907   -2.2817   31.3252 C.ar    1  UNL1       -0.0024
     22 C           5.8706   -2.0474   29.8458 C.ar    1  UNL1        0.0007
     23 C           4.8492   -1.1837   29.1670 C.ar    1  UNL1        0.0343
     24 C           1.3508   -0.2250   29.0214 C.3     1  UNL1        0.2525
     25 O           2.7266    0.3095   29.2888 O.3     1  UNL1       -0.4714
     26 C           6.3501   -5.1145   28.3959 C.3     1  UNL1        0.1269
     27 C           7.1114   -5.7520   29.5202 C.3     1  UNL1        0.1586
     28 O           6.5923   -5.6600   30.9244 O.3     1  UNL1       -0.3802
     29 H           6.6142   -4.7355   31.2173 H       1  UNL1        0.2105
@<TRIPOS>BOND
     1    24    25    1
     2    25    18    1
     3    18    19   ar
     4    19    20   ar
     5    20    21   ar
     6    21    22   ar
     7    22    17    1
     8    17     1    1
     9     1    26    1
    10    26    27    1
    11    27    28    1
    12     1     2   am
    13     2     3    2
    14     2     4   am
    15     4     6    1
    16     6     7   ar
    17     7     8   ar
    18     8     9   ar
    19     9    12    1
    20    12    13    2
    21    13    14    1
    22    14    15    2
    23    15    16    1
    24     9    10   ar
    25    10    11   ar
    26    22    23   ar
    27    23    18   ar
    28    11     6   ar
    29    16    12    1
    30    28    29    1
    31     4     5    1
@<TRIPOS>MOLECULE
*****
 29 31 0 0 0
SMALL
GASTEIGER

@<TRIPOS>ATOM
      1 N          -1.8650    3.4784   21.6455 N.am    1  UNL1       -0.2573
      2 C          -0.6248    2.7593   21.2042 C.2     1  UNL1        0.3080
      3 O           0.6924    3.0694   21.8514 O.2     1  UNL1       -0.2522
      4 N          -0.7018    1.7299   20.1158 N.am    1  UNL1       -0.2681
      5 H          -1.5663    1.5264   19.6910 H       1  UNL1        0.1564
      6 C           0.5384    1.0108   19.6745 C.ar    1  UNL1        0.0516
      7 C           0.9257   -0.2845   20.3244 C.ar    1  UNL1        0.0147
      8 C           2.1659   -1.0037   19.8831 C.ar    1  UNL1        0.0011
      9 C           3.0189   -0.4275   18.7920 C.ar    1  UNL1       -0.0004
     10 C           2.6316    0.8678   18.1422 C.ar    1  UNL1        0.0011
     11 C           1.3914    1.5869   18.5835 C.ar    1  UNL1        0.0147
     12 C           4.2591   -1.1466   18.3508 C.2     1  UNL1        0.0249
     13 C           5.4276   -0.5331   17.6380 C.2     1  UNL1        0.1194
     14 N           6.4393   -1.6128   17.3915 N.2     1  UNL1       -0.1510
     15 N           5.8959   -2.8937   17.9519 N.2     1  UNL1       -0.1695
     16 C           4.5485   -2.6057   18.5448 C.3     1  UNL1        0.1771
     17 C          -1.7880    4.5077   22.7339 C.3     1  UNL1        0.1219
     18 C          -1.8103    2.9931   26.4021 C.ar    1  UNL1        0.1385
     19 C          -3.1380    3.4802   26.9018 C.ar    1  UNL1        0.0369
     20 C          -4.0158    4.3098   26.0122 C.ar    1  UNL1        0.0028
     21 C          -3.5658    4.6523   24.6230 C.ar    1  UNL1       -0.0024
     22 C          -2.2381    4.1652   24.1232 C.ar    1  UNL1        0.0007
     23 C          -1.3603    3.3356   25.0128 C.ar    1  UNL1        0.0343
     24 C           0.0861    2.8273   28.1702 C.3     1  UNL1        0.2525
     25 O          -0.9325    2.1635   27.2917 O.3     1  UNL1       -0.4714
     26 C          -3.1822    3.1682   20.9983 C.3     1  UNL1        0.1269
     27 C          -3.5678    3.8490   19.7185 C.3     1  UNL1        0.1586
     28 O          -2.6448    3.8032   18.5371 O.3     1  UNL1       -0.3802
     29 H          -1.8323    4.2917   18.7424 H       1  UNL1        0.2105
@<TRIPOS>BOND
     1    24    25    1
     2    25    18    1
     3    18    19   ar
     4    19    20   ar
     5    20    21   ar
     6    21    22   ar
     7    22    17    1
     8    17     1    1
     9     1    26    1
    10    26    27    1
    11    27    28    1
    12     1     2   am
    13     2     3    2
    14     2     4   am
    15     4     6    1
    16     6     7   ar
    17     7     8   ar
    18     8     9   ar
    19     9    12    1
    20    12    13    2
    21    13    14    1
    22    14    15    2
    23    15    16    1
    24     9    10   ar
    25    10    11   ar
    26    22    23   ar
    27    23    18   ar
    28    11     6   ar
    29    16    12    1
    30    28    29    1
    31     4     5    1
@<TRIPOS>MOLECULE
*****
 29 31 0 0 0
SMALL
GASTEIGER

@<TRIPOS>ATOM
      1 N          -1.0587    4.1004   19.4353 N.am    1  UNL1       -0.2573
      2 C          -0.1847    2.9218   19.7467 C.2     1  UNL1        0.3080
      3 O           0.0887    2.5468   21.1731 O.2     1  UNL1       -0.2522
      4 N           0.4160    2.1181   18.6316 N.am    1  UNL1       -0.2681
      5 H           0.2366    2.3642   17.6954 H       1  UNL1        0.1564
      6 C           1.2901    0.9395   18.9430 C.ar    1  UNL1        0.0516
      7 C           0.8734   -0.0463   19.9941 C.ar    1  UNL1        0.0147
      8 C           1.7475   -1.2249   20.3055 C.ar    1  UNL1        0.0011
      9 C           3.0381   -1.4177   19.5658 C.ar    1  UNL1       -0.0004
     10 C           3.4547   -0.4320   18.5147 C.ar    1  UNL1        0.0011
     11 C           2.5806    0.7466   18.2033 C.ar    1  UNL1        0.0147
     12 C           3.9121   -2.5963   19.8772 C.2     1  UNL1        0.0249
     13 C           4.5298   -3.5253   18.8745 C.2     1  UNL1        0.1194
     14 N           5.3214   -4.5560   19.6235 N.2     1  UNL1       -0.1510
     15 N           5.1930   -4.2640   21.0892 N.2     1  UNL1       -0.1695
     16 C           4.3220   -3.0528   21.2461 C.3     1  UNL1        0.1771
     17 C          -1.6594    4.9040   20.5503 C.3     1  UNL1        0.1219
     18 C          -3.5752    3.6617   23.7963 C.ar    1  UNL1        0.1385
     19 C          -4.8182    3.0832   23.1879 C.ar    1  UNL1        0.0369
     20 C          -5.0083    3.1116   21.7002 C.ar    1  UNL1        0.0028
     21 C          -3.9554    3.7185   20.8210 C.ar    1  UNL1       -0.0024
     22 C          -2.7124    4.2970   21.4295 C.ar    1  UNL1        0.0007
     23 C          -2.5223    4.2686   22.9171 C.ar    1  UNL1        0.0343
     24 C          -4.4518    4.1779   26.1869 C.3     1  UNL1        0.2525
     25 O          -3.3851    3.6333   25.2839 O.3     1  UNL1       -0.4714
     26 C          -1.3320    4.4753   18.0088 C.3     1  UNL1        0.1269
     27 C          -2.6004    4.0269   17.3453 C.3     1  UNL1        0.1586
     28 O          -2.5531    3.3985   15.9841 O.3     1  UNL1       -0.3802
     29 H          -2.2536    4.0545   15.3354 H       1  UNL1        0.2105
@<TRIPOS>BOND
     1    24    25    1
     2    25    18    1
     3    18    19   ar
     4    19    20   ar
     5    20    21   ar
     6    21    22   ar
     7    22    17    1
     8    17     1    1
     9     1    26    1
    10    26    27    1
    11    27    28    1
    12     1     2   am
    13     2     3    2
    14     2     4   am
    15     4     6    1
    16     6     7   ar
    17     7     8   ar
    18     8     9   ar
    19     9    12    1
    20    12    13    2
    21    13    14    1
    22    14    15    2
    23    15    16    1
    24     9    10   ar
    25    10    11   ar
    26    22    23   ar
    27    23    18   ar
    28    11     6   ar
    29    16    12    1
    30    28    29    1
    31     4     5    1
