@<TRIPOS>MOLECULE
*****
 30 32 0 0 0
SMALL
GASTEIGER

@<TRIPOS>ATOM
      1 N          -4.2931  -18.6307   20.9340 N.3     1  UNL1       -0.2972
      2 H          -4.6580  -17.7566   20.5556 H       1  UNL1        0.1233
      3 C          -5.0350  -20.4844   20.2174 C.3     1  UNL1        0.0161
      4 C          -5.4785  -19.4931   21.2521 C.3     1  UNL1        0.0461
      5 C          -5.9220  -18.5017   22.2867 C.3     1  UNL1        0.0161
      6 C          -6.6639  -20.3555   21.5702 C.3     1  UNL1        0.0408
      7 C          -8.0473  -19.7781   21.5165 C.ar    1  UNL1       -0.0209
      8 C          -8.6447  -19.3837   20.1983 C.ar    1  UNL1       -0.0042
      9 C         -10.0281  -18.8064   20.1445 C.ar    1  UNL1       -0.0003
     10 C         -10.8142  -18.6235   21.4089 C.ar    1  UNL1       -0.0000
     11 C         -12.1976  -18.0462   21.3552 C.ar    1  UNL1       -0.0000
     12 C         -12.9836  -17.8634   22.6195 C.ar    1  UNL1       -0.0000
     13 C         -12.3862  -18.2579   23.9377 C.ar    1  UNL1       -0.0000
     14 C         -11.0029  -18.8352   23.9915 C.ar    1  UNL1       -0.0000
     15 C         -10.2168  -19.0180   22.7271 C.ar    1  UNL1       -0.0003
     16 C          -8.8334  -19.5953   22.7808 C.ar    1  UNL1       -0.0042
     17 C          -3.3218  -18.2622   22.0160 C.3     1  UNL1        0.1020
     18 C          -3.1870  -16.8320   22.4476 C.3     1  UNL1        0.1697
     19 O          -2.3682  -15.8762   21.6313 O.3     1  UNL1       -0.3793
     20 H          -1.9984  -16.3407   20.8642 H       1  UNL1        0.2106
     21 C          -3.8709  -16.3575   23.6954 C.3     1  UNL1        0.2358
     22 O          -5.0706  -15.4622   23.5989 O.3     1  UNL1       -0.4721
     23 C          -6.1044  -15.4738   24.6859 C.ar    1  UNL1        0.1482
     24 C          -5.6837  -15.3730   26.1221 C.ar    1  UNL1        0.0376
     25 C          -6.7174  -15.3846   27.2089 C.ar    1  UNL1        0.0032
     26 C          -8.1718  -15.4969   26.8595 C.ar    1  UNL1        0.0009
     27 C          -8.5925  -15.5976   25.4233 C.ar    1  UNL1        0.0133
     28 C          -7.5588  -15.5861   24.3365 C.ar    1  UNL1        0.1023
     29 C          -7.9794  -15.6868   22.9001 C.1     1  UNL1        0.1035
     30 N          -8.4001  -15.7875   21.4639 N.1     1  UNL1       -0.1907
@<TRIPOS>BOND
     1     3     4    1
     2     4     5    1
     3     4     6    1
     4     6     7    1
     5     7     8   ar
     6     8     9   ar
     7     9    10   ar
     8    10    11   ar
     9    11    12   ar
    10    12    13   ar
    11    13    14   ar
    12    14    15   ar
    13    15    16   ar
    14     4     1    1
    15     1    17    1
    16    17    18    1
    17    18    19    1
    18    18    21    1
    19    21    22    1
    20    22    23    1
    21    23    24   ar
    22    24    25   ar
    23    25    26   ar
    24    26    27   ar
    25    27    28   ar
    26    28    29    1
    27    29    30    3
    28    16     7   ar
    29    28    23   ar
    30    15    10   ar
    31     1     2    1
    32    19    20    1
@<TRIPOS>MOLECULE
*****
 30 32 0 0 0
SMALL
GASTEIGER

@<TRIPOS>ATOM
      1 N         -12.0781  -18.4420   21.2661 N.3     1  UNL1       -0.2972
      2 H         -12.8061  -19.1564   21.2615 H       1  UNL1        0.1233
      3 C         -10.7979  -17.9169   19.6582 C.3     1  UNL1        0.0161
      4 C         -10.8651  -19.0557   20.6323 C.3     1  UNL1        0.0461
      5 C         -10.9322  -20.1944   21.6063 C.3     1  UNL1        0.0161
      6 C          -9.6520  -19.6694   19.9984 C.3     1  UNL1        0.0408
      7 C          -8.3008  -19.4738   20.6200 C.ar    1  UNL1       -0.0209
      8 C          -8.1714  -18.7235   21.9124 C.ar    1  UNL1       -0.0042
      9 C          -6.8203  -18.5278   22.5339 C.ar    1  UNL1       -0.0003
     10 C          -5.5987  -19.0826   21.8631 C.ar    1  UNL1       -0.0000
     11 C          -4.2476  -18.8869   22.4846 C.ar    1  UNL1       -0.0000
     12 C          -3.0261  -19.4416   21.8138 C.ar    1  UNL1       -0.0000
     13 C          -3.1555  -20.1919   20.5214 C.ar    1  UNL1       -0.0000
     14 C          -4.5066  -20.3876   19.8999 C.ar    1  UNL1       -0.0000
     15 C          -5.7281  -19.8329   20.5707 C.ar    1  UNL1       -0.0003
     16 C          -7.0793  -20.0285   19.9491 C.ar    1  UNL1       -0.0042
     17 C         -12.0040  -17.9082   22.6661 C.3     1  UNL1        0.1020
     18 C         -11.0601  -16.7892   22.9931 C.3     1  UNL1        0.1697
     19 O         -11.0048  -15.5741   22.1153 O.3     1  UNL1       -0.3793
     20 H         -11.6378  -15.6722   21.3870 H       1  UNL1        0.2106
     21 C         -10.1717  -16.8853   24.1978 C.3     1  UNL1        0.2358
     22 O          -9.6298  -15.6384   24.8315 O.3     1  UNL1       -0.4721
     23 C          -8.1836  -15.5635   25.2226 C.ar    1  UNL1        0.1482
     24 C          -7.7837  -15.7508   26.6561 C.ar    1  UNL1        0.0376
     25 C          -6.3375  -15.6758   27.0472 C.ar    1  UNL1        0.0032
     26 C          -5.2913  -15.4136   26.0048 C.ar    1  UNL1        0.0009
     27 C          -5.6912  -15.2264   24.5713 C.ar    1  UNL1        0.0133
     28 C          -7.1373  -15.3013   24.1802 C.ar    1  UNL1        0.1023
     29 C          -7.5373  -15.1140   22.7466 C.1     1  UNL1        0.1035
     30 N          -7.9372  -14.9268   21.3132 N.1     1  UNL1       -0.1907
@<TRIPOS>BOND
     1     3     4    1
     2     4     5    1
     3     4     6    1
     4     6     7    1
     5     7     8   ar
     6     8     9   ar
     7     9    10   ar
     8    10    11   ar
     9    11    12   ar
    10    12    13   ar
    11    13    14   ar
    12    14    15   ar
    13    15    16   ar
    14     4     1    1
    15     1    17    1
    16    17    18    1
    17    18    19    1
    18    18    21    1
    19    21    22    1
    20    22    23    1
    21    23    24   ar
    22    24    25   ar
    23    25    26   ar
    24    26    27   ar
    25    27    28   ar
    26    28    29    1
    27    29    30    3
    28    16     7   ar
    29    28    23   ar
    30    15    10   ar
    31     1     2    1
    32    19    20    1
@<TRIPOS>MOLECULE
*****
 30 32 0 0 0
SMALL
GASTEIGER

@<TRIPOS>ATOM
      1 N          -6.0617  -14.7629   25.4880 N.3     1  UNL1       -0.2972
      2 H          -5.7758  -14.4219   26.4058 H       1  UNL1        0.1233
      3 C          -7.8000  -14.7017   24.2736 C.3     1  UNL1        0.0161
      4 C          -7.4717  -15.2550   25.6287 C.3     1  UNL1        0.0461
      5 C          -7.1434  -15.8082   26.9837 C.3     1  UNL1        0.0161
      6 C          -8.8817  -15.7470   25.7694 C.3     1  UNL1        0.0408
      7 C          -9.3764  -16.8645   24.8996 C.ar    1  UNL1       -0.0209
      8 C          -9.6365  -18.2176   25.4924 C.ar    1  UNL1       -0.0042
      9 C         -10.1312  -19.3350   24.6227 C.ar    1  UNL1       -0.0003
     10 C         -10.3659  -19.0994   23.1599 C.ar    1  UNL1       -0.0000
     11 C         -10.8606  -20.2169   22.2902 C.ar    1  UNL1       -0.0000
     12 C         -11.0952  -19.9812   20.8275 C.ar    1  UNL1       -0.0000
     13 C         -10.8352  -18.6281   20.2347 C.ar    1  UNL1       -0.0000
     14 C         -10.3405  -17.5106   21.1044 C.ar    1  UNL1       -0.0000
     15 C         -10.1058  -17.7463   22.5671 C.ar    1  UNL1       -0.0003
     16 C          -9.6111  -16.6288   23.4369 C.ar    1  UNL1       -0.0042
     17 C          -4.9851  -15.6959   25.0181 C.3     1  UNL1        0.1020
     18 C          -4.5042  -15.6320   23.5987 C.3     1  UNL1        0.1697
     19 O          -4.7948  -14.4212   22.7622 O.3     1  UNL1       -0.3793
     20 H          -5.2983  -13.7791   23.2867 H       1  UNL1        0.2106
     21 C          -3.7327  -16.7787   23.0159 C.3     1  UNL1        0.2358
     22 O          -4.1762  -18.1885   23.2725 O.3     1  UNL1       -0.4721
     23 C          -4.9805  -18.9214   22.2400 C.ar    1  UNL1        0.1482
     24 C          -6.4708  -19.0184   22.3802 C.ar    1  UNL1        0.0376
     25 C          -7.2750  -19.7513   21.3477 C.ar    1  UNL1        0.0032
     26 C          -6.5890  -20.3872   20.1751 C.ar    1  UNL1        0.0009
     27 C          -5.0988  -20.2903   20.0350 C.ar    1  UNL1        0.0133
     28 C          -4.2945  -19.5574   21.0674 C.ar    1  UNL1        0.1023
     29 C          -2.8042  -19.4604   20.9273 C.1     1  UNL1        0.1035
     30 N          -1.3139  -19.3633   20.7871 N.1     1  UNL1       -0.1907
@<TRIPOS>BOND
     1     3     4    1
     2     4     5    1
     3     4     6    1
     4     6     7    1
     5     7     8   ar
     6     8     9   ar
     7     9    10   ar
     8    10    11   ar
     9    11    12   ar
    10    12    13   ar
    11    13    14   ar
    12    14    15   ar
    13    15    16   ar
    14     4     1    1
    15     1    17    1
    16    17    18    1
    17    18    19    1
    18    18    21    1
    19    21    22    1
    20    22    23    1
    21    23    24   ar
    22    24    25   ar
    23    25    26   ar
    24    26    27   ar
    25    27    28   ar
    26    28    29    1
    27    29    30    3
    28    16     7   ar
    29    28    23   ar
    30    15    10   ar
    31     1     2    1
    32    19    20    1
@<TRIPOS>MOLECULE
*****
 30 32 0 0 0
SMALL
GASTEIGER

@<TRIPOS>ATOM
      1 N          -9.2827  -18.9927   21.0942 N.3     1  UNL1       -0.2972
      2 H          -9.9766  -19.7295   20.9671 H       1  UNL1        0.1233
      3 C          -7.6391  -19.4545   19.8351 C.3     1  UNL1        0.0161
      4 C          -7.9592  -19.6724   21.2842 C.3     1  UNL1        0.0461
      5 C          -8.2792  -19.8904   22.7334 C.3     1  UNL1        0.0161
      6 C          -6.6356  -20.3522   21.4743 C.3     1  UNL1        0.0408
      7 C          -5.3709  -19.5456   21.4710 C.ar    1  UNL1       -0.0209
      8 C          -4.9480  -18.8088   22.7073 C.ar    1  UNL1       -0.0042
      9 C          -3.6834  -18.0022   22.7040 C.ar    1  UNL1       -0.0003
     10 C          -2.8415  -17.9324   21.4645 C.ar    1  UNL1       -0.0000
     11 C          -1.5769  -17.1258   21.4612 C.ar    1  UNL1       -0.0000
     12 C          -0.7351  -17.0559   20.2217 C.ar    1  UNL1       -0.0000
     13 C          -1.1580  -17.7926   18.9854 C.ar    1  UNL1       -0.0000
     14 C          -2.4226  -18.5992   18.9886 C.ar    1  UNL1       -0.0000
     15 C          -3.2644  -18.6691   20.2282 C.ar    1  UNL1       -0.0003
     16 C          -4.5291  -19.4757   20.2315 C.ar    1  UNL1       -0.0042
     17 C          -9.8142  -18.0757   22.1557 C.3     1  UNL1        0.1020
     18 C          -9.6393  -16.5920   22.0215 C.3     1  UNL1        0.1697
     19 O         -10.8149  -15.7264   21.6767 O.3     1  UNL1       -0.3793
     20 H         -11.6052  -16.2797   21.5756 H       1  UNL1        0.2106
     21 C          -8.2890  -15.9739   22.2319 C.3     1  UNL1        0.2358
     22 O          -8.1110  -14.8908   23.2542 O.3     1  UNL1       -0.4721
     23 C          -7.6347  -15.2334   24.6348 C.ar    1  UNL1        0.1482
     24 C          -8.6282  -15.5286   25.7191 C.ar    1  UNL1        0.0376
     25 C          -8.1520  -15.8712   27.0996 C.ar    1  UNL1        0.0032
     26 C          -6.6823  -15.9186   27.3957 C.ar    1  UNL1        0.0009
     27 C          -5.6888  -15.6233   26.3114 C.ar    1  UNL1        0.0133
     28 C          -6.1650  -15.2807   24.9309 C.ar    1  UNL1        0.1023
     29 C          -5.1716  -14.9855   23.8465 C.1     1  UNL1        0.1035
     30 N          -4.1781  -14.6902   22.7622 N.1     1  UNL1       -0.1907
@<TRIPOS>BOND
     1     3     4    1
     2     4     5    1
     3     4     6    1
     4     6     7    1
     5     7     8   ar
     6     8     9   ar
     7     9    10   ar
     8    10    11   ar
     9    11    12   ar
    10    12    13   ar
    11    13    14   ar
    12    14    15   ar
    13    15    16   ar
    14     4     1    1
    15     1    17    1
    16    17    18    1
    17    18    19    1
    18    18    21    1
    19    21    22    1
    20    22    23    1
    21    23    24   ar
    22    24    25   ar
    23    25    26   ar
    24    26    27   ar
    25    27    28   ar
    26    28    29    1
    27    29    30    3
    28    16     7   ar
    29    28    23   ar
    30    15    10   ar
    31     1     2    1
    32    19    20    1
@<TRIPOS>MOLECULE
*****
 30 32 0 0 0
SMALL
GASTEIGER

@<TRIPOS>ATOM
      1 N          -9.4002  -18.9575   21.8692 N.3     1  UNL1       -0.2972
      2 H          -9.4096  -18.6526   22.8425 H       1  UNL1        0.1233
      3 C          -8.0304  -19.0574   20.2526 C.3     1  UNL1        0.0161
      4 C          -8.0789  -19.6290   21.6386 C.3     1  UNL1        0.0461
      5 C          -8.1274  -20.2005   23.0246 C.3     1  UNL1        0.0161
      6 C          -6.7576  -20.3005   21.4079 C.3     1  UNL1        0.0408
      7 C          -5.4924  -19.4948   21.4324 C.ar    1  UNL1       -0.0209
      8 C          -5.1187  -18.7228   22.6629 C.ar    1  UNL1       -0.0042
      9 C          -3.8536  -17.9172   22.6874 C.ar    1  UNL1       -0.0003
     10 C          -2.9623  -17.8836   21.4814 C.ar    1  UNL1       -0.0000
     11 C          -1.6972  -17.0780   21.5059 C.ar    1  UNL1       -0.0000
     12 C          -0.8060  -17.0445   20.2999 C.ar    1  UNL1       -0.0000
     13 C          -1.1798  -17.8166   19.0693 C.ar    1  UNL1       -0.0000
     14 C          -2.4448  -18.6222   19.0448 C.ar    1  UNL1       -0.0000
     15 C          -3.3361  -18.6557   20.2508 C.ar    1  UNL1       -0.0003
     16 C          -4.6012  -19.4613   20.2264 C.ar    1  UNL1       -0.0042
     17 C          -9.7934  -17.7710   21.0399 C.3     1  UNL1        0.1020
     18 C          -9.8285  -16.4038   21.6561 C.3     1  UNL1        0.1697
     19 O         -11.1330  -15.6760   21.7928 O.3     1  UNL1       -0.3793
     20 H         -11.8486  -16.2254   21.4366 H       1  UNL1        0.2106
     21 C          -8.5591  -15.7644   22.1355 C.3     1  UNL1        0.2358
     22 O          -7.5916  -16.5509   22.9693 O.3     1  UNL1       -0.4721
     23 C          -7.3695  -16.1841   24.4068 C.ar    1  UNL1        0.1482
     24 C          -6.1690  -15.3741   24.7973 C.ar    1  UNL1        0.0376
     25 C          -5.9470  -15.0074   26.2347 C.ar    1  UNL1        0.0032
     26 C          -6.9255  -15.4507   27.2816 C.ar    1  UNL1        0.0009
     27 C          -8.1261  -16.2607   26.8911 C.ar    1  UNL1        0.0133
     28 C          -8.3481  -16.6274   25.4537 C.ar    1  UNL1        0.1023
     29 C          -9.5487  -17.4374   25.0631 C.1     1  UNL1        0.1035
     30 N         -10.7492  -18.2474   24.6724 N.1     1  UNL1       -0.1907
@<TRIPOS>BOND
     1     3     4    1
     2     4     5    1
     3     4     6    1
     4     6     7    1
     5     7     8   ar
     6     8     9   ar
     7     9    10   ar
     8    10    11   ar
     9    11    12   ar
    10    12    13   ar
    11    13    14   ar
    12    14    15   ar
    13    15    16   ar
    14     4     1    1
    15     1    17    1
    16    17    18    1
    17    18    19    1
    18    18    21    1
    19    21    22    1
    20    22    23    1
    21    23    24   ar
    22    24    25   ar
    23    25    26   ar
    24    26    27   ar
    25    27    28   ar
    26    28    29    1
    27    29    30    3
    28    16     7   ar
    29    28    23   ar
    30    15    10   ar
    31     1     2    1
    32    19    20    1
@<TRIPOS>MOLECULE
*****
 30 32 0 0 0
SMALL
GASTEIGER

@<TRIPOS>ATOM
      1 N          -5.9855  -14.8085   25.6357 N.3     1  UNL1       -0.2972
      2 H          -5.7318  -14.4904   26.5710 H       1  UNL1        0.1233
      3 C          -7.1908  -15.8103   27.0652 C.3     1  UNL1        0.0161
      4 C          -7.4217  -15.2367   25.6985 C.3     1  UNL1        0.0461
      5 C          -7.6526  -14.6631   24.3319 C.3     1  UNL1        0.0161
      6 C          -8.8579  -15.6650   25.7614 C.3     1  UNL1        0.0408
      7 C          -9.3452  -16.7853   24.8910 C.ar    1  UNL1       -0.0209
      8 C          -9.5289  -18.1577   25.4678 C.ar    1  UNL1       -0.0042
      9 C         -10.0162  -19.2780   24.5976 C.ar    1  UNL1       -0.0003
     10 C         -10.3199  -19.0258   23.1504 C.ar    1  UNL1       -0.0000
     11 C         -10.8073  -20.1461   22.2801 C.ar    1  UNL1       -0.0000
     12 C         -11.1110  -19.8939   20.8330 C.ar    1  UNL1       -0.0000
     13 C         -10.9273  -18.5215   20.2562 C.ar    1  UNL1       -0.0000
     14 C         -10.4400  -17.4012   21.1265 C.ar    1  UNL1       -0.0000
     15 C         -10.1363  -17.6534   22.5736 C.ar    1  UNL1       -0.0003
     16 C          -9.6489  -16.5331   23.4440 C.ar    1  UNL1       -0.0042
     17 C          -4.9297  -15.7849   25.2091 C.3     1  UNL1        0.1020
     18 C          -4.7328  -16.0882   23.7533 C.3     1  UNL1        0.1697
     19 O          -4.2802  -15.0075   22.8166 O.3     1  UNL1       -0.3793
     20 H          -4.1620  -14.1807   23.3099 H       1  UNL1        0.2106
     21 C          -4.9884  -17.4721   23.2343 C.3     1  UNL1        0.2358
     22 O          -3.8363  -18.3774   22.9133 O.3     1  UNL1       -0.4721
     23 C          -3.0801  -18.2026   21.6297 C.ar    1  UNL1        0.1482
     24 C          -1.9165  -17.2581   21.5675 C.ar    1  UNL1        0.0376
     25 C          -1.1603  -17.0832   20.2839 C.ar    1  UNL1        0.0032
     26 C          -1.5677  -17.8529   19.0626 C.ar    1  UNL1        0.0009
     27 C          -2.7313  -18.7974   19.1248 C.ar    1  UNL1        0.0133
     28 C          -3.4875  -18.9722   20.4083 C.ar    1  UNL1        0.1023
     29 C          -4.6511  -19.9167   20.4706 C.1     1  UNL1        0.1035
     30 N          -5.8147  -20.8613   20.5329 N.1     1  UNL1       -0.1907
@<TRIPOS>BOND
     1     3     4    1
     2     4     5    1
     3     4     6    1
     4     6     7    1
     5     7     8   ar
     6     8     9   ar
     7     9    10   ar
     8    10    11   ar
     9    11    12   ar
    10    12    13   ar
    11    13    14   ar
    12    14    15   ar
    13    15    16   ar
    14     4     1    1
    15     1    17    1
    16    17    18    1
    17    18    19    1
    18    18    21    1
    19    21    22    1
    20    22    23    1
    21    23    24   ar
    22    24    25   ar
    23    25    26   ar
    24    26    27   ar
    25    27    28   ar
    26    28    29    1
    27    29    30    3
    28    16     7   ar
    29    28    23   ar
    30    15    10   ar
    31     1     2    1
    32    19    20    1
@<TRIPOS>MOLECULE
*****
 30 32 0 0 0
SMALL
GASTEIGER

@<TRIPOS>ATOM
      1 N          -6.3666  -14.7305   25.1552 N.3     1  UNL1       -0.2972
      2 H          -6.4133  -14.2528   24.2552 H       1  UNL1        0.1233
      3 C          -5.5050  -16.1568   26.4680 C.3     1  UNL1        0.0161
      4 C          -5.3416  -15.8168   25.0163 C.3     1  UNL1        0.0461
      5 C          -5.1781  -15.4768   23.5645 C.3     1  UNL1        0.0161
      6 C          -4.3166  -16.9031   24.8773 C.3     1  UNL1        0.0408
      7 C          -3.9462  -17.4152   23.5168 C.ar    1  UNL1       -0.0209
      8 C          -4.7564  -18.5049   22.8795 C.ar    1  UNL1       -0.0042
      9 C          -4.3860  -19.0170   21.5191 C.ar    1  UNL1       -0.0003
     10 C          -3.2055  -18.4393   20.7961 C.ar    1  UNL1       -0.0000
     11 C          -2.8352  -18.9514   19.4357 C.ar    1  UNL1       -0.0000
     12 C          -1.6547  -18.3738   18.7127 C.ar    1  UNL1       -0.0000
     13 C          -0.8445  -17.2841   19.3501 C.ar    1  UNL1       -0.0000
     14 C          -1.2149  -16.7720   20.7104 C.ar    1  UNL1       -0.0000
     15 C          -2.3954  -17.3496   21.4334 C.ar    1  UNL1       -0.0003
     16 C          -2.7657  -16.8376   22.7938 C.ar    1  UNL1       -0.0042
     17 C          -7.7760  -15.0736   25.5371 C.3     1  UNL1        0.1020
     18 C          -8.4954  -16.1840   24.8302 C.3     1  UNL1        0.1697
     19 O          -9.0634  -17.3290   25.6154 O.3     1  UNL1       -0.3793
     20 H          -8.8793  -17.1972   26.5586 H       1  UNL1        0.2106
     21 C          -8.6468  -16.1493   23.3383 C.3     1  UNL1        0.2358
     22 O          -9.7528  -16.9184   22.6786 O.3     1  UNL1       -0.4721
     23 C          -9.4412  -17.8745   21.5655 C.ar    1  UNL1        0.1482
     24 C          -8.0200  -18.2673   21.2901 C.ar    1  UNL1        0.0376
     25 C          -7.7085  -19.2234   20.1770 C.ar    1  UNL1        0.0032
     26 C          -8.8182  -19.7865   19.3394 C.ar    1  UNL1        0.0009
     27 C         -10.2393  -19.3937   19.6149 C.ar    1  UNL1        0.0133
     28 C         -10.5508  -18.4377   20.7279 C.ar    1  UNL1        0.1023
     29 C         -11.9721  -18.0448   21.0035 C.1     1  UNL1        0.1035
     30 N         -13.3932  -17.6519   21.2789 N.1     1  UNL1       -0.1907
@<TRIPOS>BOND
     1     3     4    1
     2     4     5    1
     3     4     6    1
     4     6     7    1
     5     7     8   ar
     6     8     9   ar
     7     9    10   ar
     8    10    11   ar
     9    11    12   ar
    10    12    13   ar
    11    13    14   ar
    12    14    15   ar
    13    15    16   ar
    14     4     1    1
    15     1    17    1
    16    17    18    1
    17    18    19    1
    18    18    21    1
    19    21    22    1
    20    22    23    1
    21    23    24   ar
    22    24    25   ar
    23    25    26   ar
    24    26    27   ar
    25    27    28   ar
    26    28    29    1
    27    29    30    3
    28    16     7   ar
    29    28    23   ar
    30    15    10   ar
    31     1     2    1
    32    19    20    1
@<TRIPOS>MOLECULE
*****
 30 32 0 0 0
SMALL
GASTEIGER

@<TRIPOS>ATOM
      1 N          -3.4838  -18.2333   20.6100 N.3     1  UNL1       -0.2972
      2 H          -3.9447  -17.3563   20.3675 H       1  UNL1        0.1233
      3 C          -3.4695  -20.3503   20.7450 C.3     1  UNL1        0.0161
      4 C          -4.5258  -19.3088   20.5227 C.3     1  UNL1        0.0461
      5 C          -5.5821  -18.2673   20.3003 C.3     1  UNL1        0.0161
      6 C          -5.5678  -20.3842   20.4353 C.3     1  UNL1        0.0408
      7 C          -6.9963  -20.0735   20.7713 C.ar    1  UNL1       -0.0209
      8 C          -7.9942  -19.8532   19.6733 C.ar    1  UNL1       -0.0042
      9 C          -9.4227  -19.5425   20.0092 C.ar    1  UNL1       -0.0003
     10 C          -9.8533  -19.4520   21.4433 C.ar    1  UNL1       -0.0000
     11 C         -11.2818  -19.1413   21.7792 C.ar    1  UNL1       -0.0000
     12 C         -11.7124  -19.0508   23.2132 C.ar    1  UNL1       -0.0000
     13 C         -10.7145  -19.2711   24.3112 C.ar    1  UNL1       -0.0000
     14 C          -9.2860  -19.5818   23.9753 C.ar    1  UNL1       -0.0000
     15 C          -8.8554  -19.6723   22.5413 C.ar    1  UNL1       -0.0003
     16 C          -7.4269  -19.9830   22.2053 C.ar    1  UNL1       -0.0042
     17 C          -2.7556  -17.9975   21.9001 C.3     1  UNL1        0.1020
     18 C          -3.4996  -17.4885   23.0990 C.3     1  UNL1        0.1697
     19 O          -3.4996  -18.2799   24.3733 O.3     1  UNL1       -0.3793
     20 H          -2.9758  -19.0874   24.2524 H       1  UNL1        0.2106
     21 C          -4.2436  -16.1882   23.0237 C.3     1  UNL1        0.2358
     22 O          -5.2123  -15.8146   24.1062 O.3     1  UNL1       -0.4721
     23 C          -6.6885  -15.8892   23.8503 C.ar    1  UNL1        0.1482
     24 C          -7.1983  -16.0912   22.4541 C.ar    1  UNL1        0.0376
     25 C          -8.6744  -16.1658   22.1982 C.ar    1  UNL1        0.0032
     26 C          -9.6406  -16.0384   23.3384 C.ar    1  UNL1        0.0009
     27 C          -9.1308  -15.8363   24.7345 C.ar    1  UNL1        0.0133
     28 C          -7.6547  -15.7617   24.9905 C.ar    1  UNL1        0.1023
     29 C          -7.1448  -15.5597   26.3866 C.1     1  UNL1        0.1035
     30 N          -6.6350  -15.3577   27.7828 N.1     1  UNL1       -0.1907
@<TRIPOS>BOND
     1     3     4    1
     2     4     5    1
     3     4     6    1
     4     6     7    1
     5     7     8   ar
     6     8     9   ar
     7     9    10   ar
     8    10    11   ar
     9    11    12   ar
    10    12    13   ar
    11    13    14   ar
    12    14    15   ar
    13    15    16   ar
    14     4     1    1
    15     1    17    1
    16    17    18    1
    17    18    19    1
    18    18    21    1
    19    21    22    1
    20    22    23    1
    21    23    24   ar
    22    24    25   ar
    23    25    26   ar
    24    26    27   ar
    25    27    28   ar
    26    28    29    1
    27    29    30    3
    28    16     7   ar
    29    28    23   ar
    30    15    10   ar
    31     1     2    1
    32    19    20    1
@<TRIPOS>MOLECULE
*****
 30 32 0 0 0
SMALL
GASTEIGER

@<TRIPOS>ATOM
      1 N         -11.8391   -7.9356   17.7982 N.3     1  UNL1       -0.2972
      2 H         -11.9521   -7.9932   18.8102 H       1  UNL1        0.1233
      3 C         -11.6319   -6.6458   16.1268 C.3     1  UNL1        0.0161
      4 C         -11.0738   -6.6761   17.5188 C.3     1  UNL1        0.0461
      5 C         -10.5157   -6.7065   18.9108 C.3     1  UNL1        0.0161
      6 C         -10.3085   -5.4166   17.2394 C.3     1  UNL1        0.0408
      7 C         -10.9453   -4.0814   17.4881 C.ar    1  UNL1       -0.0209
      8 C         -10.4524   -3.2121   18.6067 C.ar    1  UNL1       -0.0042
      9 C         -11.0891   -1.8769   18.8554 C.ar    1  UNL1       -0.0003
     10 C         -12.2187   -1.4110   17.9854 C.ar    1  UNL1       -0.0000
     11 C         -12.8554   -0.0758   18.2341 C.ar    1  UNL1       -0.0000
     12 C         -13.9850    0.3901   17.3641 C.ar    1  UNL1       -0.0000
     13 C         -14.4779   -0.4792   16.2454 C.ar    1  UNL1       -0.0000
     14 C         -13.8412   -1.8143   15.9968 C.ar    1  UNL1       -0.0000
     15 C         -12.7116   -2.2802   16.8667 C.ar    1  UNL1       -0.0003
     16 C         -12.0749   -3.6155   16.6181 C.ar    1  UNL1       -0.0042
     17 C         -13.1994   -8.1353   17.1985 C.3     1  UNL1        0.1020
     18 C         -14.3896   -8.3358   18.0891 C.3     1  UNL1        0.1697
     19 O         -14.4640   -9.5389   18.9820 O.3     1  UNL1       -0.3793
     20 H         -13.6683  -10.0805   18.8617 H       1  UNL1        0.2106
     21 C         -15.5054   -7.3334   18.0869 C.3     1  UNL1        0.2358
     22 O         -15.2436   -5.9207   17.6559 O.3     1  UNL1       -0.4721
     23 C         -14.8856   -4.8797   18.6750 C.ar    1  UNL1        0.1482
     24 C         -13.7805   -5.1389   19.6555 C.ar    1  UNL1        0.0376
     25 C         -13.4226   -4.0980   20.6745 C.ar    1  UNL1        0.0032
     26 C         -14.1698   -2.7980   20.7130 C.ar    1  UNL1        0.0009
     27 C         -15.2749   -2.5388   19.7325 C.ar    1  UNL1        0.0133
     28 C         -15.6328   -3.5797   18.7135 C.ar    1  UNL1        0.1023
     29 C         -16.7380   -3.3205   17.7329 C.1     1  UNL1        0.1035
     30 N         -17.8431   -3.0613   16.7523 N.1     1  UNL1       -0.1907
@<TRIPOS>BOND
     1     3     4    1
     2     4     5    1
     3     4     6    1
     4     6     7    1
     5     7     8   ar
     6     8     9   ar
     7     9    10   ar
     8    10    11   ar
     9    11    12   ar
    10    12    13   ar
    11    13    14   ar
    12    14    15   ar
    13    15    16   ar
    14     4     1    1
    15     1    17    1
    16    17    18    1
    17    18    19    1
    18    18    21    1
    19    21    22    1
    20    22    23    1
    21    23    24   ar
    22    24    25   ar
    23    25    26   ar
    24    26    27   ar
    25    27    28   ar
    26    28    29    1
    27    29    30    3
    28    16     7   ar
    29    28    23   ar
    30    15    10   ar
    31     1     2    1
    32    19    20    1
