@<TRIPOS>MOLECULE
*****
 27 29 0 0 0
SMALL
GASTEIGER

@<TRIPOS>ATOM
      1 C           5.9802   -2.5911   32.3371 C.ar    1  UNL1        0.0420
      2 C           4.6665   -2.7451   33.0446 C.ar    1  UNL1        0.0084
      3 C           4.3011   -1.8106   34.1596 C.ar    1  UNL1        0.0051
      4 C           5.2494   -0.7222   34.5672 C.ar    1  UNL1        0.0536
      5 C           6.5630   -0.5682   33.8597 C.ar    1  UNL1        0.0051
      6 C           6.9284   -1.5027   32.7447 C.ar    1  UNL1        0.0084
      7 C           4.8840    0.2123   35.6822 C.2     1  UNL1        0.2490
      8 O           5.4759    0.0193   37.0469 O.2     1  UNL1       -0.2699
      9 N           3.9266    1.3397   35.4326 N.am    1  UNL1       -0.2760
     10 C           3.3347    1.5328   34.0678 C.3     1  UNL1        0.0937
     11 C           2.3774    2.6602   33.8182 C.3     1  UNL1        0.0217
     12 C           2.0120    3.5947   34.9332 C.3     1  UNL1        0.0060
     13 C           2.6039    3.4017   36.2979 C.3     1  UNL1        0.0492
     14 C           3.5612    2.2742   36.5476 C.3     1  UNL1        0.0961
     15 C           2.2385    4.3361   37.4129 C.3     1  UNL1        0.1388
     16 O           3.2389    4.6520   38.4850 O.3     1  UNL1       -0.3819
     17 H           3.4256    3.8509   38.9992 H       1  UNL1        0.2104
     18 C           6.7110   -4.4600   30.1071 C.1     1  UNL1       -0.0597
     19 C           6.3456   -3.5255   31.2221 C.1     1  UNL1       -0.0597
     20 C           7.8072   -7.2633   26.7620 C.ar    1  UNL1        0.1388
     21 C           8.4483   -7.4165   28.1094 C.ar    1  UNL1        0.0375
     22 C           8.0829   -6.4820   29.2244 C.ar    1  UNL1        0.0114
     23 C           7.0764   -5.3944   28.9920 C.ar    1  UNL1        0.0422
     24 C           6.4353   -5.2413   27.6447 C.ar    1  UNL1        0.0114
     25 C           6.8007   -6.1757   26.5296 C.ar    1  UNL1        0.0375
     26 C           8.6223   -7.6490   24.3255 C.3     1  UNL1        0.2525
     27 O           8.1726   -8.1978   25.6470 O.3     1  UNL1       -0.4714
@<TRIPOS>BOND
     1    26    27    1
     2    27    20    1
     3    20    21   ar
     4    21    22   ar
     5    22    23   ar
     6    23    18    1
     7    18    19    3
     8    19     1    1
     9     1     2   ar
    10     2     3   ar
    11     3     4   ar
    12     4     7    1
    13     7     8    2
    14     7     9   am
    15     9    10    1
    16    10    11    1
    17    11    12    1
    18    12    13    1
    19    13    15    1
    20    15    16    1
    21    13    14    1
    22     4     5   ar
    23     5     6   ar
    24    23    24   ar
    25    24    25   ar
    26    25    20   ar
    27     6     1   ar
    28    14     9    1
    29    16    17    1
@<TRIPOS>MOLECULE
*****
 27 29 0 0 0
SMALL
GASTEIGER

@<TRIPOS>ATOM
      1 C          -0.9821    1.8668   27.5160 C.ar    1  UNL1        0.0420
      2 C           0.4055    2.2836   27.1279 C.ar    1  UNL1        0.0084
      3 C           1.5838    1.4614   27.5588 C.ar    1  UNL1        0.0051
      4 C           1.3743    0.2223   28.3778 C.ar    1  UNL1        0.0536
      5 C          -0.0133   -0.1945   28.7659 C.ar    1  UNL1        0.0051
      6 C          -1.1915    0.6278   28.3350 C.ar    1  UNL1        0.0084
      7 C           2.5526   -0.5999   28.8088 C.2     1  UNL1        0.2490
      8 O           3.1806   -1.5695   27.8521 O.2     1  UNL1       -0.2699
      9 N           3.1027   -0.4525   30.1964 N.am    1  UNL1       -0.2760
     10 C           2.4746    0.5172   31.1532 C.3     1  UNL1        0.0937
     11 C           3.0248    0.6645   32.5408 C.3     1  UNL1        0.0217
     12 C           4.2030   -0.1577   32.9718 C.3     1  UNL1        0.0060
     13 C           4.8311   -1.1273   32.0151 C.3     1  UNL1        0.0492
     14 C           4.2809   -1.2748   30.6274 C.3     1  UNL1        0.0961
     15 C           6.0093   -1.9496   32.4460 C.3     1  UNL1        0.1388
     16 O           5.9275   -3.4471   32.4229 O.3     1  UNL1       -0.3819
     17 H           5.2742   -3.7454   33.0750 H       1  UNL1        0.2104
     18 C          -3.3385    3.5113   26.6541 C.1     1  UNL1       -0.0597
     19 C          -2.1603    2.6891   27.0850 C.1     1  UNL1       -0.0597
     20 C          -6.8732    5.9781   25.3612 C.ar    1  UNL1        0.1388
     21 C          -6.0912    6.3691   26.5801 C.ar    1  UNL1        0.0375
     22 C          -4.9130    5.5469   27.0110 C.ar    1  UNL1        0.0114
     23 C          -4.5168    4.3336   26.2231 C.ar    1  UNL1        0.0422
     24 C          -5.2987    3.9425   25.0043 C.ar    1  UNL1        0.0114
     25 C          -6.4769    4.7647   24.5734 C.ar    1  UNL1        0.0375
     26 C          -9.3894    6.1503   24.7377 C.3     1  UNL1        0.2525
     27 O          -8.0514    6.8003   24.9303 O.3     1  UNL1       -0.4714
@<TRIPOS>BOND
     1    26    27    1
     2    27    20    1
     3    20    21   ar
     4    21    22   ar
     5    22    23   ar
     6    23    18    1
     7    18    19    3
     8    19     1    1
     9     1     2   ar
    10     2     3   ar
    11     3     4   ar
    12     4     7    1
    13     7     8    2
    14     7     9   am
    15     9    10    1
    16    10    11    1
    17    11    12    1
    18    12    13    1
    19    13    15    1
    20    15    16    1
    21    13    14    1
    22     4     5   ar
    23     5     6   ar
    24    23    24   ar
    25    24    25   ar
    26    25    20   ar
    27     6     1   ar
    28    14     9    1
    29    16    17    1
@<TRIPOS>MOLECULE
*****
 27 29 0 0 0
SMALL
GASTEIGER

@<TRIPOS>ATOM
      1 C          -0.9629    2.5247   27.2043 C.ar    1  UNL1        0.0420
      2 C           0.1553    3.4128   27.6634 C.ar    1  UNL1        0.0084
      3 C           0.9318    3.0635   28.8983 C.ar    1  UNL1        0.0051
      4 C           0.5902    1.8261   29.6741 C.ar    1  UNL1        0.0536
      5 C          -0.5280    0.9379   29.2150 C.ar    1  UNL1        0.0051
      6 C          -1.3045    1.2872   27.9801 C.ar    1  UNL1        0.0084
      7 C           1.3667    1.4768   30.9090 C.2     1  UNL1        0.2490
      8 O           2.1454    0.1961   30.9682 O.2     1  UNL1       -0.2699
      9 N           1.3646    2.4082   32.0848 N.am    1  UNL1       -0.2760
     10 C           0.5859    3.6889   32.0257 C.3     1  UNL1        0.0937
     11 C           0.5838    4.6203   33.2015 C.3     1  UNL1        0.0217
     12 C           1.3603    4.2710   34.4364 C.3     1  UNL1        0.0060
     13 C           2.1389    2.9904   34.4955 C.3     1  UNL1        0.0492
     14 C           2.1411    2.0589   33.3197 C.3     1  UNL1        0.0961
     15 C           2.9154    2.6411   35.7304 C.3     1  UNL1        0.1388
     16 O           2.2077    2.0788   36.9274 O.3     1  UNL1       -0.3819
     17 H           1.6113    2.7496   37.2951 H       1  UNL1        0.2104
     18 C          -2.5159    3.2232   24.7344 C.1     1  UNL1       -0.0597
     19 C          -1.7394    2.8740   25.9694 C.1     1  UNL1       -0.0597
     20 C          -4.8455    4.2711   21.0297 C.ar    1  UNL1        0.1388
     21 C          -3.3837    4.5968   21.1136 C.ar    1  UNL1        0.0375
     22 C          -2.6072    4.2475   22.3486 C.ar    1  UNL1        0.0114
     23 C          -3.2924    3.5725   23.4995 C.ar    1  UNL1        0.0422
     24 C          -4.7542    3.2468   23.4156 C.ar    1  UNL1        0.0114
     25 C          -5.5307    3.5961   22.1807 C.ar    1  UNL1        0.0375
     26 C          -6.0404    3.5406   18.8415 C.3     1  UNL1        0.2525
     27 O          -5.6220    4.6204   19.7948 O.3     1  UNL1       -0.4714
@<TRIPOS>BOND
     1    26    27    1
     2    27    20    1
     3    20    21   ar
     4    21    22   ar
     5    22    23   ar
     6    23    18    1
     7    18    19    3
     8    19     1    1
     9     1     2   ar
    10     2     3   ar
    11     3     4   ar
    12     4     7    1
    13     7     8    2
    14     7     9   am
    15     9    10    1
    16    10    11    1
    17    11    12    1
    18    12    13    1
    19    13    15    1
    20    15    16    1
    21    13    14    1
    22     4     5   ar
    23     5     6   ar
    24    23    24   ar
    25    24    25   ar
    26    25    20   ar
    27     6     1   ar
    28    14     9    1
    29    16    17    1
@<TRIPOS>MOLECULE
*****
 27 29 0 0 0
SMALL
GASTEIGER

@<TRIPOS>ATOM
      1 C           3.6135   -0.9103   27.7870 C.ar    1  UNL1        0.0420
      2 C           2.2827   -0.6741   28.4373 C.ar    1  UNL1        0.0084
      3 C           2.2068   -0.3869   29.9076 C.ar    1  UNL1        0.0051
      4 C           3.4618   -0.3360   30.7276 C.ar    1  UNL1        0.0536
      5 C           4.7926   -0.5723   30.0773 C.ar    1  UNL1        0.0051
      6 C           4.8685   -0.8595   28.6070 C.ar    1  UNL1        0.0084
      7 C           3.3859   -0.0489   32.1979 C.2     1  UNL1        0.2490
      8 O           3.6753   -1.1358   33.1903 O.2     1  UNL1       -0.2699
      9 N           3.0207    1.3252   32.6758 N.am    1  UNL1       -0.2760
     10 C           2.7313    2.4122   31.6835 C.3     1  UNL1        0.0937
     11 C           2.3661    3.7863   32.1614 C.3     1  UNL1        0.0217
     12 C           2.2903    4.0735   33.6317 C.3     1  UNL1        0.0060
     13 C           2.5796    2.9865   34.6241 C.3     1  UNL1        0.0492
     14 C           2.9449    1.6124   34.1461 C.3     1  UNL1        0.0961
     15 C           2.5038    3.2737   36.0944 C.3     1  UNL1        0.1388
     16 O           2.0911    2.1931   37.0493 O.3     1  UNL1       -0.3819
     17 H           1.1666    1.9507   36.8833 H       1  UNL1        0.2104
     18 C           3.7652   -1.4847   24.8464 C.1     1  UNL1       -0.0597
     19 C           3.6894   -1.1975   26.3167 C.1     1  UNL1       -0.0597
     20 C           3.9928   -2.3461   20.4355 C.ar    1  UNL1        0.1388
     21 C           3.1393   -1.2190   20.9365 C.ar    1  UNL1        0.0375
     22 C           3.0635   -0.9318   22.4068 C.ar    1  UNL1        0.0114
     23 C           3.8411   -1.7718   23.3761 C.ar    1  UNL1        0.0422
     24 C           4.6945   -2.8990   22.8751 C.ar    1  UNL1        0.0114
     25 C           4.7704   -3.1862   21.4048 C.ar    1  UNL1        0.0375
     26 C           5.3449   -3.1449   18.3658 C.3     1  UNL1        0.2525
     27 O           4.0686   -2.6333   18.9652 O.3     1  UNL1       -0.4714
@<TRIPOS>BOND
     1    26    27    1
     2    27    20    1
     3    20    21   ar
     4    21    22   ar
     5    22    23   ar
     6    23    18    1
     7    18    19    3
     8    19     1    1
     9     1     2   ar
    10     2     3   ar
    11     3     4   ar
    12     4     7    1
    13     7     8    2
    14     7     9   am
    15     9    10    1
    16    10    11    1
    17    11    12    1
    18    12    13    1
    19    13    15    1
    20    15    16    1
    21    13    14    1
    22     4     5   ar
    23     5     6   ar
    24    23    24   ar
    25    24    25   ar
    26    25    20   ar
    27     6     1   ar
    28    14     9    1
    29    16    17    1
@<TRIPOS>MOLECULE
*****
 27 29 0 0 0
SMALL
GASTEIGER

@<TRIPOS>ATOM
      1 C          -0.0216    2.1949   24.2156 C.ar    1  UNL1        0.0420
      2 C          -0.5576    1.7407   25.5408 C.ar    1  UNL1        0.0084
      3 C          -1.4077    2.6640   26.3624 C.ar    1  UNL1        0.0051
      4 C          -1.7216    4.0415   25.8587 C.ar    1  UNL1        0.0536
      5 C          -1.1856    4.4958   24.5335 C.ar    1  UNL1        0.0051
      6 C          -0.3356    3.5725   23.7119 C.ar    1  UNL1        0.0084
      7 C          -2.5717    4.9648   26.6803 C.2     1  UNL1        0.2490
      8 O          -1.9662    5.7224   27.8246 O.2     1  UNL1       -0.2699
      9 N          -4.0271    5.1305   26.3576 N.am    1  UNL1       -0.2760
     10 C          -4.6326    4.3728   25.2133 C.3     1  UNL1        0.0937
     11 C          -6.0880    4.5385   24.8906 C.3     1  UNL1        0.0217
     12 C          -6.9381    5.4618   25.7122 C.3     1  UNL1        0.0060
     13 C          -6.3326    6.2194   26.8565 C.3     1  UNL1        0.0492
     14 C          -4.8771    6.0538   27.1792 C.3     1  UNL1        0.0961
     15 C          -7.1827    7.1427   27.6781 C.3     1  UNL1        0.1388
     16 O          -8.0888    6.5858   28.7357 O.3     1  UNL1       -0.3819
     17 H          -8.7841    6.0535   28.3183 H       1  UNL1        0.2104
     18 C           1.6784    0.3483   22.5724 C.1     1  UNL1       -0.0597
     19 C           0.8284    1.2716   23.3940 C.1     1  UNL1       -0.0597
     20 C           4.2285   -2.4215   20.1076 C.ar    1  UNL1        0.1388
     21 C           4.3873   -2.3837   21.5987 C.ar    1  UNL1        0.0375
     22 C           3.5373   -1.4604   22.4203 C.ar    1  UNL1        0.0114
     23 C           2.5284   -0.5749   21.7508 C.ar    1  UNL1        0.0422
     24 C           2.3696   -0.6128   20.2598 C.ar    1  UNL1        0.0114
     25 C           3.2196   -1.5361   19.4382 C.ar    1  UNL1        0.0375
     26 C           5.9857   -2.7878   18.2294 C.3     1  UNL1        0.2525
     27 O           5.0785   -3.3448   19.2860 O.3     1  UNL1       -0.4714
@<TRIPOS>BOND
     1    26    27    1
     2    27    20    1
     3    20    21   ar
     4    21    22   ar
     5    22    23   ar
     6    23    18    1
     7    18    19    3
     8    19     1    1
     9     1     2   ar
    10     2     3   ar
    11     3     4   ar
    12     4     7    1
    13     7     8    2
    14     7     9   am
    15     9    10    1
    16    10    11    1
    17    11    12    1
    18    12    13    1
    19    13    15    1
    20    15    16    1
    21    13    14    1
    22     4     5   ar
    23     5     6   ar
    24    23    24   ar
    25    24    25   ar
    26    25    20   ar
    27     6     1   ar
    28    14     9    1
    29    16    17    1
@<TRIPOS>MOLECULE
*****
 27 29 0 0 0
SMALL
GASTEIGER

@<TRIPOS>ATOM
      1 C           3.4720   -0.1561   27.6499 C.ar    1  UNL1        0.0420
      2 C           4.4430    0.8677   28.1587 C.ar    1  UNL1        0.0084
      3 C           4.3082    1.4008   29.5543 C.ar    1  UNL1        0.0051
      4 C           3.2024    0.9100   30.4410 C.ar    1  UNL1        0.0536
      5 C           2.2315   -0.1138   29.9322 C.ar    1  UNL1        0.0051
      6 C           2.3663   -0.6469   28.5367 C.ar    1  UNL1        0.0084
      7 C           3.0677    1.4431   31.8366 C.2     1  UNL1        0.2490
      8 O           2.2350    2.6634   32.0962 O.2     1  UNL1       -0.2699
      9 N           3.7655    0.7558   32.9727 N.am    1  UNL1       -0.2760
     10 C           4.5982   -0.4646   32.7131 C.3     1  UNL1        0.0937
     11 C           5.2961   -1.1518   33.8492 C.3     1  UNL1        0.0217
     12 C           5.1613   -0.6188   35.2447 C.3     1  UNL1        0.0060
     13 C           4.3287    0.6016   35.5043 C.3     1  UNL1        0.0492
     14 C           3.6307    1.2889   34.3682 C.3     1  UNL1        0.0961
     15 C           4.1939    1.1347   36.8999 C.3     1  UNL1        0.1388
     16 O           3.4969    0.3209   37.9495 O.3     1  UNL1       -0.3819
     17 H           2.5590    0.2308   37.7189 H       1  UNL1        0.2104
     18 C           3.7416   -1.2223   24.8587 C.1     1  UNL1       -0.0597
     19 C           3.6068   -0.6892   26.2543 C.1     1  UNL1       -0.0597
     20 C           4.1459   -2.8215   20.6719 C.ar    1  UNL1        0.1388
     21 C           3.3157   -1.5995   20.9311 C.ar    1  UNL1        0.0375
     22 C           3.1809   -1.0664   22.3267 C.ar    1  UNL1        0.0114
     23 C           3.8763   -1.7554   23.4631 C.ar    1  UNL1        0.0422
     24 C           4.7066   -2.9775   23.2040 C.ar    1  UNL1        0.0114
     25 C           4.8413   -3.5105   21.8084 C.ar    1  UNL1        0.0375
     26 C           4.3474   -4.8347   19.0420 C.3     1  UNL1        0.2525
     27 O           4.2807   -3.3546   19.2764 O.3     1  UNL1       -0.4714
@<TRIPOS>BOND
     1    26    27    1
     2    27    20    1
     3    20    21   ar
     4    21    22   ar
     5    22    23   ar
     6    23    18    1
     7    18    19    3
     8    19     1    1
     9     1     2   ar
    10     2     3   ar
    11     3     4   ar
    12     4     7    1
    13     7     8    2
    14     7     9   am
    15     9    10    1
    16    10    11    1
    17    11    12    1
    18    12    13    1
    19    13    15    1
    20    15    16    1
    21    13    14    1
    22     4     5   ar
    23     5     6   ar
    24    23    24   ar
    25    24    25   ar
    26    25    20   ar
    27     6     1   ar
    28    14     9    1
    29    16    17    1
@<TRIPOS>MOLECULE
*****
 27 29 0 0 0
SMALL
GASTEIGER

@<TRIPOS>ATOM
      1 C          -1.0932    2.0722   27.6234 C.ar    1  UNL1        0.0420
      2 C           0.1091    2.9157   27.9280 C.ar    1  UNL1        0.0084
      3 C           1.2082    2.3710   28.7913 C.ar    1  UNL1        0.0051
      4 C           1.1049    0.9828   29.3501 C.ar    1  UNL1        0.0536
      5 C          -0.0974    0.1394   29.0456 C.ar    1  UNL1        0.0051
      6 C          -1.1965    0.6840   28.1823 C.ar    1  UNL1        0.0084
      7 C           2.2040    0.4382   30.2134 C.2     1  UNL1        0.2490
      8 O           2.1863    0.6825   31.6933 O.2     1  UNL1       -0.2699
      9 N           3.3208   -0.3508   29.5969 N.am    1  UNL1       -0.2760
     10 C           3.3386   -0.5952   28.1170 C.3     1  UNL1        0.0937
     11 C           4.4554   -1.3843   27.5006 C.3     1  UNL1        0.0217
     12 C           5.5545   -1.9289   28.3639 C.3     1  UNL1        0.0060
     13 C           5.5368   -1.6846   29.8437 C.3     1  UNL1        0.0492
     14 C           4.4199   -0.8955   30.4603 C.3     1  UNL1        0.0961
     15 C           6.6359   -2.2292   30.7070 C.3     1  UNL1        0.1388
     16 O           6.3016   -3.0315   31.9295 O.3     1  UNL1       -0.3819
     17 H           5.8534   -2.4641   32.5761 H       1  UNL1        0.2104
     18 C          -3.2914    3.1615   25.8968 C.1     1  UNL1       -0.0597
     19 C          -2.1923    2.6168   26.7601 C.1     1  UNL1       -0.0597
     20 C          -6.5887    4.7955   23.3068 C.ar    1  UNL1        0.1388
     21 C          -5.6305    3.7837   22.7517 C.ar    1  UNL1        0.0375
     22 C          -4.5314    3.2390   23.6150 C.ar    1  UNL1        0.0114
     23 C          -4.3905    3.7062   25.0334 C.ar    1  UNL1        0.0422
     24 C          -5.3487    4.7180   25.5885 C.ar    1  UNL1        0.0114
     25 C          -6.4478    5.2626   24.7252 C.ar    1  UNL1        0.0375
     26 C          -7.3869    5.8010   21.0481 C.3     1  UNL1        0.2525
     27 O          -7.6878    5.3402   22.4434 O.3     1  UNL1       -0.4714
@<TRIPOS>BOND
     1    26    27    1
     2    27    20    1
     3    20    21   ar
     4    21    22   ar
     5    22    23   ar
     6    23    18    1
     7    18    19    3
     8    19     1    1
     9     1     2   ar
    10     2     3   ar
    11     3     4   ar
    12     4     7    1
    13     7     8    2
    14     7     9   am
    15     9    10    1
    16    10    11    1
    17    11    12    1
    18    12    13    1
    19    13    15    1
    20    15    16    1
    21    13    14    1
    22     4     5   ar
    23     5     6   ar
    24    23    24   ar
    25    24    25   ar
    26    25    20   ar
    27     6     1   ar
    28    14     9    1
    29    16    17    1
@<TRIPOS>MOLECULE
*****
 27 29 0 0 0
SMALL
GASTEIGER

@<TRIPOS>ATOM
      1 C          -1.0927    2.0890   27.5519 C.ar    1  UNL1        0.0420
      2 C           0.2085    2.8262   27.6674 C.ar    1  UNL1        0.0084
      3 C           1.3224    2.2566   28.4950 C.ar    1  UNL1        0.0051
      4 C           1.1351    0.9498   29.2070 C.ar    1  UNL1        0.0536
      5 C          -0.1660    0.2125   29.0915 C.ar    1  UNL1        0.0051
      6 C          -1.2799    0.7821   28.2639 C.ar    1  UNL1        0.0084
      7 C           2.2490    0.3802   30.0346 C.2     1  UNL1        0.2490
      8 O           3.1499   -0.6712   29.4577 O.2     1  UNL1       -0.2699
      9 N           2.4619    0.8620   31.4390 N.am    1  UNL1       -0.2760
     10 C           1.5610    1.9135   32.0159 C.3     1  UNL1        0.0937
     11 C           1.7739    2.3953   33.4204 C.3     1  UNL1        0.0217
     12 C           2.8878    1.8257   34.2479 C.3     1  UNL1        0.0060
     13 C           3.7887    0.7743   33.6711 C.3     1  UNL1        0.0492
     14 C           3.5758    0.2925   32.2666 C.3     1  UNL1        0.0961
     15 C           4.9026    0.2048   34.4986 C.3     1  UNL1        0.1388
     16 O           6.3221    0.3228   34.0286 O.3     1  UNL1       -0.3819
     17 H           6.4389   -0.1982   33.2187 H       1  UNL1        0.2104
     18 C          -3.3204    3.2281   25.8968 C.1     1  UNL1       -0.0597
     19 C          -2.2065    2.6585   26.7243 C.1     1  UNL1       -0.0597
     20 C          -6.6621    4.9368   23.4141 C.ar    1  UNL1        0.1388
     21 C          -5.8468    3.7927   22.8887 C.ar    1  UNL1        0.0375
     22 C          -4.7329    3.2231   23.7162 C.ar    1  UNL1        0.0114
     23 C          -4.4343    3.7977   25.0692 C.ar    1  UNL1        0.0422
     24 C          -5.2496    4.9419   25.5947 C.ar    1  UNL1        0.0114
     25 C          -6.3635    5.5114   24.7671 C.ar    1  UNL1        0.0375
     26 C          -7.5198    6.6831   21.6922 C.3     1  UNL1        0.2525
     27 O          -7.7759    5.5064   22.5866 O.3     1  UNL1       -0.4714
@<TRIPOS>BOND
     1    26    27    1
     2    27    20    1
     3    20    21   ar
     4    21    22   ar
     5    22    23   ar
     6    23    18    1
     7    18    19    3
     8    19     1    1
     9     1     2   ar
    10     2     3   ar
    11     3     4   ar
    12     4     7    1
    13     7     8    2
    14     7     9   am
    15     9    10    1
    16    10    11    1
    17    11    12    1
    18    12    13    1
    19    13    15    1
    20    15    16    1
    21    13    14    1
    22     4     5   ar
    23     5     6   ar
    24    23    24   ar
    25    24    25   ar
    26    25    20   ar
    27     6     1   ar
    28    14     9    1
    29    16    17    1
@<TRIPOS>MOLECULE
*****
 27 29 0 0 0
SMALL
GASTEIGER

@<TRIPOS>ATOM
      1 C           0.5471    2.8839   29.8826 C.ar    1  UNL1        0.0420
      2 C           0.0330    1.6050   29.2910 C.ar    1  UNL1        0.0084
      3 C          -0.4718    1.5816   27.8786 C.ar    1  UNL1        0.0051
      4 C          -0.4625    2.8372   27.0580 C.ar    1  UNL1        0.0536
      5 C           0.0516    4.1161   27.6496 C.ar    1  UNL1        0.0051
      6 C           0.5564    4.1395   29.0619 C.ar    1  UNL1        0.0084
      7 C          -0.9673    2.8138   25.6456 C.2     1  UNL1        0.2490
      8 O          -0.0650    2.3663   24.5340 O.2     1  UNL1       -0.2699
      9 N          -2.3742    3.2379   25.3449 N.am    1  UNL1       -0.2760
     10 C          -3.2765    3.6854   26.4566 C.3     1  UNL1        0.0937
     11 C          -4.6835    4.1095   26.1559 C.3     1  UNL1        0.0217
     12 C          -5.1883    4.0861   24.7435 C.3     1  UNL1        0.0060
     13 C          -4.2861    3.6386   23.6319 C.3     1  UNL1        0.0492
     14 C          -2.8790    3.2145   23.9326 C.3     1  UNL1        0.0961
     15 C          -4.7909    3.6152   22.2196 C.3     1  UNL1        0.1388
     16 O          -4.3934    2.4993   21.2995 O.3     1  UNL1       -0.3819
     17 H          -3.4394    2.5441   21.1301 H       1  UNL1        0.2104
     18 C           1.5566    2.9307   32.7073 C.1     1  UNL1       -0.0597
     19 C           1.0519    2.9073   31.2949 C.1     1  UNL1       -0.0597
     20 C           3.0710    3.0009   36.9442 C.ar    1  UNL1        0.1388
     21 C           3.4609    1.8801   36.0268 C.ar    1  UNL1        0.0375
     22 C           2.9562    1.8567   34.6145 C.ar    1  UNL1        0.0114
     23 C           2.0614    2.9541   34.1196 C.ar    1  UNL1        0.0422
     24 C           1.6715    4.0749   35.0369 C.ar    1  UNL1        0.0114
     25 C           2.1762    4.0983   36.4493 C.ar    1  UNL1        0.0375
     26 C           4.6613    2.0801   38.7807 C.3     1  UNL1        0.2525
     27 O           3.5758    3.0243   38.3565 O.3     1  UNL1       -0.4714
@<TRIPOS>BOND
     1    26    27    1
     2    27    20    1
     3    20    21   ar
     4    21    22   ar
     5    22    23   ar
     6    23    18    1
     7    18    19    3
     8    19     1    1
     9     1     2   ar
    10     2     3   ar
    11     3     4   ar
    12     4     7    1
    13     7     8    2
    14     7     9   am
    15     9    10    1
    16    10    11    1
    17    11    12    1
    18    12    13    1
    19    13    15    1
    20    15    16    1
    21    13    14    1
    22     4     5   ar
    23     5     6   ar
    24    23    24   ar
    25    24    25   ar
    26    25    20   ar
    27     6     1   ar
    28    14     9    1
    29    16    17    1
