@<TRIPOS>MOLECULE
*****
 32 37 0 0 0
SMALL
GASTEIGER

@<TRIPOS>ATOM
      1 N         -15.1466   -6.7327   17.3997 N.pl3   1  UNL1       -0.3046
      2 C         -14.1168   -7.1083   16.3757 C.3     1  UNL1        0.1081
      3 C         -12.6804   -7.2647   16.7789 C.3     1  UNL1        0.0938
      4 N         -12.2740   -7.0455   18.2060 N.3     1  UNL1       -0.2695
      5 C         -13.3037   -6.6699   19.2299 C.3     1  UNL1        0.0938
      6 C         -14.7400   -6.5135   18.8268 C.3     1  UNL1        0.1081
      7 C         -20.4409  -11.0959   17.8268 C.3     1  UNL1        0.0521
      8 C         -19.4764   -9.9660   17.6192 C.ar    1  UNL1        0.0593
      9 C         -18.0401  -10.1224   18.0224 C.ar    1  UNL1        0.0148
     10 C         -17.0756   -8.9924   17.8148 C.ar    1  UNL1        0.0039
     11 C         -17.5474   -7.7063   17.2041 C.ar    1  UNL1        0.0310
     12 C         -16.5829   -6.5763   16.9965 C.ar    1  UNL1        0.0493
     13 C         -17.0547   -5.2900   16.3858 C.ar    1  UNL1        0.0146
     14 C         -18.4911   -5.1337   15.9827 C.ar    1  UNL1        0.0028
     15 C         -19.4556   -6.2636   16.1903 C.ar    1  UNL1        0.0192
     16 C         -18.9837   -7.5499   16.8010 C.ar    1  UNL1        0.0821
     17 N         -19.9482   -8.6797   17.0085 N.ar    1  UNL1       -0.2496
     18 C         -10.8376   -7.2019   18.6092 C.3     1  UNL1        0.0770
     19 C         -10.0199   -5.9930   18.9554 C.3     1  UNL1        0.0468
     20 C          -9.9922   -4.8152   18.0269 C.ar    1  UNL1        0.0146
     21 C          -8.9862   -4.7598   16.9157 C.ar    1  UNL1       -0.0011
     22 C          -8.9585   -3.5821   15.9872 C.ar    1  UNL1        0.0014
     23 C          -9.9368   -2.4598   16.1699 C.ar    1  UNL1        0.0206
     24 C         -10.9428   -2.5152   17.2812 C.ar    1  UNL1        0.0989
     25 C         -10.9706   -3.6929   18.2097 C.ar    1  UNL1        0.1511
     26 O         -11.9765   -3.7484   19.3209 O.3     1  UNL1       -0.4678
     27 C         -12.9549   -2.6261   19.5037 C.3     1  UNL1        0.2509
     28 C         -12.9271   -1.4484   18.5752 C.ar    1  UNL1        0.1057
     29 C         -13.7600   -0.2026   18.5091 C.ar    1  UNL1        0.1174
     30 N         -13.2687    0.6228   17.3570 N.ar    1  UNL1       -0.2223
     31 C         -12.1322   -0.1129   16.7110 C.ar    1  UNL1        0.1827
     32 N         -11.9211   -1.3929   17.4639 N.ar    1  UNL1       -0.2852
@<TRIPOS>BOND
     1     7     8    1
     2     8     9   ar
     3     9    10   ar
     4    10    11   ar
     5    11    12   ar
     6    12     1    1
     7     1     2    1
     8     2     3    1
     9     3     4    1
    10     4    18    1
    11    18    19    1
    12    19    20    1
    13    20    21   ar
    14    21    22   ar
    15    22    23   ar
    16    23    24   ar
    17    24    25   ar
    18    25    26    1
    19    26    27    1
    20    27    28    1
    21    28    29   ar
    22    29    30   ar
    23    30    31   ar
    24    31    32   ar
    25     4     5    1
    26     5     6    1
    27    12    13   ar
    28    13    14   ar
    29    14    15   ar
    30    15    16   ar
    31    16    17   ar
    32    17     8   ar
    33    16    11   ar
    34     6     1    1
    35    25    20   ar
    36    32    28   ar
    37    32    24    1
@<TRIPOS>MOLECULE
*****
 32 37 0 0 0
SMALL
GASTEIGER

@<TRIPOS>ATOM
      1 N         -13.6117   -2.6900   17.8424 N.pl3   1  UNL1       -0.3046
      2 C         -14.7644   -3.0269   16.9437 C.3     1  UNL1        0.1081
      3 C         -16.1718   -2.8766   17.4406 C.3     1  UNL1        0.0938
      4 N         -16.4262   -2.3893   18.8363 N.3     1  UNL1       -0.2695
      5 C         -15.2735   -2.0523   19.7349 C.3     1  UNL1        0.0938
      6 C         -13.8662   -2.2027   19.2380 C.3     1  UNL1        0.1081
      7 C          -9.0397   -7.7444   18.7365 C.3     1  UNL1        0.0521
      8 C          -9.8309   -6.5184   18.3888 C.ar    1  UNL1        0.0593
      9 C         -11.2382   -6.3681   18.8857 C.ar    1  UNL1        0.0148
     10 C         -12.0293   -5.1420   18.5379 C.ar    1  UNL1        0.0039
     11 C         -11.4132   -4.0664   17.6933 C.ar    1  UNL1        0.0310
     12 C         -12.2044   -2.8403   17.3455 C.ar    1  UNL1        0.0493
     13 C         -11.5883   -1.7646   16.5009 C.ar    1  UNL1        0.0146
     14 C         -10.1809   -1.9151   16.0041 C.ar    1  UNL1        0.0028
     15 C          -9.3897   -3.1411   16.3518 C.ar    1  UNL1        0.0192
     16 C         -10.0059   -4.2167   17.1964 C.ar    1  UNL1        0.0821
     17 N          -9.2148   -5.4427   17.5442 N.ar    1  UNL1       -0.2496
     18 C         -17.8336   -2.2389   19.3332 C.3     1  UNL1        0.0770
     19 C         -18.4417   -3.3037   20.1972 C.3     1  UNL1        0.0468
     20 C         -18.7448   -4.6549   19.6208 C.ar    1  UNL1        0.0146
     21 C         -20.1518   -5.0100   19.2416 C.ar    1  UNL1       -0.0011
     22 C         -20.4549   -6.3613   18.6651 C.ar    1  UNL1        0.0014
     23 C         -19.3508   -7.3573   18.4679 C.ar    1  UNL1        0.0206
     24 C         -17.9437   -7.0021   18.8470 C.ar    1  UNL1        0.0989
     25 C         -17.6406   -5.6509   19.4235 C.ar    1  UNL1        0.1511
     26 O         -16.2335   -5.2958   19.8027 O.3     1  UNL1       -0.4678
     27 C         -15.1294   -6.2918   19.6054 C.3     1  UNL1        0.2509
     28 C         -15.4325   -7.6430   19.0290 C.ar    1  UNL1        0.1057
     29 C         -14.5578   -8.8221   18.7213 C.ar    1  UNL1        0.1174
     30 N         -15.4244   -9.9060   18.1520 N.ar    1  UNL1       -0.2223
     31 C         -16.8346   -9.3968   18.1078 C.ar    1  UNL1        0.1827
     32 N         -16.8396   -7.9982   18.6498 N.ar    1  UNL1       -0.2852
@<TRIPOS>BOND
     1     7     8    1
     2     8     9   ar
     3     9    10   ar
     4    10    11   ar
     5    11    12   ar
     6    12     1    1
     7     1     2    1
     8     2     3    1
     9     3     4    1
    10     4    18    1
    11    18    19    1
    12    19    20    1
    13    20    21   ar
    14    21    22   ar
    15    22    23   ar
    16    23    24   ar
    17    24    25   ar
    18    25    26    1
    19    26    27    1
    20    27    28    1
    21    28    29   ar
    22    29    30   ar
    23    30    31   ar
    24    31    32   ar
    25     4     5    1
    26     5     6    1
    27    12    13   ar
    28    13    14   ar
    29    14    15   ar
    30    15    16   ar
    31    16    17   ar
    32    17     8   ar
    33    16    11   ar
    34     6     1    1
    35    25    20   ar
    36    32    28   ar
    37    32    24    1
@<TRIPOS>MOLECULE
*****
 32 37 0 0 0
SMALL
GASTEIGER

@<TRIPOS>ATOM
      1 N           2.8668   -0.6108   21.0660 N.pl3   1  UNL1       -0.3046
      2 C           1.5496   -0.0267   20.6489 C.3     1  UNL1        0.1081
      3 C           0.7459    0.7827   21.6232 C.3     1  UNL1        0.0938
      4 N           1.2595    1.0079   23.0144 N.3     1  UNL1       -0.2695
      5 C           2.5766    0.4238   23.4314 C.3     1  UNL1        0.0938
      6 C           3.3803   -0.3855   22.4573 C.3     1  UNL1        0.1081
      7 C           7.2683    1.3303   16.1559 C.3     1  UNL1        0.0521
      8 C           6.3689    0.6427   17.1399 C.ar    1  UNL1        0.0593
      9 C           5.5652    1.4520   18.1141 C.ar    1  UNL1        0.0148
     10 C           4.6657    0.7644   19.0981 C.ar    1  UNL1        0.0039
     11 C           4.5700   -0.7325   19.1078 C.ar    1  UNL1        0.0310
     12 C           3.6705   -1.4201   20.0918 C.ar    1  UNL1        0.0493
     13 C           3.5747   -2.9170   20.1016 C.ar    1  UNL1        0.0146
     14 C           4.3785   -3.7263   19.1274 C.ar    1  UNL1        0.0028
     15 C           5.2780   -3.0387   18.1434 C.ar    1  UNL1        0.0192
     16 C           5.3737   -1.5418   18.1337 C.ar    1  UNL1        0.0821
     17 N           6.2731   -0.8542   17.1497 N.ar    1  UNL1       -0.2496
     18 C           0.4558    1.8173   23.9887 C.3     1  UNL1        0.0770
     19 C          -0.4596    2.8966   23.4916 C.3     1  UNL1        0.0468
     20 C          -1.6953    3.2475   24.2661 C.ar    1  UNL1        0.0146
     21 C          -1.6588    3.2731   25.7653 C.ar    1  UNL1       -0.0011
     22 C          -2.8945    3.6240   26.5398 C.ar    1  UNL1        0.0014
     23 C          -4.1668    3.9494   25.8149 C.ar    1  UNL1        0.0206
     24 C          -4.2033    3.9238   24.3155 C.ar    1  UNL1        0.0989
     25 C          -2.9676    3.5729   23.5411 C.ar    1  UNL1        0.1511
     26 O          -3.0041    3.5474   22.0418 O.3     1  UNL1       -0.4678
     27 C          -4.2764    3.8728   21.3168 C.3     1  UNL1        0.2509
     28 C          -5.5121    4.2237   22.0913 C.ar    1  UNL1        0.1057
     29 C          -6.9005    4.5871   21.6551 C.ar    1  UNL1        0.1174
     30 N          -7.7221    4.8373   22.8850 N.ar    1  UNL1       -0.2223
     31 C          -6.8414    4.6285   24.0812 C.ar    1  UNL1        0.1827
     32 N          -5.4756    4.2492   23.5906 N.ar    1  UNL1       -0.2852
@<TRIPOS>BOND
     1     7     8    1
     2     8     9   ar
     3     9    10   ar
     4    10    11   ar
     5    11    12   ar
     6    12     1    1
     7     1     2    1
     8     2     3    1
     9     3     4    1
    10     4    18    1
    11    18    19    1
    12    19    20    1
    13    20    21   ar
    14    21    22   ar
    15    22    23   ar
    16    23    24   ar
    17    24    25   ar
    18    25    26    1
    19    26    27    1
    20    27    28    1
    21    28    29   ar
    22    29    30   ar
    23    30    31   ar
    24    31    32   ar
    25     4     5    1
    26     5     6    1
    27    12    13   ar
    28    13    14   ar
    29    14    15   ar
    30    15    16   ar
    31    16    17   ar
    32    17     8   ar
    33    16    11   ar
    34     6     1    1
    35    25    20   ar
    36    32    28   ar
    37    32    24    1
@<TRIPOS>MOLECULE
*****
 32 37 0 0 0
SMALL
GASTEIGER

@<TRIPOS>ATOM
      1 N           2.8090   -0.6093   19.9448 N.pl3   1  UNL1       -0.3046
      2 C           3.4247    0.7501   19.7936 C.3     1  UNL1        0.1081
      3 C           2.5584    1.9742   19.8298 C.3     1  UNL1        0.0938
      4 N           1.0763    1.8387   20.0172 N.3     1  UNL1       -0.2695
      5 C           0.4606    0.4793   20.1684 C.3     1  UNL1        0.0938
      6 C           1.3269   -0.7447   20.1322 C.3     1  UNL1        0.1081
      7 C           6.2148   -3.8613   24.9522 C.3     1  UNL1        0.0521
      8 C           5.5799   -3.3543   23.6913 C.ar    1  UNL1        0.0593
      9 C           4.7136   -2.1303   23.7275 C.ar    1  UNL1        0.0148
     10 C           4.0787   -1.6233   22.4665 C.ar    1  UNL1        0.0039
     11 C           4.3101   -2.3403   21.1696 C.ar    1  UNL1        0.0310
     12 C           3.6752   -1.8333   19.9086 C.ar    1  UNL1        0.0493
     13 C           3.9066   -2.5503   18.6115 C.ar    1  UNL1        0.0146
     14 C           4.7729   -3.7744   18.5755 C.ar    1  UNL1        0.0028
     15 C           5.4078   -4.2814   19.8363 C.ar    1  UNL1        0.0192
     16 C           5.1764   -3.5643   21.1334 C.ar    1  UNL1        0.0821
     17 N           5.8113   -4.0713   22.3943 N.ar    1  UNL1       -0.2496
     18 C           0.2100    3.0627   20.0534 C.3     1  UNL1        0.0770
     19 C          -1.2521    2.9378   20.3643 C.3     1  UNL1        0.0468
     20 C          -1.7481    3.1999   21.7554 C.ar    1  UNL1        0.0146
     21 C          -0.7990    3.1332   22.9150 C.ar    1  UNL1       -0.0011
     22 C          -1.2950    3.3952   24.3062 C.ar    1  UNL1        0.0014
     23 C          -2.7401    3.7240   24.5377 C.ar    1  UNL1        0.0206
     24 C          -3.6892    3.7907   23.3781 C.ar    1  UNL1        0.0989
     25 C          -3.1932    3.5286   21.9869 C.ar    1  UNL1        0.1511
     26 O          -4.1423    3.5953   20.8273 O.3     1  UNL1       -0.4678
     27 C          -5.5875    3.9241   21.0588 C.3     1  UNL1        0.2509
     28 C          -6.0834    4.1861   22.4500 C.ar    1  UNL1        0.1057
     29 C          -7.4426    4.5312   22.9826 C.ar    1  UNL1        0.1174
     30 N          -7.3334    4.6777   24.4714 N.ar    1  UNL1       -0.2223
     31 C          -5.9069    4.4232   24.8589 C.ar    1  UNL1        0.1827
     32 N          -5.1343    4.1194   23.6096 N.ar    1  UNL1       -0.2852
@<TRIPOS>BOND
     1     7     8    1
     2     8     9   ar
     3     9    10   ar
     4    10    11   ar
     5    11    12   ar
     6    12     1    1
     7     1     2    1
     8     2     3    1
     9     3     4    1
    10     4    18    1
    11    18    19    1
    12    19    20    1
    13    20    21   ar
    14    21    22   ar
    15    22    23   ar
    16    23    24   ar
    17    24    25   ar
    18    25    26    1
    19    26    27    1
    20    27    28    1
    21    28    29   ar
    22    29    30   ar
    23    30    31   ar
    24    31    32   ar
    25     4     5    1
    26     5     6    1
    27    12    13   ar
    28    13    14   ar
    29    14    15   ar
    30    15    16   ar
    31    16    17   ar
    32    17     8   ar
    33    16    11   ar
    34     6     1    1
    35    25    20   ar
    36    32    28   ar
    37    32    24    1
@<TRIPOS>MOLECULE
*****
 32 37 0 0 0
SMALL
GASTEIGER

@<TRIPOS>ATOM
      1 N         -15.0081   -7.2921   17.6693 N.pl3   1  UNL1       -0.3046
      2 C         -14.0051   -7.7041   16.6327 C.3     1  UNL1        0.1081
      3 C         -12.5386   -7.6449   16.9428 C.3     1  UNL1        0.0938
      4 N         -12.0753   -7.1737   18.2894 N.3     1  UNL1       -0.2695
      5 C         -13.0782   -6.7617   19.3258 C.3     1  UNL1        0.0938
      6 C         -14.5446   -6.8209   19.0158 C.3     1  UNL1        0.1081
      7 C         -19.4553   -2.3287   15.9848 C.3     1  UNL1        0.0521
      8 C         -18.7101   -3.5843   16.3284 C.ar    1  UNL1        0.0593
      9 C         -17.2437   -3.5251   16.6384 C.ar    1  UNL1        0.0148
     10 C         -16.4985   -4.7809   16.9820 C.ar    1  UNL1        0.0039
     11 C         -17.2197   -6.0956   17.0156 C.ar    1  UNL1        0.0310
     12 C         -16.4745   -7.3513   17.3593 C.ar    1  UNL1        0.0493
     13 C         -17.1957   -8.6661   17.3929 C.ar    1  UNL1        0.0146
     14 C         -18.6622   -8.7252   17.0828 C.ar    1  UNL1        0.0028
     15 C         -19.4074   -7.4696   16.7392 C.ar    1  UNL1        0.0192
     16 C         -18.6861   -6.1548   16.7056 C.ar    1  UNL1        0.0821
     17 N         -19.4313   -4.8992   16.3620 N.ar    1  UNL1       -0.2496
     18 C         -10.6088   -7.1144   18.5994 C.3     1  UNL1        0.0770
     19 C          -9.9787   -5.8132   18.9991 C.3     1  UNL1        0.0468
     20 C          -9.9953   -4.6499   18.0524 C.ar    1  UNL1        0.0146
     21 C          -9.0000   -4.5801   16.9324 C.ar    1  UNL1       -0.0011
     22 C          -9.0165   -3.4167   15.9857 C.ar    1  UNL1        0.0014
     23 C         -10.0285   -2.3231   16.1590 C.ar    1  UNL1        0.0206
     24 C         -11.0238   -2.3929   17.2790 C.ar    1  UNL1        0.0989
     25 C         -11.0073   -3.5563   18.2257 C.ar    1  UNL1        0.1511
     26 O         -12.0026   -3.6261   19.3456 O.3     1  UNL1       -0.4678
     27 C         -13.0146   -2.5325   19.5190 C.3     1  UNL1        0.2509
     28 C         -13.0312   -1.3691   18.5722 C.ar    1  UNL1        0.1057
     29 C         -13.9035   -0.1514   18.4937 C.ar    1  UNL1        0.1174
     30 N         -13.4473    0.6709   17.3251 N.ar    1  UNL1       -0.2223
     31 C         -12.2930   -0.0385   16.6815 C.ar    1  UNL1        0.1827
     32 N         -12.0358   -1.2993   17.4523 N.ar    1  UNL1       -0.2852
@<TRIPOS>BOND
     1     7     8    1
     2     8     9   ar
     3     9    10   ar
     4    10    11   ar
     5    11    12   ar
     6    12     1    1
     7     1     2    1
     8     2     3    1
     9     3     4    1
    10     4    18    1
    11    18    19    1
    12    19    20    1
    13    20    21   ar
    14    21    22   ar
    15    22    23   ar
    16    23    24   ar
    17    24    25   ar
    18    25    26    1
    19    26    27    1
    20    27    28    1
    21    28    29   ar
    22    29    30   ar
    23    30    31   ar
    24    31    32   ar
    25     4     5    1
    26     5     6    1
    27    12    13   ar
    28    13    14   ar
    29    14    15   ar
    30    15    16   ar
    31    16    17   ar
    32    17     8   ar
    33    16    11   ar
    34     6     1    1
    35    25    20   ar
    36    32    28   ar
    37    32    24    1
@<TRIPOS>MOLECULE
*****
 32 37 0 0 0
SMALL
GASTEIGER

@<TRIPOS>ATOM
      1 N           8.1971   -5.3605   27.9458 N.pl3   1  UNL1       -0.3046
      2 C           9.2057   -4.3590   28.4252 C.3     1  UNL1        0.1081
      3 C           9.0849   -3.7723   29.8005 C.3     1  UNL1        0.0938
      4 N           7.9555   -4.1873   30.6962 N.3     1  UNL1       -0.2695
      5 C           6.9470   -5.1887   30.2168 C.3     1  UNL1        0.0938
      6 C           7.0678   -5.7754   28.8416 C.3     1  UNL1        0.1081
      7 C           5.7026   -3.2240   21.9073 C.3     1  UNL1        0.0521
      8 C           6.3564   -3.9048   23.0731 C.ar    1  UNL1        0.0593
      9 C           6.2356   -3.3182   24.4484 C.ar    1  UNL1        0.0148
     10 C           6.8895   -3.9990   25.6142 C.ar    1  UNL1        0.0039
     11 C           7.6640   -5.2663   25.4047 C.ar    1  UNL1        0.0310
     12 C           8.3179   -5.9471   26.5706 C.ar    1  UNL1        0.0493
     13 C           9.0924   -7.2144   26.3611 C.ar    1  UNL1        0.0146
     14 C           9.2131   -7.8010   24.9858 C.ar    1  UNL1        0.0028
     15 C           8.5593   -7.1203   23.8200 C.ar    1  UNL1        0.0192
     16 C           7.7848   -5.8529   24.0295 C.ar    1  UNL1        0.0821
     17 N           7.1309   -5.1721   22.8637 N.ar    1  UNL1       -0.2496
     18 C           7.8347   -3.6007   32.0716 C.3     1  UNL1        0.0770
     19 C           7.6571   -2.1211   32.2429 C.3     1  UNL1        0.0468
     20 C           6.2797   -1.5406   32.3677 C.ar    1  UNL1        0.0146
     21 C           5.7326   -1.1915   33.7199 C.ar    1  UNL1       -0.0011
     22 C           4.3551   -0.6109   33.8447 C.ar    1  UNL1        0.0014
     23 C           3.5248   -0.3795   32.6171 C.ar    1  UNL1        0.0206
     24 C           4.0719   -0.7286   31.2648 C.ar    1  UNL1        0.0989
     25 C           5.4493   -1.3092   31.1400 C.ar    1  UNL1        0.1511
     26 O           5.9964   -1.6583   29.7878 O.3     1  UNL1       -0.4678
     27 C           5.1661   -1.4269   28.5601 C.3     1  UNL1        0.2509
     28 C           3.7886   -0.8464   28.6849 C.ar    1  UNL1        0.1057
     29 C           2.7454   -0.5084   27.6614 C.ar    1  UNL1        0.1174
     30 N           1.5536    0.0496   28.3812 N.ar    1  UNL1       -0.2223
     31 C           1.8602    0.0565   29.8495 C.ar    1  UNL1        0.1827
     32 N           3.2415   -0.4972   30.0372 N.ar    1  UNL1       -0.2852
@<TRIPOS>BOND
     1     7     8    1
     2     8     9   ar
     3     9    10   ar
     4    10    11   ar
     5    11    12   ar
     6    12     1    1
     7     1     2    1
     8     2     3    1
     9     3     4    1
    10     4    18    1
    11    18    19    1
    12    19    20    1
    13    20    21   ar
    14    21    22   ar
    15    22    23   ar
    16    23    24   ar
    17    24    25   ar
    18    25    26    1
    19    26    27    1
    20    27    28    1
    21    28    29   ar
    22    29    30   ar
    23    30    31   ar
    24    31    32   ar
    25     4     5    1
    26     5     6    1
    27    12    13   ar
    28    13    14   ar
    29    14    15   ar
    30    15    16   ar
    31    16    17   ar
    32    17     8   ar
    33    16    11   ar
    34     6     1    1
    35    25    20   ar
    36    32    28   ar
    37    32    24    1
@<TRIPOS>MOLECULE
*****
 32 37 0 0 0
SMALL
GASTEIGER

@<TRIPOS>ATOM
      1 N           4.1576   -1.4178   20.2306 N.pl3   1  UNL1       -0.3046
      2 C           3.9715   -2.9062   20.2296 C.3     1  UNL1        0.1081
      3 C           5.1600   -3.8108   20.3683 C.3     1  UNL1        0.0938
      4 N           6.5346   -3.2268   20.5081 N.3     1  UNL1       -0.2695
      5 C           6.7207   -1.7385   20.5091 C.3     1  UNL1        0.0938
      6 C           5.5322   -0.8339   20.3704 C.3     1  UNL1        0.1081
      7 C           0.2482    1.6372   24.9881 C.3     1  UNL1        0.0521
      8 C           0.9285    1.0996   23.7641 C.ar    1  UNL1        0.0593
      9 C           2.1169    0.1950   23.9028 C.ar    1  UNL1        0.0148
     10 C           2.7971   -0.3426   22.6787 C.ar    1  UNL1        0.0039
     11 C           2.2889    0.0244   21.3161 C.ar    1  UNL1        0.0310
     12 C           2.9691   -0.5132   20.0919 C.ar    1  UNL1        0.0493
     13 C           2.4609   -0.1462   18.7292 C.ar    1  UNL1        0.0146
     14 C           1.2724    0.7584   18.5906 C.ar    1  UNL1        0.0028
     15 C           0.5921    1.2960   19.8146 C.ar    1  UNL1        0.0192
     16 C           1.1004    0.9290   21.1774 C.ar    1  UNL1        0.0821
     17 N           0.4202    1.4666   22.4014 N.ar    1  UNL1       -0.2496
     18 C           7.7232   -4.1314   20.6468 C.3     1  UNL1        0.0770
     19 C           8.5964   -4.0412   21.8630 C.3     1  UNL1        0.0468
     20 C           8.4740   -5.0656   22.9518 C.ar    1  UNL1        0.0146
     21 C           8.8868   -6.4848   22.6962 C.ar    1  UNL1       -0.0011
     22 C           8.7644   -7.5092   23.7851 C.ar    1  UNL1        0.0014
     23 C           8.2291   -7.1144   25.1295 C.ar    1  UNL1        0.0206
     24 C           7.8163   -5.6951   25.3852 C.ar    1  UNL1        0.0989
     25 C           7.9387   -4.6707   24.2963 C.ar    1  UNL1        0.1511
     26 O           7.5259   -3.2516   24.5519 O.3     1  UNL1       -0.4678
     27 C           6.9906   -2.8567   25.8964 C.3     1  UNL1        0.2509
     28 C           6.8682   -3.8811   26.9853 C.ar    1  UNL1        0.1057
     29 C           6.3795   -3.7881   28.4004 C.ar    1  UNL1        0.1174
     30 N           6.4903   -5.1500   29.0193 N.ar    1  UNL1       -0.2223
     31 C           7.0475   -6.0846   27.9868 C.ar    1  UNL1        0.1827
     32 N           7.2811   -5.3003   26.7296 N.ar    1  UNL1       -0.2852
@<TRIPOS>BOND
     1     7     8    1
     2     8     9   ar
     3     9    10   ar
     4    10    11   ar
     5    11    12   ar
     6    12     1    1
     7     1     2    1
     8     2     3    1
     9     3     4    1
    10     4    18    1
    11    18    19    1
    12    19    20    1
    13    20    21   ar
    14    21    22   ar
    15    22    23   ar
    16    23    24   ar
    17    24    25   ar
    18    25    26    1
    19    26    27    1
    20    27    28    1
    21    28    29   ar
    22    29    30   ar
    23    30    31   ar
    24    31    32   ar
    25     4     5    1
    26     5     6    1
    27    12    13   ar
    28    13    14   ar
    29    14    15   ar
    30    15    16   ar
    31    16    17   ar
    32    17     8   ar
    33    16    11   ar
    34     6     1    1
    35    25    20   ar
    36    32    28   ar
    37    32    24    1
@<TRIPOS>MOLECULE
*****
 32 37 0 0 0
SMALL
GASTEIGER

@<TRIPOS>ATOM
      1 N           2.3060    0.4457   21.2918 N.pl3   1  UNL1       -0.3046
      2 C           0.8067    0.4422   21.3374 C.3     1  UNL1        0.1081
      3 C           0.0333    1.5392   20.6674 C.3     1  UNL1        0.0938
      4 N           0.7595    2.6395   19.9519 N.3     1  UNL1       -0.2695
      5 C           2.2587    2.6430   19.9063 C.3     1  UNL1        0.0938
      6 C           3.0320    1.5462   20.5762 C.3     1  UNL1        0.1081
      7 C           4.7981   -5.4628   18.8162 C.3     1  UNL1        0.0521
      8 C           4.3684   -4.2599   19.6025 C.ar    1  UNL1        0.0593
      9 C           3.5951   -3.1630   18.9326 C.ar    1  UNL1        0.0148
     10 C           3.1654   -1.9601   19.7191 C.ar    1  UNL1        0.0039
     11 C           3.5090   -1.8541   21.1752 C.ar    1  UNL1        0.0310
     12 C           3.0793   -0.6511   21.9617 C.ar    1  UNL1        0.0493
     13 C           3.4229   -0.5451   23.4179 C.ar    1  UNL1        0.0146
     14 C           4.1963   -1.6421   24.0878 C.ar    1  UNL1        0.0028
     15 C           4.6260   -2.8450   23.3014 C.ar    1  UNL1        0.0192
     16 C           4.2823   -2.9510   21.8451 C.ar    1  UNL1        0.0821
     17 N           4.7120   -4.1539   21.0588 N.ar    1  UNL1       -0.2496
     18 C          -0.0139    3.7365   19.2820 C.3     1  UNL1        0.0770
     19 C          -0.8209    4.6961   20.1053 C.3     1  UNL1        0.0468
     20 C          -2.1161    4.2529   20.7186 C.ar    1  UNL1        0.0146
     21 C          -3.2160    3.7232   19.8472 C.ar    1  UNL1       -0.0011
     22 C          -4.5112    3.2801   20.4605 C.ar    1  UNL1        0.0014
     23 C          -4.7064    3.3666   21.9452 C.ar    1  UNL1        0.0206
     24 C          -3.6064    3.8963   22.8167 C.ar    1  UNL1        0.0989
     25 C          -2.3112    4.3394   22.2034 C.ar    1  UNL1        0.1511
     26 O          -1.2112    4.8691   23.0748 O.3     1  UNL1       -0.4678
     27 C          -1.4063    4.9556   24.5596 C.3     1  UNL1        0.2509
     28 C          -2.7015    4.5125   25.1729 C.ar    1  UNL1        0.1057
     29 C          -3.1799    4.4804   26.5942 C.ar    1  UNL1        0.1174
     30 N          -4.5755    3.9308   26.6011 N.ar    1  UNL1       -0.2223
     31 C          -4.9598    3.6233   25.1841 C.ar    1  UNL1        0.1827
     32 N          -3.8015    3.9828   24.3014 N.ar    1  UNL1       -0.2852
@<TRIPOS>BOND
     1     7     8    1
     2     8     9   ar
     3     9    10   ar
     4    10    11   ar
     5    11    12   ar
     6    12     1    1
     7     1     2    1
     8     2     3    1
     9     3     4    1
    10     4    18    1
    11    18    19    1
    12    19    20    1
    13    20    21   ar
    14    21    22   ar
    15    22    23   ar
    16    23    24   ar
    17    24    25   ar
    18    25    26    1
    19    26    27    1
    20    27    28    1
    21    28    29   ar
    22    29    30   ar
    23    30    31   ar
    24    31    32   ar
    25     4     5    1
    26     5     6    1
    27    12    13   ar
    28    13    14   ar
    29    14    15   ar
    30    15    16   ar
    31    16    17   ar
    32    17     8   ar
    33    16    11   ar
    34     6     1    1
    35    25    20   ar
    36    32    28   ar
    37    32    24    1
@<TRIPOS>MOLECULE
*****
 32 37 0 0 0
SMALL
GASTEIGER

@<TRIPOS>ATOM
      1 N           3.0710    1.7360   20.1704 N.pl3   1  UNL1       -0.3046
      2 C           1.6053    1.8599   19.8765 C.3     1  UNL1        0.1081
      3 C           0.6818    2.4477   20.9021 C.3     1  UNL1        0.0938
      4 N           1.2241    2.9115   22.2215 N.3     1  UNL1       -0.2695
      5 C           2.6898    2.7875   22.5153 C.3     1  UNL1        0.0938
      6 C           3.6132    2.1998   21.4898 C.3     1  UNL1        0.1081
      7 C           4.5606   -4.8069   18.6800 C.3     1  UNL1        0.0521
      8 C           4.4191   -3.3182   18.7962 C.ar    1  UNL1        0.0593
      9 C           3.4956   -2.7304   19.8217 C.ar    1  UNL1        0.0148
     10 C           3.3541   -1.2416   19.9379 C.ar    1  UNL1        0.0039
     11 C           4.1360   -0.3406   19.0287 C.ar    1  UNL1        0.0310
     12 C           3.9945    1.1482   19.1449 C.ar    1  UNL1        0.0493
     13 C           4.7764    2.0492   18.2356 C.ar    1  UNL1        0.0146
     14 C           5.6999    1.4613   17.2101 C.ar    1  UNL1        0.0028
     15 C           5.8415   -0.0275   17.0938 C.ar    1  UNL1        0.0192
     16 C           5.0595   -0.9284   18.0032 C.ar    1  UNL1        0.0821
     17 N           5.2010   -2.4172   17.8869 N.ar    1  UNL1       -0.2496
     18 C           0.3006    3.4993   23.2471 C.3     1  UNL1        0.0770
     19 C          -0.6137    2.6064   24.0324 C.3     1  UNL1        0.0468
     20 C          -1.8674    3.1637   24.6389 C.ar    1  UNL1        0.0146
     21 C          -1.9362    3.4213   26.1149 C.ar    1  UNL1       -0.0011
     22 C          -3.1899    3.9786   26.7213 C.ar    1  UNL1        0.0014
     23 C          -4.3747    4.2783   25.8516 C.ar    1  UNL1        0.0206
     24 C          -4.3058    4.0207   24.3755 C.ar    1  UNL1        0.0989
     25 C          -3.0522    3.4635   23.7691 C.ar    1  UNL1        0.1511
     26 O          -2.9833    3.2059   22.2930 O.3     1  UNL1       -0.4678
     27 C          -4.1681    3.5057   21.4233 C.3     1  UNL1        0.2509
     28 C          -5.4218    4.0629   22.0297 C.ar    1  UNL1        0.1057
     29 C          -6.7394    4.4539   21.4289 C.ar    1  UNL1        0.1174
     30 N          -7.6226    4.9531   22.5338 N.ar    1  UNL1       -0.2223
     31 C          -6.8509    4.8707   23.8174 C.ar    1  UNL1        0.1827
     32 N          -5.4906    4.3205   23.5058 N.ar    1  UNL1       -0.2852
@<TRIPOS>BOND
     1     7     8    1
     2     8     9   ar
     3     9    10   ar
     4    10    11   ar
     5    11    12   ar
     6    12     1    1
     7     1     2    1
     8     2     3    1
     9     3     4    1
    10     4    18    1
    11    18    19    1
    12    19    20    1
    13    20    21   ar
    14    21    22   ar
    15    22    23   ar
    16    23    24   ar
    17    24    25   ar
    18    25    26    1
    19    26    27    1
    20    27    28    1
    21    28    29   ar
    22    29    30   ar
    23    30    31   ar
    24    31    32   ar
    25     4     5    1
    26     5     6    1
    27    12    13   ar
    28    13    14   ar
    29    14    15   ar
    30    15    16   ar
    31    16    17   ar
    32    17     8   ar
    33    16    11   ar
    34     6     1    1
    35    25    20   ar
    36    32    28   ar
    37    32    24    1
