@<TRIPOS>MOLECULE
*****
 22 24 0 0 0
SMALL
GASTEIGER

@<TRIPOS>ATOM
      1 C          -7.6512  -18.4517   22.1621 C.3     1  UNL1        0.1753
      2 O          -8.3221  -19.7040   21.6808 O.3     1  UNL1       -0.3460
      3 C          -9.8113  -19.7367   21.5043 C.3     1  UNL1        0.1685
      4 C         -10.6297  -18.5170   21.8091 C.ar    1  UNL1        0.0067
      5 C         -12.1189  -18.5497   21.6326 C.ar    1  UNL1       -0.0021
      6 C         -12.9371  -17.3300   21.9373 C.ar    1  UNL1       -0.0003
      7 C         -12.2662  -16.0777   22.4186 C.ar    1  UNL1       -0.0002
      8 C         -10.7770  -16.0451   22.5951 C.ar    1  UNL1       -0.0010
      9 C          -9.9587  -17.2647   22.2903 C.ar    1  UNL1        0.0181
     10 C          -8.4695  -17.2321   22.4668 C.3     1  UNL1        0.2161
     11 C          -6.1619  -18.4191   22.3385 C.3     1  UNL1        0.1027
     12 C          -4.9425  -19.9197   20.6034 C.3     1  UNL1        0.0859
     13 N          -5.2622  -18.5585   21.1465 N.3     1  UNL1       -0.2942
     14 H          -5.6956  -18.0329   20.3874 H       1  UNL1        0.1234
     15 O          -7.7985  -15.9798   22.9481 O.3     1  UNL1       -0.4725
     16 C          -7.4793  -15.8120   24.4040 C.ar    1  UNL1        0.1349
     17 C          -8.5641  -15.9516   25.4307 C.ar    1  UNL1        0.0366
     18 C          -8.2448  -15.7838   26.8866 C.ar    1  UNL1        0.0031
     19 C          -6.8409  -15.4764   27.3161 C.ar    1  UNL1       -0.0001
     20 C          -5.7562  -15.3367   26.2895 C.ar    1  UNL1       -0.0013
     21 C          -6.0754  -15.5046   24.8335 C.ar    1  UNL1        0.0121
     22 C          -4.9906  -15.3649   23.8069 C.3     1  UNL1        0.0342
@<TRIPOS>BOND
     1    12    13    1
     2    13    11    1
     3     1    11    1
     4     1     2    1
     5     2     3    1
     6     3     4    1
     7     4     5   ar
     8     5     6   ar
     9     6     7   ar
    10     7     8   ar
    11     8     9   ar
    12     9    10    1
    13    10    15    1
    14    15    16    1
    15    16    17   ar
    16    17    18   ar
    17    18    19   ar
    18    19    20   ar
    19    20    21   ar
    20    21    22    1
    21    10     1    1
    22    21    16   ar
    23     9     4   ar
    24    13    14    1
@<TRIPOS>MOLECULE
*****
 22 24 0 0 0
SMALL
GASTEIGER

@<TRIPOS>ATOM
      1 C          -6.8731  -17.6453   22.7163 C.3     1  UNL1        0.1753
      2 O          -5.5216  -17.0006   22.8043 O.3     1  UNL1       -0.3460
      3 C          -5.1838  -16.1232   23.9730 C.3     1  UNL1        0.1685
      4 C          -6.1975  -15.8905   25.0539 C.ar    1  UNL1        0.0067
      5 C          -5.8598  -15.0131   26.2227 C.ar    1  UNL1       -0.0021
      6 C          -6.8735  -14.7805   27.3035 C.ar    1  UNL1       -0.0003
      7 C          -8.2250  -15.4252   27.2155 C.ar    1  UNL1       -0.0002
      8 C          -8.5628  -16.3026   26.0467 C.ar    1  UNL1       -0.0010
      9 C          -7.5490  -16.5353   24.9659 C.ar    1  UNL1        0.0181
     10 C          -7.8868  -17.4127   23.7971 C.3     1  UNL1        0.2161
     11 C          -7.2108  -18.5228   21.5475 C.3     1  UNL1        0.1027
     12 C          -5.1796  -19.1811   20.0674 C.3     1  UNL1        0.0859
     13 N          -6.4412  -18.3946   20.2664 N.3     1  UNL1       -0.2942
     14 H          -7.0760  -18.6609   19.5137 H       1  UNL1        0.1234
     15 O          -9.2383  -18.0574   23.7092 O.3     1  UNL1       -0.4725
     16 C         -10.3035  -17.4514   22.8444 C.ar    1  UNL1        0.1349
     17 C          -9.9223  -16.5797   21.6847 C.ar    1  UNL1        0.0366
     18 C         -10.9875  -15.9736   20.8199 C.ar    1  UNL1        0.0031
     19 C         -12.4341  -16.2392   21.1148 C.ar    1  UNL1       -0.0001
     20 C         -12.8154  -17.1109   22.2744 C.ar    1  UNL1       -0.0013
     21 C         -11.7501  -17.7170   23.1392 C.ar    1  UNL1        0.0121
     22 C         -12.1314  -18.5886   24.2989 C.3     1  UNL1        0.0342
@<TRIPOS>BOND
     1    12    13    1
     2    13    11    1
     3     1    11    1
     4     1     2    1
     5     2     3    1
     6     3     4    1
     7     4     5   ar
     8     5     6   ar
     9     6     7   ar
    10     7     8   ar
    11     8     9   ar
    12     9    10    1
    13    10    15    1
    14    15    16    1
    15    16    17   ar
    16    17    18   ar
    17    18    19   ar
    18    19    20   ar
    19    20    21   ar
    20    21    22    1
    21    10     1    1
    22    21    16   ar
    23     9     4   ar
    24    13    14    1
@<TRIPOS>MOLECULE
*****
 22 24 0 0 0
SMALL
GASTEIGER

@<TRIPOS>ATOM
      1 C          -6.0194  -18.4512   22.2435 C.3     1  UNL1        0.1753
      2 O          -6.1440  -19.7075   21.4333 O.3     1  UNL1       -0.3460
      3 C          -7.4258  -20.0141   20.7173 C.3     1  UNL1        0.1685
      4 C          -8.5832  -19.0645   20.8114 C.ar    1  UNL1        0.0067
      5 C          -9.8651  -19.3712   20.0953 C.ar    1  UNL1       -0.0021
      6 C         -11.0224  -18.4216   20.1895 C.ar    1  UNL1       -0.0003
      7 C         -10.8978  -17.1654   20.9996 C.ar    1  UNL1       -0.0002
      8 C          -9.6160  -16.8587   21.7156 C.ar    1  UNL1       -0.0010
      9 C          -8.4587  -17.8083   21.6215 C.ar    1  UNL1        0.0181
     10 C          -7.1767  -17.5016   22.3376 C.3     1  UNL1        0.2161
     11 C          -4.7375  -18.1446   22.9595 C.3     1  UNL1        0.1027
     12 C          -2.5233  -16.9702   22.2754 C.3     1  UNL1        0.0859
     13 N          -3.9777  -16.8929   22.6343 N.3     1  UNL1       -0.2942
     14 H          -4.4531  -16.4566   21.8443 H       1  UNL1        0.1234
     15 O          -7.0522  -16.2454   23.1477 O.3     1  UNL1       -0.4725
     16 C          -7.4268  -16.2494   24.6001 C.ar    1  UNL1        0.1349
     17 C          -8.7062  -16.8953   25.0429 C.ar    1  UNL1        0.0366
     18 C          -9.0809  -16.8993   26.4954 C.ar    1  UNL1        0.0031
     19 C          -8.1762  -16.2574   27.5051 C.ar    1  UNL1       -0.0001
     20 C          -6.8969  -15.6115   27.0623 C.ar    1  UNL1       -0.0013
     21 C          -6.5222  -15.6075   25.6098 C.ar    1  UNL1        0.0121
     22 C          -5.2428  -14.9615   25.1671 C.3     1  UNL1        0.0342
@<TRIPOS>BOND
     1    12    13    1
     2    13    11    1
     3     1    11    1
     4     1     2    1
     5     2     3    1
     6     3     4    1
     7     4     5   ar
     8     5     6   ar
     9     6     7   ar
    10     7     8   ar
    11     8     9   ar
    12     9    10    1
    13    10    15    1
    14    15    16    1
    15    16    17   ar
    16    17    18   ar
    17    18    19   ar
    18    19    20   ar
    19    20    21   ar
    20    21    22    1
    21    10     1    1
    22    21    16   ar
    23     9     4   ar
    24    13    14    1
@<TRIPOS>MOLECULE
*****
 22 24 0 0 0
SMALL
GASTEIGER

@<TRIPOS>ATOM
      1 C          -8.5573  -18.0208   21.7080 C.3     1  UNL1        0.1753
      2 O          -8.4126  -19.2839   20.9119 O.3     1  UNL1       -0.3460
      3 C          -7.0763  -19.9575   20.8104 C.3     1  UNL1        0.1685
      4 C          -5.8845  -19.3682   21.5050 C.ar    1  UNL1        0.0067
      5 C          -4.5482  -20.0418   21.4035 C.ar    1  UNL1       -0.0021
      6 C          -3.3565  -19.4524   22.0981 C.ar    1  UNL1       -0.0003
      7 C          -3.5012  -18.1894   22.8942 C.ar    1  UNL1       -0.0002
      8 C          -4.8376  -17.5157   22.9957 C.ar    1  UNL1       -0.0010
      9 C          -6.0292  -18.1051   22.3011 C.ar    1  UNL1        0.0181
     10 C          -7.3656  -17.4314   22.4026 C.3     1  UNL1        0.2161
     11 C          -9.8937  -17.3472   21.8094 C.3     1  UNL1        0.1027
     12 C         -11.2374  -15.9339   20.0928 C.3     1  UNL1        0.0859
     13 N         -10.1335  -16.0464   21.1021 N.3     1  UNL1       -0.2942
     14 H         -10.3215  -15.3495   21.8229 H       1  UNL1        0.1234
     15 O          -7.5103  -16.1684   23.1986 O.3     1  UNL1       -0.4725
     16 C          -7.6835  -16.2356   24.6871 C.ar    1  UNL1        0.1349
     17 C          -8.8567  -16.9634   25.2735 C.ar    1  UNL1        0.0366
     18 C          -9.0299  -17.0307   26.7620 C.ar    1  UNL1        0.0031
     19 C          -8.0298  -16.3702   27.6640 C.ar    1  UNL1       -0.0001
     20 C          -6.8566  -15.6425   27.0776 C.ar    1  UNL1       -0.0013
     21 C          -6.6834  -15.5752   25.5891 C.ar    1  UNL1        0.0121
     22 C          -5.5102  -14.8474   25.0027 C.3     1  UNL1        0.0342
@<TRIPOS>BOND
     1    12    13    1
     2    13    11    1
     3     1    11    1
     4     1     2    1
     5     2     3    1
     6     3     4    1
     7     4     5   ar
     8     5     6   ar
     9     6     7   ar
    10     7     8   ar
    11     8     9   ar
    12     9    10    1
    13    10    15    1
    14    15    16    1
    15    16    17   ar
    16    17    18   ar
    17    18    19   ar
    18    19    20   ar
    19    20    21   ar
    20    21    22    1
    21    10     1    1
    22    21    16   ar
    23     9     4   ar
    24    13    14    1
@<TRIPOS>MOLECULE
*****
 22 24 0 0 0
SMALL
GASTEIGER

@<TRIPOS>ATOM
      1 C          -7.4802  -18.6754   22.2081 C.3     1  UNL1        0.1753
      2 O          -7.0763  -20.0532   21.7738 O.3     1  UNL1       -0.3460
      3 C          -5.6234  -20.4089   21.6628 C.3     1  UNL1        0.1685
      4 C          -4.5742  -19.3868   21.9862 C.ar    1  UNL1        0.0067
      5 C          -3.1212  -19.7425   21.8752 C.ar    1  UNL1       -0.0021
      6 C          -2.0721  -18.7204   22.1985 C.ar    1  UNL1       -0.0003
      7 C          -2.4759  -17.3426   22.6328 C.ar    1  UNL1       -0.0002
      8 C          -3.9289  -16.9869   22.7437 C.ar    1  UNL1       -0.0010
      9 C          -4.9780  -18.0090   22.4204 C.ar    1  UNL1        0.0181
     10 C          -6.4311  -17.6533   22.5314 C.3     1  UNL1        0.2161
     11 C          -8.9332  -18.3198   22.3190 C.3     1  UNL1        0.1027
     12 C         -11.3589  -18.9980   22.9558 C.3     1  UNL1        0.0859
     13 N          -9.9422  -19.3806   22.6452 N.3     1  UNL1       -0.2942
     14 H          -9.9764  -20.0109   21.8440 H       1  UNL1        0.1234
     15 O          -6.8349  -16.2755   22.9656 O.3     1  UNL1       -0.4725
     16 C          -6.9193  -15.9441   24.4261 C.ar    1  UNL1        0.1349
     17 C          -5.6655  -15.7141   25.2167 C.ar    1  UNL1        0.0366
     18 C          -5.7500  -15.3826   26.6772 C.ar    1  UNL1        0.0031
     19 C          -7.0882  -15.2812   27.3471 C.ar    1  UNL1       -0.0001
     20 C          -8.3420  -15.5112   26.5565 C.ar    1  UNL1       -0.0013
     21 C          -8.2576  -15.8426   25.0960 C.ar    1  UNL1        0.0121
     22 C          -9.5114  -16.0726   24.3054 C.3     1  UNL1        0.0342
@<TRIPOS>BOND
     1    12    13    1
     2    13    11    1
     3     1    11    1
     4     1     2    1
     5     2     3    1
     6     3     4    1
     7     4     5   ar
     8     5     6   ar
     9     6     7   ar
    10     7     8   ar
    11     8     9   ar
    12     9    10    1
    13    10    15    1
    14    15    16    1
    15    16    17   ar
    16    17    18   ar
    17    18    19   ar
    18    19    20   ar
    19    20    21   ar
    20    21    22    1
    21    10     1    1
    22    21    16   ar
    23     9     4   ar
    24    13    14    1
@<TRIPOS>MOLECULE
*****
 22 24 0 0 0
SMALL
GASTEIGER

@<TRIPOS>ATOM
      1 C          -8.0659  -19.0812   20.2124 C.3     1  UNL1        0.1753
      2 O          -9.1706  -19.0121   19.2000 O.3     1  UNL1       -0.3460
      3 C         -10.5808  -18.7606   19.6448 C.3     1  UNL1        0.1685
      4 C         -10.8864  -18.5782   21.1020 C.ar    1  UNL1        0.0067
      5 C         -12.2967  -18.3267   21.5468 C.ar    1  UNL1       -0.0021
      6 C         -12.6022  -18.1443   23.0040 C.ar    1  UNL1       -0.0003
      7 C         -11.4975  -18.2134   24.0163 C.ar    1  UNL1       -0.0002
      8 C         -10.0873  -18.4649   23.5715 C.ar    1  UNL1       -0.0010
      9 C          -9.7817  -18.6473   22.1144 C.ar    1  UNL1        0.0181
     10 C          -8.3714  -18.8988   21.6695 C.3     1  UNL1        0.2161
     11 C          -6.6556  -19.3327   19.7675 C.3     1  UNL1        0.1027
     12 C          -4.4841  -20.7551   19.8713 C.3     1  UNL1        0.0859
     13 N          -5.9087  -20.5276   20.2817 N.3     1  UNL1       -0.2942
     14 H          -5.9153  -20.4633   21.2996 H       1  UNL1        0.1234
     15 O          -7.2667  -18.9679   22.6819 O.3     1  UNL1       -0.4725
     16 C          -6.5386  -17.7196   23.0838 C.ar    1  UNL1        0.1349
     17 C          -7.3089  -16.4767   23.4184 C.ar    1  UNL1        0.0366
     18 C          -6.5808  -15.2284   23.8203 C.ar    1  UNL1        0.0031
     19 C          -5.0823  -15.2230   23.8876 C.ar    1  UNL1       -0.0001
     20 C          -4.3119  -16.4658   23.5530 C.ar    1  UNL1       -0.0013
     21 C          -5.0401  -17.7141   23.1511 C.ar    1  UNL1        0.0121
     22 C          -4.2698  -18.9569   22.8165 C.3     1  UNL1        0.0342
@<TRIPOS>BOND
     1    12    13    1
     2    13    11    1
     3     1    11    1
     4     1     2    1
     5     2     3    1
     6     3     4    1
     7     4     5   ar
     8     5     6   ar
     9     6     7   ar
    10     7     8   ar
    11     8     9   ar
    12     9    10    1
    13    10    15    1
    14    15    16    1
    15    16    17   ar
    16    17    18   ar
    17    18    19   ar
    18    19    20   ar
    19    20    21   ar
    20    21    22    1
    21    10     1    1
    22    21    16   ar
    23     9     4   ar
    24    13    14    1
@<TRIPOS>MOLECULE
*****
 22 24 0 0 0
SMALL
GASTEIGER

@<TRIPOS>ATOM
      1 C         -10.1278   -5.4806   18.2170 C.3     1  UNL1        0.1753
      2 O          -9.2393   -5.1212   17.0631 O.3     1  UNL1       -0.3460
      3 C          -9.2800   -3.7364   16.4881 C.3     1  UNL1        0.1685
      4 C         -10.2091   -2.7109   17.0670 C.ar    1  UNL1        0.0067
      5 C         -10.2498   -1.3261   16.4921 C.ar    1  UNL1       -0.0021
      6 C         -11.1789   -0.3007   17.0710 C.ar    1  UNL1       -0.0003
      7 C         -12.0674   -0.6601   18.2249 C.ar    1  UNL1       -0.0002
      8 C         -12.0267   -2.0449   18.7998 C.ar    1  UNL1       -0.0010
      9 C         -11.0976   -3.0703   18.2209 C.ar    1  UNL1        0.0181
     10 C         -11.0569   -4.4552   18.7959 C.3     1  UNL1        0.2161
     11 C         -10.0871   -6.8655   18.7919 C.3     1  UNL1        0.1027
     12 C         -11.3025   -7.9282   16.7564 C.3     1  UNL1        0.0859
     13 N         -10.3547   -8.0508   17.9125 N.3     1  UNL1       -0.2942
     14 H          -9.4559   -8.3403   17.5270 H       1  UNL1        0.1234
     15 O         -11.9454   -4.8146   19.9498 O.3     1  UNL1       -0.4725
     16 C         -13.3908   -5.1369   19.7114 C.ar    1  UNL1        0.1349
     17 C         -13.7664   -6.2851   18.8221 C.ar    1  UNL1        0.0366
     18 C         -15.2118   -6.6075   18.5838 C.ar    1  UNL1        0.0031
     19 C         -16.2817   -5.7818   19.2346 C.ar    1  UNL1       -0.0001
     20 C         -15.9061   -4.6336   20.1238 C.ar    1  UNL1       -0.0013
     21 C         -14.4607   -4.3112   20.3622 C.ar    1  UNL1        0.0121
     22 C         -14.0851   -3.1631   21.2514 C.3     1  UNL1        0.0342
@<TRIPOS>BOND
     1    12    13    1
     2    13    11    1
     3     1    11    1
     4     1     2    1
     5     2     3    1
     6     3     4    1
     7     4     5   ar
     8     5     6   ar
     9     6     7   ar
    10     7     8   ar
    11     8     9   ar
    12     9    10    1
    13    10    15    1
    14    15    16    1
    15    16    17   ar
    16    17    18   ar
    17    18    19   ar
    18    19    20   ar
    19    20    21   ar
    20    21    22    1
    21    10     1    1
    22    21    16   ar
    23     9     4   ar
    24    13    14    1
@<TRIPOS>MOLECULE
*****
 22 24 0 0 0
SMALL
GASTEIGER

@<TRIPOS>ATOM
      1 C         -13.6299   -7.9278   17.8336 C.3     1  UNL1        0.1753
      2 O         -12.7137   -8.3691   16.7309 O.3     1  UNL1       -0.3460
      3 C         -11.4869   -7.5681   16.4094 C.3     1  UNL1        0.1685
      4 C         -11.1763   -6.3257   17.1905 C.ar    1  UNL1        0.0067
      5 C          -9.9495   -5.5247   16.8690 C.ar    1  UNL1       -0.0021
      6 C          -9.6389   -4.2825   17.6501 C.ar    1  UNL1       -0.0003
      7 C         -10.5551   -3.8411   18.7528 C.ar    1  UNL1       -0.0002
      8 C         -11.7819   -4.6421   19.0743 C.ar    1  UNL1       -0.0010
      9 C         -12.0925   -5.8844   18.2932 C.ar    1  UNL1        0.0181
     10 C         -13.3193   -6.6855   18.6147 C.3     1  UNL1        0.2161
     11 C         -14.8567   -8.7288   18.1551 C.3     1  UNL1        0.1027
     12 C         -16.5959   -9.0146   20.0637 C.3     1  UNL1        0.0859
     13 N         -15.1772   -9.0705   19.5800 N.3     1  UNL1       -0.2942
     14 H         -14.8507  -10.0244   19.7347 H       1  UNL1        0.1234
     15 O         -14.2355   -6.2442   19.7173 O.3     1  UNL1       -0.4725
     16 C         -15.3248   -5.2523   19.4355 C.ar    1  UNL1        0.1349
     17 C         -16.4198   -5.5952   18.4694 C.ar    1  UNL1        0.0366
     18 C         -17.5092   -4.6034   18.1875 C.ar    1  UNL1        0.0031
     19 C         -17.5036   -3.2686   18.8718 C.ar    1  UNL1       -0.0001
     20 C         -16.4086   -2.9256   19.8380 C.ar    1  UNL1       -0.0013
     21 C         -15.3192   -3.9175   20.1198 C.ar    1  UNL1        0.0121
     22 C         -14.2243   -3.5746   21.0859 C.3     1  UNL1        0.0342
@<TRIPOS>BOND
     1    12    13    1
     2    13    11    1
     3     1    11    1
     4     1     2    1
     5     2     3    1
     6     3     4    1
     7     4     5   ar
     8     5     6   ar
     9     6     7   ar
    10     7     8   ar
    11     8     9   ar
    12     9    10    1
    13    10    15    1
    14    15    16    1
    15    16    17   ar
    16    17    18   ar
    17    18    19   ar
    18    19    20   ar
    19    20    21   ar
    20    21    22    1
    21    10     1    1
    22    21    16   ar
    23     9     4   ar
    24    13    14    1
@<TRIPOS>MOLECULE
*****
 22 24 0 0 0
SMALL
GASTEIGER

@<TRIPOS>ATOM
      1 C         -15.0127   -8.1392   18.6626 C.3     1  UNL1        0.1753
      2 O         -15.4368   -9.4154   19.3270 O.3     1  UNL1       -0.3460
      3 C         -16.8166   -9.5388   19.9024 C.3     1  UNL1        0.1685
      4 C         -17.7722   -8.3861   19.8133 C.ar    1  UNL1        0.0067
      5 C         -19.1519   -8.5095   20.3887 C.ar    1  UNL1       -0.0021
      6 C         -20.1075   -7.3567   20.2996 C.ar    1  UNL1       -0.0003
      7 C         -19.6834   -6.0805   19.6352 C.ar    1  UNL1       -0.0002
      8 C         -18.3037   -5.9571   19.0599 C.ar    1  UNL1       -0.0010
      9 C         -17.3481   -7.1099   19.1489 C.ar    1  UNL1        0.0181
     10 C         -15.9683   -6.9865   18.5736 C.3     1  UNL1        0.2161
     11 C         -13.6329   -8.0158   18.0872 C.3     1  UNL1        0.1027
     12 C         -11.2229   -7.0993   18.4064 C.3     1  UNL1        0.0859
     13 N         -12.4728   -7.6958   18.9826 N.3     1  UNL1       -0.2942
     14 H         -12.8151   -7.0404   19.6852 H       1  UNL1        0.1234
     15 O         -15.5441   -5.7103   17.9091 O.3     1  UNL1       -0.4725
     16 C         -14.6506   -4.7482   18.6343 C.ar    1  UNL1        0.1349
     17 C         -14.9392   -4.3863   20.0612 C.ar    1  UNL1        0.0366
     18 C         -14.0457   -3.4242   20.7863 C.ar    1  UNL1        0.0031
     19 C         -12.8635   -2.8239   20.0847 C.ar    1  UNL1       -0.0001
     20 C         -12.5749   -3.1857   18.6579 C.ar    1  UNL1       -0.0013
     21 C         -13.4685   -4.1479   17.9327 C.ar    1  UNL1        0.0121
     22 C         -13.1799   -4.5097   16.5059 C.3     1  UNL1        0.0342
@<TRIPOS>BOND
     1    12    13    1
     2    13    11    1
     3     1    11    1
     4     1     2    1
     5     2     3    1
     6     3     4    1
     7     4     5   ar
     8     5     6   ar
     9     6     7   ar
    10     7     8   ar
    11     8     9   ar
    12     9    10    1
    13    10    15    1
    14    15    16    1
    15    16    17   ar
    16    17    18   ar
    17    18    19   ar
    18    19    20   ar
    19    20    21   ar
    20    21    22    1
    21    10     1    1
    22    21    16   ar
    23     9     4   ar
    24    13    14    1
