@<TRIPOS>MOLECULE
*****
 31 34 0 0 0
SMALL
GASTEIGER

@<TRIPOS>ATOM
      1 C           7.0076   -1.9610   18.3866 C.ar    1  UNL1        0.1518
      2 C           8.3411   -1.9988   19.0723 C.ar    1  UNL1        0.0396
      3 C           8.5012   -2.7509   20.3602 C.ar    1  UNL1        0.0236
      4 C           7.3277   -3.4653   20.9623 C.ar    1  UNL1        0.1291
      5 C           5.9942   -3.4275   20.2766 C.ar    1  UNL1        0.0378
      6 C           5.8341   -2.6755   18.9888 C.ar    1  UNL1        0.0804
      7 S           7.4878   -4.2175   22.2503 S.O2    1  UNL1        0.0872
      8 O           6.0111   -4.4782   22.2817 O.2     1  UNL1       -0.1475
      9 O           8.9647   -3.9567   22.2188 O.2     1  UNL1       -0.1475
     10 N           7.6481   -4.9696   23.5382 N.ar    1  UNL1       -0.1909
     11 C           8.2059   -6.3540   23.6872 C.ar    1  UNL1        0.0973
     12 C           8.1812   -6.7093   25.1443 C.ar    1  UNL1        0.0001
     13 C           8.6477   -8.0024   25.7445 C.3     1  UNL1        0.0328
     14 C           7.6081   -5.5445   25.8958 C.ar    1  UNL1        0.0341
     15 C           7.3437   -5.3240   27.3557 C.ar    1  UNL1        0.0157
     16 C           6.7498   -4.0283   27.8230 C.ar    1  UNL1        0.0769
     17 CL          6.4854   -3.8077   29.2830 Cl      1  UNL1       -0.0806
     18 C           6.4203   -2.9530   26.8304 C.ar    1  UNL1        0.1119
     19 N           6.6847   -3.1735   25.3704 N.ar    1  UNL1       -0.2243
     20 C           7.2786   -4.4692   24.9032 C.ar    1  UNL1        0.1635
     21 C           6.8073    0.2906   17.1059 C.3     1  UNL1        0.2525
     22 O           6.8474   -1.2089   17.0987 O.3     1  UNL1       -0.4702
     23 N           4.5005   -2.6377   18.3031 N.pl3   1  UNL1       -0.3316
     24 H           4.2897   -3.2940   17.6001 H       1  UNL1        0.1469
     25 C           3.4882   -1.6000   18.6883 C.3     1  UNL1        0.0719
     26 C           2.6723   -1.7746   19.9350 C.3     1  UNL1        0.0368
     27 C           1.6600   -0.7369   20.3202 C.3     1  UNL1        0.0738
     28 N           1.4636    0.4753   19.4589 N.3     1  UNL1       -0.2714
     29 C           0.4512    1.5131   19.8441 C.3     1  UNL1        0.0896
     30 C           2.2794    0.6499   18.2123 C.3     1  UNL1        0.0738
     31 C           3.2917   -0.3878   17.8270 C.3     1  UNL1        0.0368
@<TRIPOS>BOND
     1    21    22    1
     2    22     1    1
     3     1     2   ar
     4     2     3   ar
     5     3     4   ar
     6     4     7    1
     7     7     8    2
     8     7     9    2
     9     7    10    1
    10    10    11   ar
    11    11    12   ar
    12    12    13    1
    13    12    14   ar
    14    14    15   ar
    15    15    16   ar
    16    16    17    1
    17    16    18   ar
    18    18    19   ar
    19    19    20   ar
    20     4     5   ar
    21     5     6   ar
    22     6    23    1
    23    23    25    1
    24    25    26    1
    25    26    27    1
    26    27    28    1
    27    28    29    1
    28    28    30    1
    29    30    31    1
    30     6     1   ar
    31    31    25    1
    32    20    10   ar
    33    20    14   ar
    34    23    24    1
@<TRIPOS>MOLECULE
*****
 31 34 0 0 0
SMALL
GASTEIGER

@<TRIPOS>ATOM
      1 C           7.6691   -7.4817   25.9705 C.ar    1  UNL1        0.1518
      2 C           8.4837   -7.7156   24.7329 C.ar    1  UNL1        0.0396
      3 C           8.5397   -6.6663   23.6624 C.ar    1  UNL1        0.0236
      4 C           7.7812   -5.3831   23.8296 C.ar    1  UNL1        0.1291
      5 C           6.9666   -5.1492   25.0672 C.ar    1  UNL1        0.0378
      6 C           6.9105   -6.1984   26.1376 C.ar    1  UNL1        0.0804
      7 S           7.8373   -4.3338   22.7591 S.O2    1  UNL1        0.0872
      8 O           7.5202   -3.2786   23.7767 O.2     1  UNL1       -0.1475
      9 O           8.1545   -5.3892   21.7414 O.2     1  UNL1       -0.1475
     10 N           7.8935   -3.2847   21.6885 N.ar    1  UNL1       -0.1909
     11 C           9.0423   -2.3578   21.4218 C.ar    1  UNL1        0.0973
     12 C           8.6694   -1.4785   20.2652 C.ar    1  UNL1        0.0001
     13 C           9.5255   -0.4043   19.6625 C.3     1  UNL1        0.0328
     14 C           7.2902   -1.8619   19.8171 C.ar    1  UNL1        0.0341
     15 C           6.4091   -1.3388   18.7216 C.ar    1  UNL1        0.0157
     16 C           5.0485   -1.9321   18.5059 C.ar    1  UNL1        0.0769
     17 CL          4.1673   -1.4090   17.4105 Cl      1  UNL1       -0.0806
     18 C           4.5689   -3.0484   19.3856 C.ar    1  UNL1        0.1119
     19 N           5.4500   -3.5715   20.4810 N.ar    1  UNL1       -0.2243
     20 C           6.8107   -2.9782   20.6967 C.ar    1  UNL1        0.1635
     21 C           8.8823   -9.0579   27.6419 C.3     1  UNL1        0.2525
     22 O           7.6129   -8.5309   27.0409 O.3     1  UNL1       -0.4702
     23 N           6.0959   -5.9645   27.3752 N.pl3   1  UNL1       -0.3316
     24 H           5.1617   -6.2726   27.4151 H       1  UNL1        0.1469
     25 C           6.7047   -5.2612   28.5519 C.3     1  UNL1        0.0719
     26 C           6.4832   -3.7899   28.7432 C.3     1  UNL1        0.0368
     27 C           7.0920   -3.0866   29.9200 C.3     1  UNL1        0.0738
     28 N           7.9222   -3.8545   30.9054 N.3     1  UNL1       -0.2714
     29 C           8.5310   -3.1512   32.0822 C.3     1  UNL1        0.0896
     30 C           8.1437   -5.3256   30.7141 C.3     1  UNL1        0.0738
     31 C           7.5349   -6.0290   29.5374 C.3     1  UNL1        0.0368
@<TRIPOS>BOND
     1    21    22    1
     2    22     1    1
     3     1     2   ar
     4     2     3   ar
     5     3     4   ar
     6     4     7    1
     7     7     8    2
     8     7     9    2
     9     7    10    1
    10    10    11   ar
    11    11    12   ar
    12    12    13    1
    13    12    14   ar
    14    14    15   ar
    15    15    16   ar
    16    16    17    1
    17    16    18   ar
    18    18    19   ar
    19    19    20   ar
    20     4     5   ar
    21     5     6   ar
    22     6    23    1
    23    23    25    1
    24    25    26    1
    25    26    27    1
    26    27    28    1
    27    28    29    1
    28    28    30    1
    29    30    31    1
    30     6     1   ar
    31    31    25    1
    32    20    10   ar
    33    20    14   ar
    34    23    24    1
@<TRIPOS>MOLECULE
*****
 31 34 0 0 0
SMALL
GASTEIGER

@<TRIPOS>ATOM
      1 C           3.9909   -0.9946   18.2436 C.ar    1  UNL1        0.1518
      2 C           3.7177    0.4470   17.9320 C.ar    1  UNL1        0.0396
      3 C           2.7317    1.2190   18.7578 C.ar    1  UNL1        0.0236
      4 C           2.0189    0.5493   19.8951 C.ar    1  UNL1        0.1291
      5 C           2.2921   -0.8923   20.2066 C.ar    1  UNL1        0.0378
      6 C           3.2780   -1.6642   19.3809 C.ar    1  UNL1        0.0804
      7 S           1.0329    1.3214   20.7208 S.O2    1  UNL1        0.0872
      8 O           0.0660    0.1779   20.6357 O.2     1  UNL1       -0.1475
      9 O           1.9999    2.4650   20.8060 O.2     1  UNL1       -0.1475
     10 N           0.0470    2.0935   21.5466 N.ar    1  UNL1       -0.1909
     11 C          -0.9697    3.0655   21.0254 C.ar    1  UNL1        0.0973
     12 C          -1.7403    3.6019   22.1952 C.ar    1  UNL1        0.0001
     13 C          -2.8556    4.6029   22.1320 C.3     1  UNL1        0.0328
     14 C          -1.1998    2.9615   23.4393 C.ar    1  UNL1        0.0341
     15 C          -1.5709    3.1068   24.8854 C.ar    1  UNL1        0.0157
     16 C          -0.8372    2.3199   25.9306 C.ar    1  UNL1        0.0769
     17 CL         -1.2082    2.4652   27.3768 Cl      1  UNL1       -0.0806
     18 C           0.2675    1.3877   25.5297 C.ar    1  UNL1        0.1119
     19 N           0.6385    1.2424   24.0836 N.ar    1  UNL1       -0.2243
     20 C          -0.0952    2.0293   23.0384 C.ar    1  UNL1        0.1635
     21 C           6.4472   -1.6249   17.6786 C.3     1  UNL1        0.2525
     22 O           4.9768   -1.7667   17.4179 O.3     1  UNL1       -0.4702
     23 N           3.5512   -3.1059   19.6925 N.pl3   1  UNL1       -0.3316
     24 H           3.0193   -3.8123   19.2598 H       1  UNL1        0.1469
     25 C           4.6348   -3.4711   20.6632 C.3     1  UNL1        0.0719
     26 C           4.3941   -3.3444   22.1385 C.3     1  UNL1        0.0368
     27 C           5.4778   -3.7096   23.1092 C.3     1  UNL1        0.0738
     28 N           6.8020   -4.2015   22.6048 N.3     1  UNL1       -0.2714
     29 C           7.8857   -4.5667   23.5755 C.3     1  UNL1        0.0896
     30 C           7.0427   -4.3282   21.1296 C.3     1  UNL1        0.0738
     31 C           5.9591   -3.9630   20.1589 C.3     1  UNL1        0.0368
@<TRIPOS>BOND
     1    21    22    1
     2    22     1    1
     3     1     2   ar
     4     2     3   ar
     5     3     4   ar
     6     4     7    1
     7     7     8    2
     8     7     9    2
     9     7    10    1
    10    10    11   ar
    11    11    12   ar
    12    12    13    1
    13    12    14   ar
    14    14    15   ar
    15    15    16   ar
    16    16    17    1
    17    16    18   ar
    18    18    19   ar
    19    19    20   ar
    20     4     5   ar
    21     5     6   ar
    22     6    23    1
    23    23    25    1
    24    25    26    1
    25    26    27    1
    26    27    28    1
    27    28    29    1
    28    28    30    1
    29    30    31    1
    30     6     1   ar
    31    31    25    1
    32    20    10   ar
    33    20    14   ar
    34    23    24    1
@<TRIPOS>MOLECULE
*****
 31 34 0 0 0
SMALL
GASTEIGER

@<TRIPOS>ATOM
      1 C          -1.8109    4.0755   18.2258 C.ar    1  UNL1        0.1518
      2 C          -0.5350    3.5534   17.6347 C.ar    1  UNL1        0.0396
      3 C           0.3561    2.6592   18.4449 C.ar    1  UNL1        0.0236
      4 C          -0.0286    2.2872   19.8461 C.ar    1  UNL1        0.1291
      5 C          -1.3045    2.8094   20.4372 C.ar    1  UNL1        0.0378
      6 C          -2.1956    3.7035   19.6271 C.ar    1  UNL1        0.0804
      7 S           0.8626    1.3930   20.6562 S.O2    1  UNL1        0.0872
      8 O           1.9785    2.3866   20.5255 O.2     1  UNL1       -0.1475
      9 O          -0.2535    0.3993   20.7870 O.2     1  UNL1       -0.1475
     10 N           1.7537    0.4988   21.4663 N.ar    1  UNL1       -0.1909
     11 C           1.9916    0.5957   22.9442 C.ar    1  UNL1        0.0973
     12 C           2.9483   -0.4926   23.3320 C.ar    1  UNL1        0.0001
     13 C           3.4616   -0.7637   24.7151 C.3     1  UNL1        0.0328
     14 C           3.3016   -1.2621   22.0938 C.ar    1  UNL1        0.0341
     15 C           4.2002   -2.4416   21.8674 C.ar    1  UNL1        0.0157
     16 C           4.3605   -3.0084   20.4879 C.ar    1  UNL1        0.0769
     17 CL          5.2591   -4.1879   20.2614 Cl      1  UNL1       -0.0806
     18 C           3.6221   -2.3957   19.3349 C.ar    1  UNL1        0.1119
     19 N           2.7235   -1.2162   19.5613 N.ar    1  UNL1       -0.2243
     20 C           2.5633   -0.6494   20.9408 C.ar    1  UNL1        0.1635
     21 C          -3.7897    4.3772   16.5695 C.3     1  UNL1        0.2525
     22 O          -2.7020    4.9697   17.4157 O.3     1  UNL1       -0.4702
     23 N          -3.4715    4.2257   20.2182 N.pl3   1  UNL1       -0.3316
     24 H          -4.1673    4.6026   19.6325 H       1  UNL1        0.1469
     25 C          -3.6872    4.1737   21.7017 C.3     1  UNL1        0.0719
     26 C          -3.0078    5.1701   22.5938 C.3     1  UNL1        0.0368
     27 C          -3.2236    5.1180   24.0774 C.3     1  UNL1        0.0738
     28 N          -4.1187    4.0696   24.6687 N.3     1  UNL1       -0.2714
     29 C          -4.3344    4.0176   26.1522 C.3     1  UNL1        0.0896
     30 C          -4.7980    3.0733   23.7766 C.3     1  UNL1        0.0738
     31 C          -4.5823    3.1253   22.2931 C.3     1  UNL1        0.0368
@<TRIPOS>BOND
     1    21    22    1
     2    22     1    1
     3     1     2   ar
     4     2     3   ar
     5     3     4   ar
     6     4     7    1
     7     7     8    2
     8     7     9    2
     9     7    10    1
    10    10    11   ar
    11    11    12   ar
    12    12    13    1
    13    12    14   ar
    14    14    15   ar
    15    15    16   ar
    16    16    17    1
    17    16    18   ar
    18    18    19   ar
    19    19    20   ar
    20     4     5   ar
    21     5     6   ar
    22     6    23    1
    23    23    25    1
    24    25    26    1
    25    26    27    1
    26    27    28    1
    27    28    29    1
    28    28    30    1
    29    30    31    1
    30     6     1   ar
    31    31    25    1
    32    20    10   ar
    33    20    14   ar
    34    23    24    1
@<TRIPOS>MOLECULE
*****
 31 34 0 0 0
SMALL
GASTEIGER

@<TRIPOS>ATOM
      1 C           3.8073   -0.4498   18.3028 C.ar    1  UNL1        0.1518
      2 C           3.5481    1.0187   18.1400 C.ar    1  UNL1        0.0396
      3 C           2.5747    1.7134   19.0454 C.ar    1  UNL1        0.0236
      4 C           1.8604    0.9397   20.1137 C.ar    1  UNL1        0.1291
      5 C           2.1196   -0.5287   20.2765 C.ar    1  UNL1        0.0378
      6 C           3.0929   -1.2234   19.3711 C.ar    1  UNL1        0.0804
      7 S           0.8870    1.6345   21.0191 S.O2    1  UNL1        0.0872
      8 O          -0.0330    0.4527   20.9371 O.2     1  UNL1       -0.1475
      9 O           1.8070    2.8164   21.1011 O.2     1  UNL1       -0.1475
     10 N          -0.0863    2.3294   21.9245 N.ar    1  UNL1       -0.1909
     11 C           0.0407    2.4721   23.4122 C.ar    1  UNL1        0.0973
     12 C          -1.1521    3.2345   23.9082 C.ar    1  UNL1        0.0001
     13 C          -1.4317    3.6036   25.3350 C.3     1  UNL1        0.0328
     14 C          -2.0163    3.5631   22.7270 C.ar    1  UNL1        0.0341
     15 C          -3.3178    4.2993   22.6095 C.ar    1  UNL1        0.0157
     16 C          -3.9607    4.4762   21.2658 C.ar    1  UNL1        0.0769
     17 CL         -5.2623    5.2125   21.1482 Cl      1  UNL1       -0.0806
     18 C          -3.3020    3.9169   20.0398 C.ar    1  UNL1        0.1119
     19 N          -2.0004    3.1806   20.1573 N.ar    1  UNL1       -0.2243
     20 C          -1.3576    3.0037   21.5009 C.ar    1  UNL1        0.1635
     21 C           6.2443   -0.8279   17.4855 C.3     1  UNL1        0.2525
     22 O           4.7806   -1.1446   17.3975 O.3     1  UNL1       -0.4702
     23 N           3.3521   -2.6919   19.5340 N.pl3   1  UNL1       -0.3316
     24 H           2.8040   -3.3459   19.0429 H       1  UNL1        0.1469
     25 C           4.4462   -3.1638   20.4450 C.3     1  UNL1        0.0719
     26 C           4.2245   -3.1987   21.9282 C.3     1  UNL1        0.0368
     27 C           5.3187   -3.6707   22.8393 C.3     1  UNL1        0.0738
     28 N           6.6346   -4.1078   22.2672 N.3     1  UNL1       -0.2714
     29 C           7.7288   -4.5798   23.1782 C.3     1  UNL1        0.0896
     30 C           6.8563   -4.0729   20.7841 C.3     1  UNL1        0.0738
     31 C           5.7622   -3.6010   19.8730 C.3     1  UNL1        0.0368
@<TRIPOS>BOND
     1    21    22    1
     2    22     1    1
     3     1     2   ar
     4     2     3   ar
     5     3     4   ar
     6     4     7    1
     7     7     8    2
     8     7     9    2
     9     7    10    1
    10    10    11   ar
    11    11    12   ar
    12    12    13    1
    13    12    14   ar
    14    14    15   ar
    15    15    16   ar
    16    16    17    1
    17    16    18   ar
    18    18    19   ar
    19    19    20   ar
    20     4     5   ar
    21     5     6   ar
    22     6    23    1
    23    23    25    1
    24    25    26    1
    25    26    27    1
    26    27    28    1
    27    28    29    1
    28    28    30    1
    29    30    31    1
    30     6     1   ar
    31    31    25    1
    32    20    10   ar
    33    20    14   ar
    34    23    24    1
@<TRIPOS>MOLECULE
*****
 31 34 0 0 0
SMALL
GASTEIGER

@<TRIPOS>ATOM
      1 C           3.0184   -0.7272   28.5633 C.ar    1  UNL1        0.1518
      2 C           1.6002   -0.2796   28.7588 C.ar    1  UNL1        0.0396
      3 C           1.2638    0.6903   29.8525 C.ar    1  UNL1        0.0236
      4 C           2.3457    1.2127   30.7506 C.ar    1  UNL1        0.1291
      5 C           3.7639    0.7651   30.5551 C.ar    1  UNL1        0.0378
      6 C           4.1003   -0.2048   29.4615 C.ar    1  UNL1        0.0804
      7 S           2.0092    2.1826   31.8443 S.O2    1  UNL1        0.0872
      8 O           0.5979    1.6749   31.8605 O.2     1  UNL1       -0.1475
      9 O           3.4206    2.6904   31.8280 O.2     1  UNL1       -0.1475
     10 N           1.6728    3.1526   32.9379 N.ar    1  UNL1       -0.1909
     11 C           0.8717    4.4114   32.7843 C.ar    1  UNL1        0.0973
     12 C           0.7823    5.0708   34.1286 C.ar    1  UNL1        0.0001
     13 C           0.0718    6.3559   34.4348 C.3     1  UNL1        0.0328
     14 C           1.5282    4.2195   35.1130 C.ar    1  UNL1        0.0341
     15 C           1.7773    4.3708   36.5844 C.ar    1  UNL1        0.0157
     16 C           2.5768    3.3364   37.3199 C.ar    1  UNL1        0.0769
     17 CL          2.8259    3.4876   38.7914 Cl      1  UNL1       -0.0806
     18 C           3.1271    2.1509   36.5840 C.ar    1  UNL1        0.1119
     19 N           2.8780    1.9997   35.1126 N.ar    1  UNL1       -0.2243
     20 C           2.0786    3.0340   34.3771 C.ar    1  UNL1        0.1635
     21 C           3.8148   -1.1917   26.1343 C.3     1  UNL1        0.2525
     22 O           3.3549   -1.6971   27.4697 O.3     1  UNL1       -0.4702
     23 N           5.5185   -0.6523   29.2660 N.pl3   1  UNL1       -0.3316
     24 H           6.1543   -0.0764   28.7830 H       1  UNL1        0.1469
     25 C           5.9680   -1.9774   29.8064 C.3     1  UNL1        0.0719
     26 C           6.0043   -2.2100   31.2879 C.3     1  UNL1        0.0368
     27 C           6.4539   -3.5352   31.8282 C.3     1  UNL1        0.0738
     28 N           6.8671   -4.6276   30.8871 N.3     1  UNL1       -0.2714
     29 C           7.3166   -5.9528   31.4275 C.3     1  UNL1        0.0896
     30 C           6.8308   -4.3951   29.4057 C.3     1  UNL1        0.0738
     31 C           6.3813   -3.0700   28.8653 C.3     1  UNL1        0.0368
@<TRIPOS>BOND
     1    21    22    1
     2    22     1    1
     3     1     2   ar
     4     2     3   ar
     5     3     4   ar
     6     4     7    1
     7     7     8    2
     8     7     9    2
     9     7    10    1
    10    10    11   ar
    11    11    12   ar
    12    12    13    1
    13    12    14   ar
    14    14    15   ar
    15    15    16   ar
    16    16    17    1
    17    16    18   ar
    18    18    19   ar
    19    19    20   ar
    20     4     5   ar
    21     5     6   ar
    22     6    23    1
    23    23    25    1
    24    25    26    1
    25    26    27    1
    26    27    28    1
    27    28    29    1
    28    28    30    1
    29    30    31    1
    30     6     1   ar
    31    31    25    1
    32    20    10   ar
    33    20    14   ar
    34    23    24    1
@<TRIPOS>MOLECULE
*****
 31 34 0 0 0
SMALL
GASTEIGER

@<TRIPOS>ATOM
      1 C          -1.9903    4.0257   22.9641 C.ar    1  UNL1        0.1518
      2 C          -2.2811    3.6118   21.5520 C.ar    1  UNL1        0.0396
      3 C          -1.3130    2.7366   20.8125 C.ar    1  UNL1        0.0236
      4 C          -0.0542    2.2752   21.4852 C.ar    1  UNL1        0.1291
      5 C           0.2366    2.6891   22.8974 C.ar    1  UNL1        0.0378
      6 C          -0.7314    3.5643   23.6368 C.ar    1  UNL1        0.0804
      7 S           0.9139    1.4000   20.7457 S.O2    1  UNL1        0.0872
      8 O          -0.1615    0.3720   20.5544 O.2     1  UNL1       -0.1475
      9 O           1.9894    2.4280   20.9370 O.2     1  UNL1       -0.1475
     10 N           1.8820    0.5248   20.0062 N.ar    1  UNL1       -0.1909
     11 C           2.1390    0.5465   18.5285 C.ar    1  UNL1        0.0973
     12 C           3.1789   -0.4906   18.2237 C.ar    1  UNL1        0.0001
     13 C           3.7354   -0.8091   16.8676 C.3     1  UNL1        0.0328
     14 C           3.5646   -1.1533   19.5129 C.ar    1  UNL1        0.0341
     15 C           4.5422   -2.2470   19.8260 C.ar    1  UNL1        0.0157
     16 C           4.7181   -2.7132   21.2407 C.ar    1  UNL1        0.0769
     17 CL          5.6957   -3.8071   21.5539 Cl      1  UNL1       -0.0806
     18 C           3.9166   -2.0857   22.3424 C.ar    1  UNL1        0.1119
     19 N           2.9391   -0.9919   22.0293 N.ar    1  UNL1       -0.2243
     20 C           2.7631   -0.5257   20.6146 C.ar    1  UNL1        0.1635
     21 C          -4.0194    4.2839   24.5660 C.3     1  UNL1        0.2525
     22 O          -2.9583    4.9009   23.7037 O.3     1  UNL1       -0.4702
     23 N          -0.4407    3.9781   25.0490 N.pl3   1  UNL1       -0.3316
     24 H          -0.4923    4.9276   25.3042 H       1  UNL1        0.1469
     25 C          -0.0714    2.9454   26.0722 C.3     1  UNL1        0.0719
     26 C          -1.1433    2.1437   26.7494 C.3     1  UNL1        0.0368
     27 C          -0.7739    1.1109   27.7727 C.3     1  UNL1        0.0738
     28 N           0.6672    0.8800   28.1188 N.3     1  UNL1       -0.2714
     29 C           1.0366   -0.1528   29.1421 C.3     1  UNL1        0.0896
     30 C           1.7390    1.6817   27.4417 C.3     1  UNL1        0.0738
     31 C           1.3697    2.7144   26.4184 C.3     1  UNL1        0.0368
@<TRIPOS>BOND
     1    21    22    1
     2    22     1    1
     3     1     2   ar
     4     2     3   ar
     5     3     4   ar
     6     4     7    1
     7     7     8    2
     8     7     9    2
     9     7    10    1
    10    10    11   ar
    11    11    12   ar
    12    12    13    1
    13    12    14   ar
    14    14    15   ar
    15    15    16   ar
    16    16    17    1
    17    16    18   ar
    18    18    19   ar
    19    19    20   ar
    20     4     5   ar
    21     5     6   ar
    22     6    23    1
    23    23    25    1
    24    25    26    1
    25    26    27    1
    26    27    28    1
    27    28    29    1
    28    28    30    1
    29    30    31    1
    30     6     1   ar
    31    31    25    1
    32    20    10   ar
    33    20    14   ar
    34    23    24    1
@<TRIPOS>MOLECULE
*****
 31 34 0 0 0
SMALL
GASTEIGER

@<TRIPOS>ATOM
      1 C           3.2871    2.5611   18.6233 C.ar    1  UNL1        0.1518
      2 C           2.9386    3.8470   19.3125 C.ar    1  UNL1        0.0396
      3 C           1.5556    4.0566   19.8544 C.ar    1  UNL1        0.0236
      4 C           0.5213    2.9803   19.7070 C.ar    1  UNL1        0.1291
      5 C           0.8698    1.6944   19.0178 C.ar    1  UNL1        0.0378
      6 C           2.2527    1.4848   18.4760 C.ar    1  UNL1        0.0804
      7 S          -0.8616    3.1900   20.2489 S.O2    1  UNL1        0.0872
      8 O          -0.8595    4.5908   19.7126 O.2     1  UNL1       -0.1475
      9 O          -0.8638    1.7892   20.7853 O.2     1  UNL1       -0.1475
     10 N          -2.2445    3.3996   20.7908 N.ar    1  UNL1       -0.1909
     11 C          -3.4997    3.5265   19.9793 C.ar    1  UNL1        0.0973
     12 C          -4.6459    3.7244   20.9264 C.ar    1  UNL1        0.0001
     13 C          -6.0860    3.8967   20.5438 C.3     1  UNL1        0.0328
     14 C          -4.0992    3.7199   22.3232 C.ar    1  UNL1        0.0341
     15 C          -4.7611    3.8727   23.6606 C.ar    1  UNL1        0.0157
     16 C          -3.9388    3.8247   24.9141 C.ar    1  UNL1        0.0769
     17 CL         -4.6006    3.9775   26.2516 Cl      1  UNL1       -0.0806
     18 C          -2.4546    3.6240   24.8304 C.ar    1  UNL1        0.1119
     19 N          -1.7928    3.4712   23.4930 N.ar    1  UNL1       -0.2243
     20 C          -2.6151    3.5192   22.2394 C.ar    1  UNL1        0.1635
     21 C           5.7908    1.9837   19.0081 C.3     1  UNL1        0.2525
     22 O           4.6700    2.3513   18.0814 O.3     1  UNL1       -0.4702
     23 N           2.6012    0.1989   17.7868 N.pl3   1  UNL1       -0.3316
     24 H           2.2583    0.0166   16.8821 H       1  UNL1        0.1469
     25 C           3.4722   -0.8092   18.4760 C.3     1  UNL1        0.0719
     26 C           4.5359   -1.5333   17.7050 C.3     1  UNL1        0.0368
     27 C           5.4068   -2.5415   18.3943 C.3     1  UNL1        0.0738
     28 N           5.2141   -2.8256   19.8545 N.3     1  UNL1       -0.2714
     29 C           6.0850   -3.8338   20.5438 C.3     1  UNL1        0.0896
     30 C           4.1504   -2.1015   20.6254 C.3     1  UNL1        0.0738
     31 C           3.2795   -1.0934   19.9362 C.3     1  UNL1        0.0368
@<TRIPOS>BOND
     1    21    22    1
     2    22     1    1
     3     1     2   ar
     4     2     3   ar
     5     3     4   ar
     6     4     7    1
     7     7     8    2
     8     7     9    2
     9     7    10    1
    10    10    11   ar
    11    11    12   ar
    12    12    13    1
    13    12    14   ar
    14    14    15   ar
    15    15    16   ar
    16    16    17    1
    17    16    18   ar
    18    18    19   ar
    19    19    20   ar
    20     4     5   ar
    21     5     6   ar
    22     6    23    1
    23    23    25    1
    24    25    26    1
    25    26    27    1
    26    27    28    1
    27    28    29    1
    28    28    30    1
    29    30    31    1
    30     6     1   ar
    31    31    25    1
    32    20    10   ar
    33    20    14   ar
    34    23    24    1
@<TRIPOS>MOLECULE
*****
 31 34 0 0 0
SMALL
GASTEIGER

@<TRIPOS>ATOM
      1 C           2.7267   -0.5277   28.8503 C.ar    1  UNL1        0.1518
      2 C           3.7983   -0.2622   29.8657 C.ar    1  UNL1        0.0396
      3 C           3.5452    0.6986   30.9895 C.ar    1  UNL1        0.0236
      4 C           2.2206    1.3940   31.0978 C.ar    1  UNL1        0.1291
      5 C           1.1489    1.1285   30.0823 C.ar    1  UNL1        0.0378
      6 C           1.4020    0.1677   28.9587 C.ar    1  UNL1        0.0804
      7 S           1.9676    2.3548   32.2216 S.O2    1  UNL1        0.0872
      8 O           0.5205    1.9604   32.2331 O.2     1  UNL1       -0.1475
      9 O           3.4148    2.7492   32.2100 O.2     1  UNL1       -0.1475
     10 N           1.7147    3.3156   33.3453 N.ar    1  UNL1       -0.1909
     11 C           1.0687    4.6640   33.2240 C.ar    1  UNL1        0.0973
     12 C           1.0182    5.2784   34.5914 C.ar    1  UNL1        0.0001
     13 C           0.4523    6.6250   34.9325 C.3     1  UNL1        0.0328
     14 C           1.6330    4.3099   35.5579 C.ar    1  UNL1        0.0341
     15 C           1.8564    4.3758   37.0396 C.ar    1  UNL1        0.0157
     16 C           2.5103    3.2287   37.7513 C.ar    1  UNL1        0.0769
     17 CL          2.7337    3.2946   39.2331 Cl      1  UNL1       -0.0806
     18 C           2.9407    2.0156   36.9811 C.ar    1  UNL1        0.1119
     19 N           2.7173    1.9497   35.4994 N.ar    1  UNL1       -0.2243
     20 C           2.0634    3.0968   34.7877 C.ar    1  UNL1        0.1635
     21 C           3.9192   -1.1157   26.6182 C.3     1  UNL1        0.2525
     22 O           2.9796   -1.4885   27.7266 O.3     1  UNL1       -0.4702
     23 N           0.3304   -0.0978   27.9432 N.pl3   1  UNL1       -0.3316
     24 H          -0.0731   -0.9933   27.8759 H       1  UNL1        0.1469
     25 C          -0.1266    1.0012   27.0303 C.3     1  UNL1        0.0719
     26 C           0.4876    1.1501   25.6698 C.3     1  UNL1        0.0368
     27 C           0.0306    2.2491   24.7568 C.3     1  UNL1        0.0738
     28 N          -1.0405    3.1991   25.2043 N.3     1  UNL1       -0.2714
     29 C          -1.4975    4.2981   24.2914 C.3     1  UNL1        0.0896
     30 C          -1.6546    3.0501   26.5647 C.3     1  UNL1        0.0738
     31 C          -1.1977    1.9512   27.4776 C.3     1  UNL1        0.0368
@<TRIPOS>BOND
     1    21    22    1
     2    22     1    1
     3     1     2   ar
     4     2     3   ar
     5     3     4   ar
     6     4     7    1
     7     7     8    2
     8     7     9    2
     9     7    10    1
    10    10    11   ar
    11    11    12   ar
    12    12    13    1
    13    12    14   ar
    14    14    15   ar
    15    15    16   ar
    16    16    17    1
    17    16    18   ar
    18    18    19   ar
    19    19    20   ar
    20     4     5   ar
    21     5     6   ar
    22     6    23    1
    23    23    25    1
    24    25    26    1
    25    26    27    1
    26    27    28    1
    27    28    29    1
    28    28    30    1
    29    30    31    1
    30     6     1   ar
    31    31    25    1
    32    20    10   ar
    33    20    14   ar
    34    23    24    1
