@<TRIPOS>MOLECULE
*****
 14 15 0 0 0
SMALL
GASTEIGER

@<TRIPOS>ATOM
      1 C          -6.7373  -15.6711   24.0925 C.ar    1  UNL1        0.0479
      2 C          -7.5424  -15.3638   25.3204 C.ar    1  UNL1        0.0085
      3 C          -8.9722  -15.7183   25.0379 C.ar    1  UNL1        0.0071
      4 C          -9.0509  -16.2447   23.6354 C.ar    1  UNL1        0.0310
      5 S          -7.6696  -16.2155   23.0512 S.2     1  UNL1       -0.0853
      6 C         -10.2928  -16.7173   22.9394 C.ar    1  UNL1        0.0252
      7 C         -11.1928  -17.7149   23.6063 C.ar    1  UNL1        0.0036
      8 C         -12.4347  -18.1874   22.9103 C.ar    1  UNL1        0.0207
      9 C         -12.7765  -17.6624   21.5474 C.ar    1  UNL1        0.0989
     10 N         -11.8765  -16.6648   20.8805 N.ar    1  UNL1       -0.2423
     11 C         -10.6346  -16.1923   21.5765 C.ar    1  UNL1        0.0993
     12 N          -4.7385  -14.5361   22.8815 N.2     1  UNL1       -0.2964
     13 C          -5.2594  -15.4694   23.9339 C.2     1  UNL1        0.0951
     14 H          -3.7685  -14.4037   22.7774 H       1  UNL1        0.1868
@<TRIPOS>BOND
     1    12    13    2
     2    13     1    1
     3     1     2   ar
     4     2     3   ar
     5     3     4   ar
     6     4     6    1
     7     6     7   ar
     8     7     8   ar
     9     8     9   ar
    10     9    10   ar
    11    10    11   ar
    12     4     5   ar
    13     5     1   ar
    14    11     6   ar
    15    12    14    1
@<TRIPOS>MOLECULE
*****
 14 15 0 0 0
SMALL
GASTEIGER

@<TRIPOS>ATOM
      1 C         -11.5926  -17.6030   22.7913 C.ar    1  UNL1        0.0479
      2 C         -11.5170  -18.7108   23.7997 C.ar    1  UNL1        0.0085
      3 C         -10.3563  -18.4323   24.7081 C.ar    1  UNL1        0.0071
      4 C          -9.7145  -17.1523   24.2611 C.ar    1  UNL1        0.0310
      5 S         -10.4786  -16.6398   23.0764 S.2     1  UNL1       -0.0853
      6 C          -8.5186  -16.4994   24.8886 C.ar    1  UNL1        0.0252
      7 C          -8.4663  -16.3002   26.3743 C.ar    1  UNL1        0.0036
      8 C          -7.2704  -15.6474   27.0017 C.ar    1  UNL1        0.0207
      9 C          -6.1269  -15.1938   26.1434 C.ar    1  UNL1        0.0989
     10 N          -6.1793  -15.3930   24.6577 N.ar    1  UNL1       -0.2423
     11 C          -7.3752  -16.0458   24.0302 C.ar    1  UNL1        0.0993
     12 N         -12.2142  -16.8687   20.3779 N.2     1  UNL1       -0.2964
     13 C         -12.6045  -17.4800   21.6908 C.2     1  UNL1        0.0951
     14 H         -12.8784  -16.7879   19.6556 H       1  UNL1        0.1868
@<TRIPOS>BOND
     1    12    13    2
     2    13     1    1
     3     1     2   ar
     4     2     3   ar
     5     3     4   ar
     6     4     6    1
     7     6     7   ar
     8     7     8   ar
     9     8     9   ar
    10     9    10   ar
    11    10    11   ar
    12     4     5   ar
    13     5     1   ar
    14    11     6   ar
    15    12    14    1
@<TRIPOS>MOLECULE
*****
 14 15 0 0 0
SMALL
GASTEIGER

@<TRIPOS>ATOM
      1 C          -7.4505  -19.4210   20.3103 C.ar    1  UNL1        0.0479
      2 C          -8.3813  -19.7512   19.1813 C.ar    1  UNL1        0.0085
      3 C          -9.7853  -19.5161   19.6542 C.ar    1  UNL1        0.0071
      4 C          -9.7222  -19.0405   21.0754 C.ar    1  UNL1        0.0310
      5 S          -8.2792  -18.9817   21.4809 S.2     1  UNL1       -0.0853
      6 C         -10.8960  -18.6859   21.9394 C.ar    1  UNL1        0.0252
      7 C         -12.1060  -18.0398   21.3325 C.ar    1  UNL1        0.0036
      8 C         -13.2798  -17.6853   22.1965 C.ar    1  UNL1        0.0207
      9 C         -13.2435  -17.9768   23.6675 C.ar    1  UNL1        0.0989
     10 N         -12.0335  -18.6229   24.2744 N.ar    1  UNL1       -0.2423
     11 C         -10.8597  -18.9774   23.4104 C.ar    1  UNL1        0.0993
     12 N          -5.1552  -18.4760   19.5433 N.2     1  UNL1       -0.2964
     13 C          -5.9538  -19.5137   20.2749 C.2     1  UNL1        0.0951
     14 H          -4.1728  -18.5369   19.5200 H       1  UNL1        0.1868
@<TRIPOS>BOND
     1    12    13    2
     2    13     1    1
     3     1     2   ar
     4     2     3   ar
     5     3     4   ar
     6     4     6    1
     7     6     7   ar
     8     7     8   ar
     9     8     9   ar
    10     9    10   ar
    11    10    11   ar
    12     4     5   ar
    13     5     1   ar
    14    11     6   ar
    15    12    14    1
@<TRIPOS>MOLECULE
*****
 14 15 0 0 0
SMALL
GASTEIGER

@<TRIPOS>ATOM
      1 C          -3.6437  -19.7342   21.1859 C.ar    1  UNL1        0.0479
      2 C          -4.4260  -20.4990   20.1597 C.ar    1  UNL1        0.0085
      3 C          -5.8844  -20.3238   20.4634 C.ar    1  UNL1        0.0071
      4 C          -6.0035  -19.4508   21.6774 C.ar    1  UNL1        0.0310
      5 S          -4.6186  -19.0864   22.1239 S.2     1  UNL1       -0.0853
      6 C          -7.2829  -19.0182   22.3302 C.ar    1  UNL1        0.0252
      7 C          -8.3132  -20.0395   22.7112 C.ar    1  UNL1        0.0036
      8 C          -9.5925  -19.6068   23.3639 C.ar    1  UNL1        0.0207
      9 C          -9.8414  -18.1528   23.6357 C.ar    1  UNL1        0.0989
     10 N          -8.8111  -17.1315   23.2547 N.ar    1  UNL1       -0.2423
     11 C          -7.5318  -17.5641   22.6020 C.ar    1  UNL1        0.0993
     12 N          -1.5091  -18.6124   22.1529 N.2     1  UNL1       -0.2964
     13 C          -2.1488  -19.6347   21.2610 C.2     1  UNL1        0.0951
     14 H          -0.5280  -18.5471   22.2022 H       1  UNL1        0.1868
@<TRIPOS>BOND
     1    12    13    2
     2    13     1    1
     3     1     2   ar
     4     2     3   ar
     5     3     4   ar
     6     4     6    1
     7     6     7   ar
     8     7     8   ar
     9     8     9   ar
    10     9    10   ar
    11    10    11   ar
    12     4     5   ar
    13     5     1   ar
    14    11     6   ar
    15    12    14    1
@<TRIPOS>MOLECULE
*****
 14 15 0 0 0
SMALL
GASTEIGER

@<TRIPOS>ATOM
      1 C          -9.1879  -17.8064   22.7867 C.ar    1  UNL1        0.0479
      2 C          -9.4340  -19.2646   23.0381 C.ar    1  UNL1        0.0085
      3 C          -8.1848  -20.0138   22.6801 C.ar    1  UNL1        0.0071
      4 C          -7.1668  -19.0187   22.2074 C.ar    1  UNL1        0.0310
      5 S          -7.7868  -17.6545   22.2733 S.2     1  UNL1       -0.0853
      6 C          -5.7734  -19.3328   21.7492 C.ar    1  UNL1        0.0252
      7 C          -5.5576  -20.1410   20.5041 C.ar    1  UNL1        0.0036
      8 C          -4.1642  -20.4550   20.0460 C.ar    1  UNL1        0.0207
      9 C          -2.9867  -19.9609   20.8330 C.ar    1  UNL1        0.0989
     10 N          -3.2025  -19.1528   22.0781 N.ar    1  UNL1       -0.2423
     11 C          -4.5959  -18.8387   22.5362 C.ar    1  UNL1        0.0993
     12 N         -10.4928  -15.7441   21.8953 N.2     1  UNL1       -0.2964
     13 C         -10.1706  -16.6952   23.0096 C.2     1  UNL1        0.0951
     14 H         -11.1378  -15.0148   22.0416 H       1  UNL1        0.1868
@<TRIPOS>BOND
     1    12    13    2
     2    13     1    1
     3     1     2   ar
     4     2     3   ar
     5     3     4   ar
     6     4     6    1
     7     6     7   ar
     8     7     8   ar
     9     8     9   ar
    10     9    10   ar
    11    10    11   ar
    12     4     5   ar
    13     5     1   ar
    14    11     6   ar
    15    12    14    1
@<TRIPOS>MOLECULE
*****
 14 15 0 0 0
SMALL
GASTEIGER

@<TRIPOS>ATOM
      1 C         -12.3111  -18.4151   23.7125 C.ar    1  UNL1        0.0479
      2 C         -11.4998  -19.0658   24.7934 C.ar    1  UNL1        0.0085
      3 C         -10.1524  -19.3992   24.2246 C.ar    1  UNL1        0.0071
      4 C         -10.1311  -18.9545   22.7922 C.ar    1  UNL1        0.0310
      5 S         -11.4652  -18.3463   22.4757 S.2     1  UNL1       -0.0853
      6 C          -8.9779  -19.0936   21.8429 C.ar    1  UNL1        0.0252
      7 C          -7.5814  -19.2272   22.3737 C.ar    1  UNL1        0.0036
      8 C          -6.4284  -19.3663   21.4245 C.ar    1  UNL1        0.0207
      9 C          -6.6719  -19.3718   19.9444 C.ar    1  UNL1        0.0989
     10 N          -8.0684  -19.2382   19.4135 N.ar    1  UNL1       -0.2423
     11 C          -9.2214  -19.0991   20.3628 C.ar    1  UNL1        0.0993
     12 N         -14.5891  -18.4192   24.9617 N.2     1  UNL1       -0.2964
     13 C         -13.7209  -17.9200   23.8451 C.2     1  UNL1        0.0951
     14 H         -15.5144  -18.0943   25.0488 H       1  UNL1        0.1868
@<TRIPOS>BOND
     1    12    13    2
     2    13     1    1
     3     1     2   ar
     4     2     3   ar
     5     3     4   ar
     6     4     6    1
     7     6     7   ar
     8     7     8   ar
     9     8     9   ar
    10     9    10   ar
    11    10    11   ar
    12     4     5   ar
    13     5     1   ar
    14    11     6   ar
    15    12    14    1
@<TRIPOS>MOLECULE
*****
 14 15 0 0 0
SMALL
GASTEIGER

@<TRIPOS>ATOM
      1 C          -9.3981  -18.9461   23.1372 C.ar    1  UNL1        0.0479
      2 C          -9.0496  -17.5011   22.9358 C.ar    1  UNL1        0.0085
      3 C          -7.6510  -17.4323   22.3980 C.ar    1  UNL1        0.0071
      4 C          -7.1352  -18.8348   22.2671 C.ar    1  UNL1        0.0310
      5 S          -8.2150  -19.7703   22.7239 S.2     1  UNL1       -0.0853
      6 C          -5.7778  -19.2319   21.7671 C.ar    1  UNL1        0.0252
      7 C          -5.6497  -20.0637   20.5255 C.ar    1  UNL1        0.0036
      8 C          -4.2924  -20.4607   20.0255 C.ar    1  UNL1        0.0207
      9 C          -3.0632  -20.0260   20.7672 C.ar    1  UNL1        0.0989
     10 N          -3.1913  -19.1943   22.0088 N.ar    1  UNL1       -0.2423
     11 C          -4.5486  -18.7972   22.5088 C.ar    1  UNL1        0.0993
     12 N         -10.8330  -19.8462   25.1072 N.2     1  UNL1       -0.2964
     13 C         -10.7011  -19.4742   23.6601 C.2     1  UNL1        0.0951
     14 H         -11.6882  -20.1928   25.4504 H       1  UNL1        0.1868
@<TRIPOS>BOND
     1    12    13    2
     2    13     1    1
     3     1     2   ar
     4     2     3   ar
     5     3     4   ar
     6     4     6    1
     7     6     7   ar
     8     7     8   ar
     9     8     9   ar
    10     9    10   ar
    11    10    11   ar
    12     4     5   ar
    13     5     1   ar
    14    11     6   ar
    15    12    14    1
@<TRIPOS>MOLECULE
*****
 14 15 0 0 0
SMALL
GASTEIGER

@<TRIPOS>ATOM
      1 C          -3.7861  -19.1571   21.6897 C.ar    1  UNL1        0.0479
      2 C          -3.7310  -20.1546   20.5708 C.ar    1  UNL1        0.0085
      3 C          -5.1373  -20.4378   20.1326 C.ar    1  UNL1        0.0071
      4 C          -6.0616  -19.6153   20.9807 C.ar    1  UNL1        0.0310
      5 S          -5.2265  -18.8238   21.9431 S.2     1  UNL1       -0.0853
      6 C          -7.5583  -19.5890   20.8836 C.ar    1  UNL1        0.0252
      7 C          -8.2242  -19.6676   19.5418 C.ar    1  UNL1        0.0036
      8 C          -9.7208  -19.6413   19.4447 C.ar    1  UNL1        0.0207
      9 C         -10.5514  -19.5363   20.6893 C.ar    1  UNL1        0.0989
     10 N          -9.8855  -19.4576   22.0310 N.ar    1  UNL1       -0.2423
     11 C          -8.3889  -19.4840   22.1282 C.ar    1  UNL1        0.0993
     12 N          -1.2431  -18.6372   21.8047 N.2     1  UNL1       -0.2964
     13 C          -2.6077  -18.5921   22.4260 C.2     1  UNL1        0.0951
     14 H          -0.4697  -18.2664   22.2880 H       1  UNL1        0.1868
@<TRIPOS>BOND
     1    12    13    2
     2    13     1    1
     3     1     2   ar
     4     2     3   ar
     5     3     4   ar
     6     4     6    1
     7     6     7   ar
     8     7     8   ar
     9     8     9   ar
    10     9    10   ar
    11    10    11   ar
    12     4     5   ar
    13     5     1   ar
    14    11     6   ar
    15    12    14    1
@<TRIPOS>MOLECULE
*****
 14 15 0 0 0
SMALL
GASTEIGER

@<TRIPOS>ATOM
      1 C         -11.2624  -18.2576   21.8333 C.ar    1  UNL1        0.0479
      2 C         -11.1916  -19.6024   22.4941 C.ar    1  UNL1        0.0085
      3 C          -9.7508  -19.8997   22.7871 C.ar    1  UNL1        0.0071
      4 C          -8.9312  -18.7386   22.3074 C.ar    1  UNL1        0.0310
      5 S          -9.8653  -17.7238   21.7179 S.2     1  UNL1       -0.0853
      6 C          -7.4392  -18.6142   22.4008 C.ar    1  UNL1        0.0252
      7 C          -6.5640  -19.7625   21.9941 C.ar    1  UNL1        0.0036
      8 C          -5.0721  -19.6380   22.0875 C.ar    1  UNL1        0.0207
      9 C          -4.4554  -18.3654   22.5875 C.ar    1  UNL1        0.0989
     10 N          -5.3307  -17.2171   22.9942 N.ar    1  UNL1       -0.2423
     11 C          -6.8226  -17.3415   22.9008 C.ar    1  UNL1        0.0993
     12 N         -12.4486  -16.5848   20.2382 N.2     1  UNL1       -0.2964
     13 C         -12.5110  -17.5678   21.3694 C.2     1  UNL1        0.0951
     14 H         -13.2681  -16.1320   19.9337 H       1  UNL1        0.1868
@<TRIPOS>BOND
     1    12    13    2
     2    13     1    1
     3     1     2   ar
     4     2     3   ar
     5     3     4   ar
     6     4     6    1
     7     6     7   ar
     8     7     8   ar
     9     8     9   ar
    10     9    10   ar
    11    10    11   ar
    12     4     5   ar
    13     5     1   ar
    14    11     6   ar
    15    12    14    1
