@<TRIPOS>MOLECULE
*****
 25 28 0 0 0
SMALL
GASTEIGER

@<TRIPOS>ATOM
      1 C         -18.5154   -4.2716   19.9375 C.ar    1  UNL1        0.2228
      2 N         -19.4411   -5.4459   20.0564 N.ar    1  UNL1       -0.1240
      3 N         -18.6886   -6.6737   19.6365 N.ar    1  UNL1       -0.1315
      4 C         -17.2978   -6.2582   19.2581 C.ar    1  UNL1        0.1616
      5 N         -17.1908   -4.7736   19.4441 N.ar    1  UNL1       -0.2918
      6 C         -15.9010   -4.0707   19.1403 C.3     1  UNL1        0.1303
      7 C         -14.7182   -4.8524   18.6503 C.3     1  UNL1        0.1186
      8 N         -14.8252   -6.3370   18.4642 N.am    1  UNL1       -0.2688
      9 C         -13.6425   -7.1186   17.9743 C.2     1  UNL1        0.2494
     10 O         -13.7495   -8.6032   17.7882 O.2     1  UNL1       -0.2699
     11 C         -16.1151   -7.0399   18.7681 C.3     1  UNL1        0.1343
     12 C         -16.2221   -8.5244   18.5821 C.3     1  UNL1        0.0298
     13 C         -12.3527   -6.4158   17.6704 C.ar    1  UNL1        0.0537
     14 C         -12.0865   -5.9019   16.2866 C.ar    1  UNL1        0.0068
     15 C         -10.7967   -5.1990   15.9827 C.ar    1  UNL1        0.0298
     16 C          -9.7731   -5.0099   17.0627 C.ar    1  UNL1        0.1401
     17 F          -8.4832   -4.3070   16.7589 F       1  UNL1       -0.2042
     18 C         -10.0393   -5.5238   18.4466 C.ar    1  UNL1        0.0298
     19 C         -11.3290   -6.2267   18.7505 C.ar    1  UNL1        0.0068
     20 C         -18.8009    0.9956   19.7018 C.3     1  UNL1        0.0773
     21 C         -18.9859   -0.4246   20.1477 C.ar    1  UNL1        0.1813
     22 N         -19.7677   -0.8780   21.3449 N.ar    1  UNL1       -0.0601
     23 O         -19.6866   -2.3744   21.4119 O.2     1  UNL1       -0.3295
     24 C         -18.8547   -2.8457   20.2561 C.ar    1  UNL1        0.2958
     25 N         -18.4216   -1.6407   19.4748 N.ar    1  UNL1       -0.1885
@<TRIPOS>BOND
     1    20    21    1
     2    21    22   ar
     3    22    23   ar
     4    23    24   ar
     5    24     1    1
     6     1     2   ar
     7     2     3   ar
     8     3     4   ar
     9     4     5   ar
    10     5     6    1
    11     6     7    1
    12     7     8    1
    13     8     9   am
    14     9    10    2
    15     9    13    1
    16    13    14   ar
    17    14    15   ar
    18    15    16   ar
    19    16    17    1
    20    16    18   ar
    21    18    19   ar
    22     8    11    1
    23    11    12    1
    24    24    25   ar
    25    25    21   ar
    26     5     1   ar
    27    19    13   ar
    28    11     4    1
@<TRIPOS>MOLECULE
*****
 25 28 0 0 0
SMALL
GASTEIGER

@<TRIPOS>ATOM
      1 C           6.6360   -4.1340   23.2068 C.ar    1  UNL1        0.2228
      2 N           7.5214   -4.9603   22.3217 N.ar    1  UNL1       -0.1240
      3 N           7.1787   -4.6422   20.8964 N.ar    1  UNL1       -0.1315
      4 C           6.0816   -3.6193   20.9006 C.ar    1  UNL1        0.1616
      5 N           5.7462   -3.3052   22.3285 N.ar    1  UNL1       -0.2918
      6 C           4.6738   -2.3052   22.6445 C.3     1  UNL1        0.1303
      7 C           3.9368   -1.6191   21.5326 C.3     1  UNL1        0.1186
      8 N           4.2722   -1.9332   20.1048 N.am    1  UNL1       -0.2688
      9 C           3.5353   -1.2472   18.9929 C.2     1  UNL1        0.2494
     10 O           3.8707   -1.5612   17.5650 O.2     1  UNL1       -0.2699
     11 C           5.3447   -2.9333   19.7888 C.3     1  UNL1        0.1343
     12 C           5.6801   -3.2474   18.3609 C.3     1  UNL1        0.0298
     13 C           2.4630   -0.2471   19.3089 C.ar    1  UNL1        0.0537
     14 C           1.2457   -0.6701   20.0766 C.ar    1  UNL1        0.0068
     15 C           0.1733    0.3301   20.3926 C.ar    1  UNL1        0.0298
     16 C           0.3182    1.7531   19.9409 C.ar    1  UNL1        0.1401
     17 F          -0.7542    2.7532   20.2569 F       1  UNL1       -0.2042
     18 C           1.5355    2.1760   19.1733 C.ar    1  UNL1        0.0298
     19 C           2.6079    1.1759   18.8572 C.ar    1  UNL1        0.0068
     20 C           7.0221   -5.7295   28.2253 C.3     1  UNL1        0.0773
     21 C           6.8173   -4.8695   27.0135 C.ar    1  UNL1        0.1813
     22 N           6.4740   -3.4093   27.0165 N.ar    1  UNL1       -0.0601
     23 O           6.3643   -2.9560   25.5908 O.2     1  UNL1       -0.3295
     24 C           6.6398   -4.1361   24.7068 C.ar    1  UNL1        0.2958
     25 N           6.9197   -5.3187   25.5860 N.ar    1  UNL1       -0.1885
@<TRIPOS>BOND
     1    20    21    1
     2    21    22   ar
     3    22    23   ar
     4    23    24   ar
     5    24     1    1
     6     1     2   ar
     7     2     3   ar
     8     3     4   ar
     9     4     5   ar
    10     5     6    1
    11     6     7    1
    12     7     8    1
    13     8     9   am
    14     9    10    2
    15     9    13    1
    16    13    14   ar
    17    14    15   ar
    18    15    16   ar
    19    16    17    1
    20    16    18   ar
    21    18    19   ar
    22     8    11    1
    23    11    12    1
    24    24    25   ar
    25    25    21   ar
    26     5     1   ar
    27    19    13   ar
    28    11     4    1
@<TRIPOS>MOLECULE
*****
 25 28 0 0 0
SMALL
GASTEIGER

@<TRIPOS>ATOM
      1 C         -17.6267   -1.2825   20.1405 C.ar    1  UNL1        0.2228
      2 N         -18.7870   -2.1554   20.5168 N.ar    1  UNL1       -0.1240
      3 N         -18.3850   -3.5830   20.2924 N.ar    1  UNL1       -0.1315
      4 C         -16.9761   -3.5924   19.7774 C.ar    1  UNL1        0.1616
      5 N         -16.5075   -2.1706   19.6836 N.ar    1  UNL1       -0.2918
      6 C         -15.1222   -1.8682   19.1942 C.3     1  UNL1        0.1303
      7 C         -14.2055   -2.9878   18.7986 C.3     1  UNL1        0.1186
      8 N         -14.6742   -4.4096   18.8924 N.am    1  UNL1       -0.2688
      9 C         -13.7576   -5.5291   18.4968 C.2     1  UNL1        0.2494
     10 O         -14.2262   -6.9509   18.5907 O.2     1  UNL1       -0.2699
     11 C         -16.0595   -4.7119   19.3819 C.3     1  UNL1        0.1343
     12 C         -16.5282   -6.1337   19.4757 C.3     1  UNL1        0.0298
     13 C         -12.3723   -5.2267   18.0074 C.ar    1  UNL1        0.0537
     14 C         -12.1124   -5.0756   16.5379 C.ar    1  UNL1        0.0068
     15 C         -10.7270   -4.7733   16.0485 C.ar    1  UNL1        0.0298
     16 C          -9.6017   -4.6221   17.0286 C.ar    1  UNL1        0.1401
     17 F          -8.2163   -4.3197   16.5392 F       1  UNL1       -0.2042
     18 C          -9.8616   -4.7732   18.4982 C.ar    1  UNL1        0.0298
     19 C         -11.2469   -5.0755   18.9876 C.ar    1  UNL1        0.0068
     20 C         -17.2225    3.6524   21.9746 C.3     1  UNL1        0.0773
     21 C         -17.4058    2.4838   21.0522 C.ar    1  UNL1        0.1813
     22 N         -17.6695    2.5577   19.5774 N.ar    1  UNL1       -0.0601
     23 O         -17.7843    1.1557   19.0564 O.2     1  UNL1       -0.3295
     24 C         -17.5916    0.2155   20.2092 C.ar    1  UNL1        0.2958
     25 N         -17.3577    1.0363   21.4427 N.ar    1  UNL1       -0.1885
@<TRIPOS>BOND
     1    20    21    1
     2    21    22   ar
     3    22    23   ar
     4    23    24   ar
     5    24     1    1
     6     1     2   ar
     7     2     3   ar
     8     3     4   ar
     9     4     5   ar
    10     5     6    1
    11     6     7    1
    12     7     8    1
    13     8     9   am
    14     9    10    2
    15     9    13    1
    16    13    14   ar
    17    14    15   ar
    18    15    16   ar
    19    16    17    1
    20    16    18   ar
    21    18    19   ar
    22     8    11    1
    23    11    12    1
    24    24    25   ar
    25    25    21   ar
    26     5     1   ar
    27    19    13   ar
    28    11     4    1
@<TRIPOS>MOLECULE
*****
 25 28 0 0 0
SMALL
GASTEIGER

@<TRIPOS>ATOM
      1 C           7.7536   -6.0861   28.9481 C.ar    1  UNL1        0.2228
      2 N           8.5696   -7.3407   28.8468 N.ar    1  UNL1       -0.1240
      3 N           8.8280   -7.6094   27.3938 N.ar    1  UNL1       -0.1315
      4 C           8.1717   -6.5210   26.5972 C.ar    1  UNL1        0.1616
      5 N           7.5077   -5.5795   27.5578 N.ar    1  UNL1       -0.2918
      6 C           6.7649   -4.3826   27.0424 C.3     1  UNL1        0.1303
      7 C           6.6861   -4.1271   25.5664 C.3     1  UNL1        0.1186
      8 N           7.3501   -5.0686   24.6058 N.am    1  UNL1       -0.2688
      9 C           7.2713   -4.8131   23.1298 C.2     1  UNL1        0.2494
     10 O           7.9353   -5.7546   22.1692 O.2     1  UNL1       -0.2699
     11 C           8.0929   -6.2655   25.1212 C.3     1  UNL1        0.1343
     12 C           8.7569   -7.2070   24.1606 C.3     1  UNL1        0.0298
     13 C           6.5285   -3.6162   22.6145 C.ar    1  UNL1        0.0537
     14 C           7.2672   -2.3439   22.3221 C.ar    1  UNL1        0.0068
     15 C           6.5243   -1.1469   21.8067 C.ar    1  UNL1        0.0298
     16 C           5.0429   -1.2224   21.5837 C.ar    1  UNL1        0.1401
     17 F           4.3000   -0.0254   21.0683 F       1  UNL1       -0.2042
     18 C           4.3043   -2.4948   21.8761 C.ar    1  UNL1        0.0298
     19 C           5.0471   -3.6917   22.3915 C.ar    1  UNL1        0.0068
     20 C           6.3227   -2.4792   32.5291 C.3     1  UNL1        0.0773
     21 C           6.6109   -3.7919   31.8629 C.ar    1  UNL1        0.1813
     22 N           6.4338   -5.1494   32.4760 N.ar    1  UNL1       -0.0601
     23 O           6.8403   -6.1741   31.4587 O.2     1  UNL1       -0.3295
     24 C           7.2686   -5.4498   30.2169 C.ar    1  UNL1        0.2958
     25 N           7.1269   -3.9776   30.4667 N.ar    1  UNL1       -0.1885
@<TRIPOS>BOND
     1    20    21    1
     2    21    22   ar
     3    22    23   ar
     4    23    24   ar
     5    24     1    1
     6     1     2   ar
     7     2     3   ar
     8     3     4   ar
     9     4     5   ar
    10     5     6    1
    11     6     7    1
    12     7     8    1
    13     8     9   am
    14     9    10    2
    15     9    13    1
    16    13    14   ar
    17    14    15   ar
    18    15    16   ar
    19    16    17    1
    20    16    18   ar
    21    18    19   ar
    22     8    11    1
    23    11    12    1
    24    24    25   ar
    25    25    21   ar
    26     5     1   ar
    27    19    13   ar
    28    11     4    1
@<TRIPOS>MOLECULE
*****
 25 28 0 0 0
SMALL
GASTEIGER

@<TRIPOS>ATOM
      1 C           5.5237   -1.1558   33.2822 C.ar    1  UNL1        0.2228
      2 N           5.5775   -0.6030   34.6756 N.ar    1  UNL1       -0.1240
      3 N           4.5178    0.4516   34.7971 N.ar    1  UNL1       -0.1315
      4 C           3.8091    0.5507   33.4788 C.ar    1  UNL1        0.1616
      5 N           4.4308   -0.4427   32.5425 N.ar    1  UNL1       -0.2918
      6 C           3.9213   -0.5697   31.1374 C.3     1  UNL1        0.1303
      7 C           2.7902    0.2968   30.6685 C.3     1  UNL1        0.1186
      8 N           2.1685    1.2902   31.6048 N.am    1  UNL1       -0.2688
      9 C           1.0374    2.1566   31.1360 C.2     1  UNL1        0.2494
     10 O           0.4157    3.1500   32.0723 O.2     1  UNL1       -0.2699
     11 C           2.6779    1.4171   33.0100 C.3     1  UNL1        0.1343
     12 C           2.0563    2.4105   33.9463 C.3     1  UNL1        0.0298
     13 C           0.5279    2.0297   29.7309 C.ar    1  UNL1        0.0537
     14 C          -0.4225    0.9253   29.3747 C.ar    1  UNL1        0.0068
     15 C          -0.9319    0.7983   27.9695 C.ar    1  UNL1        0.0298
     16 C          -0.4909    1.7758   26.9207 C.ar    1  UNL1        0.1401
     17 F          -1.0003    1.6488   25.5155 F       1  UNL1       -0.2042
     18 C           0.4596    2.8801   27.2769 C.ar    1  UNL1        0.0298
     19 C           0.9690    3.0071   28.6820 C.ar    1  UNL1        0.0068
     20 C           7.1745   -5.6995   31.1586 C.3     1  UNL1        0.0773
     21 C           7.1664   -4.3210   31.7499 C.ar    1  UNL1        0.1813
     22 N           8.3693   -3.4578   31.9904 N.ar    1  UNL1       -0.0601
     23 O           7.9003   -2.1669   32.5937 O.2     1  UNL1       -0.3295
     24 C           6.4076   -2.2325   32.7260 C.ar    1  UNL1        0.2958
     25 N           5.9540   -3.5638   32.2046 N.ar    1  UNL1       -0.1885
@<TRIPOS>BOND
     1    20    21    1
     2    21    22   ar
     3    22    23   ar
     4    23    24   ar
     5    24     1    1
     6     1     2   ar
     7     2     3   ar
     8     3     4   ar
     9     4     5   ar
    10     5     6    1
    11     6     7    1
    12     7     8    1
    13     8     9   am
    14     9    10    2
    15     9    13    1
    16    13    14   ar
    17    14    15   ar
    18    15    16   ar
    19    16    17    1
    20    16    18   ar
    21    18    19   ar
    22     8    11    1
    23    11    12    1
    24    24    25   ar
    25    25    21   ar
    26     5     1   ar
    27    19    13   ar
    28    11     4    1
@<TRIPOS>MOLECULE
*****
 25 28 0 0 0
SMALL
GASTEIGER

@<TRIPOS>ATOM
      1 C           2.1309    1.6872   25.5972 C.ar    1  UNL1        0.2228
      2 N           2.3649    3.1607   25.4425 N.ar    1  UNL1       -0.1240
      3 N           3.0569    3.3849   24.1307 N.ar    1  UNL1       -0.1315
      4 C           3.2506    2.0499   23.4746 C.ar    1  UNL1        0.1616
      5 N           2.6782    1.0007   24.3810 N.ar    1  UNL1       -0.2918
      6 C           2.7294   -0.4443   23.9817 C.3     1  UNL1        0.1303
      7 C           3.3530   -0.8401   22.6761 C.3     1  UNL1        0.1186
      8 N           3.9254    0.2092   21.7698 N.am    1  UNL1       -0.2688
      9 C           4.5489   -0.1865   20.4642 C.2     1  UNL1        0.2494
     10 O           5.1213    0.8628   19.5579 O.2     1  UNL1       -0.2699
     11 C           3.8741    1.6542   22.1691 C.3     1  UNL1        0.1343
     12 C           4.4465    2.7035   21.2627 C.3     1  UNL1        0.0298
     13 C           4.6001   -1.6315   20.0650 C.ar    1  UNL1        0.0537
     14 C           5.8452   -2.4325   20.3059 C.ar    1  UNL1        0.0068
     15 C           5.8964   -3.8775   19.9067 C.ar    1  UNL1        0.0298
     16 C           4.7025   -4.5214   19.2665 C.ar    1  UNL1        0.1401
     17 F           4.7536   -5.9665   18.8672 F       1  UNL1       -0.2042
     18 C           3.4574   -3.7204   19.0255 C.ar    1  UNL1        0.0298
     19 C           3.4062   -2.2755   19.4248 C.ar    1  UNL1        0.0068
     20 C          -1.5401    0.0176   29.0055 C.3     1  UNL1        0.0773
     21 C          -0.2213    0.2503   28.3299 C.ar    1  UNL1        0.1813
     22 N           1.1076   -0.2756   28.7856 N.ar    1  UNL1       -0.0601
     23 O           2.1505    0.1987   27.8173 O.2     1  UNL1       -0.3295
     24 C           1.4661    1.0176   26.7633 C.ar    1  UNL1        0.2958
     25 N           0.0003    1.0495   27.0801 N.ar    1  UNL1       -0.1885
@<TRIPOS>BOND
     1    20    21    1
     2    21    22   ar
     3    22    23   ar
     4    23    24   ar
     5    24     1    1
     6     1     2   ar
     7     2     3   ar
     8     3     4   ar
     9     4     5   ar
    10     5     6    1
    11     6     7    1
    12     7     8    1
    13     8     9   am
    14     9    10    2
    15     9    13    1
    16    13    14   ar
    17    14    15   ar
    18    15    16   ar
    19    16    17    1
    20    16    18   ar
    21    18    19   ar
    22     8    11    1
    23    11    12    1
    24    24    25   ar
    25    25    21   ar
    26     5     1   ar
    27    19    13   ar
    28    11     4    1
@<TRIPOS>MOLECULE
*****
 25 28 0 0 0
SMALL
GASTEIGER

@<TRIPOS>ATOM
      1 C           3.9833    1.2931   35.3692 C.ar    1  UNL1        0.2228
      2 N           5.1094    0.3183   35.5469 N.ar    1  UNL1       -0.1240
      3 N           5.2522   -0.4621   34.2739 N.ar    1  UNL1       -0.1315
      4 C           4.2143    0.0304   33.3094 C.ar    1  UNL1        0.1616
      5 N           3.4301    1.1152   33.9863 N.ar    1  UNL1       -0.2918
      6 C           2.3136    1.8008   33.2560 C.3     1  UNL1        0.1303
      7 C           1.9813    1.4016   31.8488 C.3     1  UNL1        0.1186
      8 N           2.7655    0.3168   31.1718 N.am    1  UNL1       -0.2688
      9 C           2.4332   -0.0823   29.7647 C.2     1  UNL1        0.2494
     10 O           3.2175   -1.1671   29.0877 O.2     1  UNL1       -0.2699
     11 C           3.8821   -0.3688   31.9022 C.3     1  UNL1        0.1343
     12 C           4.6663   -1.4535   31.2252 C.3     1  UNL1        0.0298
     13 C           1.3167    0.6033   29.0344 C.ar    1  UNL1        0.0537
     14 C           1.5778    1.8824   28.2956 C.ar    1  UNL1        0.0068
     15 C           0.4612    2.5680   27.5654 C.ar    1  UNL1        0.0298
     16 C          -0.9164    1.9745   27.5739 C.ar    1  UNL1        0.1401
     17 F          -2.0330    2.6601   26.8436 F       1  UNL1       -0.2042
     18 C          -1.1774    0.6954   28.3127 C.ar    1  UNL1        0.0298
     19 C          -0.0609    0.0098   29.0429 C.ar    1  UNL1        0.0068
     20 C           3.8857    5.0678   39.0601 C.3     1  UNL1        0.0773
     21 C           3.4511    4.0087   38.0908 C.ar    1  UNL1        0.1813
     22 N           2.0407    3.5566   37.8529 N.ar    1  UNL1       -0.0601
     23 O           2.0685    2.4842   36.8043 O.2     1  UNL1       -0.3295
     24 C           3.4959    2.2737   36.3943 C.ar    1  UNL1        0.2958
     25 N           4.3504    3.2158   37.1894 N.ar    1  UNL1       -0.1885
@<TRIPOS>BOND
     1    20    21    1
     2    21    22   ar
     3    22    23   ar
     4    23    24   ar
     5    24     1    1
     6     1     2   ar
     7     2     3   ar
     8     3     4   ar
     9     4     5   ar
    10     5     6    1
    11     6     7    1
    12     7     8    1
    13     8     9   am
    14     9    10    2
    15     9    13    1
    16    13    14   ar
    17    14    15   ar
    18    15    16   ar
    19    16    17    1
    20    16    18   ar
    21    18    19   ar
    22     8    11    1
    23    11    12    1
    24    24    25   ar
    25    25    21   ar
    26     5     1   ar
    27    19    13   ar
    28    11     4    1
@<TRIPOS>MOLECULE
*****
 25 28 0 0 0
SMALL
GASTEIGER

@<TRIPOS>ATOM
      1 C           1.2000    1.4345   31.0679 C.ar    1  UNL1        0.2228
      2 N           0.9534    2.3755   32.2098 N.ar    1  UNL1       -0.1240
      3 N           2.0385    2.1675   33.2244 N.ar    1  UNL1       -0.1315
      4 C           2.9556    1.0979   32.7096 C.ar    1  UNL1        0.1616
      5 N           2.4374    0.6449   31.3768 N.ar    1  UNL1       -0.2918
      6 C           3.1592   -0.4280   30.6168 C.3     1  UNL1        0.1303
      7 C           4.3993   -1.0480   31.1894 C.3     1  UNL1        0.1186
      8 N           4.9175   -0.5950   32.5222 N.am    1  UNL1       -0.2688
      9 C           6.1575   -1.2149   33.0949 C.2     1  UNL1        0.2494
     10 O           6.6757   -0.7619   34.4276 O.2     1  UNL1       -0.2699
     11 C           4.1956    0.4780   33.2823 C.3     1  UNL1        0.1343
     12 C           4.7138    0.9310   34.6151 C.3     1  UNL1        0.0298
     13 C           6.8793   -2.2878   32.3348 C.ar    1  UNL1        0.0537
     14 C           8.1117   -1.9506   31.5490 C.ar    1  UNL1        0.0068
     15 C           8.8335   -3.0236   30.7888 C.ar    1  UNL1        0.0298
     16 C           8.3229   -4.4338   30.8145 C.ar    1  UNL1        0.1401
     17 F           9.0447   -5.5068   30.0544 F       1  UNL1       -0.2042
     18 C           7.0905   -4.7710   31.6003 C.ar    1  UNL1        0.0298
     19 C           6.3687   -3.6981   32.3604 C.ar    1  UNL1        0.0068
     20 C          -1.1271    2.4785   26.4446 C.3     1  UNL1        0.0773
     21 C          -0.7125    1.7856   27.7087 C.ar    1  UNL1        0.1813
     22 N          -1.1673    0.4295   28.1607 N.ar    1  UNL1       -0.0601
     23 O          -0.5062    0.1330   29.4742 O.2     1  UNL1       -0.3295
     24 C           0.3571    1.3057   29.8338 C.ar    1  UNL1        0.2958
     25 N           0.2297    2.3271   28.7427 N.ar    1  UNL1       -0.1885
@<TRIPOS>BOND
     1    20    21    1
     2    21    22   ar
     3    22    23   ar
     4    23    24   ar
     5    24     1    1
     6     1     2   ar
     7     2     3   ar
     8     3     4   ar
     9     4     5   ar
    10     5     6    1
    11     6     7    1
    12     7     8    1
    13     8     9   am
    14     9    10    2
    15     9    13    1
    16    13    14   ar
    17    14    15   ar
    18    15    16   ar
    19    16    17    1
    20    16    18   ar
    21    18    19   ar
    22     8    11    1
    23    11    12    1
    24    24    25   ar
    25    25    21   ar
    26     5     1   ar
    27    19    13   ar
    28    11     4    1
@<TRIPOS>MOLECULE
*****
 25 28 0 0 0
SMALL
GASTEIGER

@<TRIPOS>ATOM
      1 C           4.7137   -1.6627   19.3453 C.ar    1  UNL1        0.2228
      2 N           5.6506   -1.7315   18.1759 N.ar    1  UNL1       -0.1240
      3 N           6.8829   -2.4672   18.6120 N.ar    1  UNL1       -0.1315
      4 C           6.7076   -2.8531   20.0508 C.ar    1  UNL1        0.1616
      5 N           5.3670   -2.3559   20.5041 N.ar    1  UNL1       -0.2918
      6 C           4.9143   -2.5986   21.9134 C.3     1  UNL1        0.1303
      7 C           5.8023   -3.3385   22.8695 C.3     1  UNL1        0.1186
      8 N           7.1429   -3.8358   22.4162 N.am    1  UNL1       -0.2688
      9 C           8.0309   -4.5757   23.3723 C.2     1  UNL1        0.2494
     10 O           9.3715   -5.0729   22.9190 O.2     1  UNL1       -0.2699
     11 C           7.5956   -3.5930   21.0069 C.3     1  UNL1        0.1343
     12 C           8.9362   -4.0902   20.5536 C.3     1  UNL1        0.0298
     13 C           7.5782   -4.8184   24.7815 C.ar    1  UNL1        0.0537
     14 C           7.4052   -3.6636   25.7231 C.ar    1  UNL1        0.0068
     15 C           6.9525   -3.9064   27.1325 C.ar    1  UNL1        0.0298
     16 C           6.6727   -5.3038   27.6002 C.ar    1  UNL1        0.1401
     17 F           6.2200   -5.5466   29.0095 F       1  UNL1       -0.2042
     18 C           6.8457   -6.4586   26.6586 C.ar    1  UNL1        0.0298
     19 C           7.2984   -6.2159   25.2493 C.ar    1  UNL1        0.0068
     20 C           0.7314    1.6616   18.3601 C.3     1  UNL1        0.0773
     21 C           1.5306    0.5135   18.9015 C.ar    1  UNL1        0.1813
     22 N           1.0283   -0.5476   19.8353 N.ar    1  UNL1       -0.0601
     23 O           2.1597   -1.4920   20.1152 O.2     1  UNL1       -0.3295
     24 C           3.3610   -1.0145   19.3544 C.ar    1  UNL1        0.2958
     25 N           2.9723    0.2250   18.6044 N.ar    1  UNL1       -0.1885
@<TRIPOS>BOND
     1    20    21    1
     2    21    22   ar
     3    22    23   ar
     4    23    24   ar
     5    24     1    1
     6     1     2   ar
     7     2     3   ar
     8     3     4   ar
     9     4     5   ar
    10     5     6    1
    11     6     7    1
    12     7     8    1
    13     8     9   am
    14     9    10    2
    15     9    13    1
    16    13    14   ar
    17    14    15   ar
    18    15    16   ar
    19    16    17    1
    20    16    18   ar
    21    18    19   ar
    22     8    11    1
    23    11    12    1
    24    24    25   ar
    25    25    21   ar
    26     5     1   ar
    27    19    13   ar
    28    11     4    1
