@<TRIPOS>MOLECULE
*****
 15 15 0 0 0
SMALL
GASTEIGER

@<TRIPOS>ATOM
      1 C         -11.0010  -17.7687   23.4167 C.ar    1  UNL1       -0.0115
      2 C         -12.3426  -18.2028   22.9051 C.ar    1  UNL1        0.0170
      3 C         -12.8701  -17.6453   21.6163 C.ar    1  UNL1        0.0986
      4 N         -12.0560  -16.6538   20.8391 N.ar    1  UNL1       -0.2417
      5 C         -10.7145  -16.2197   21.3507 C.ar    1  UNL1        0.1067
      6 C         -10.1870  -16.7772   22.6395 C.ar    1  UNL1        0.0569
      7 C          -8.8453  -16.3431   23.1510 C.1     1  UNL1       -0.0618
      8 C          -7.5038  -15.9089   23.6626 C.1     1  UNL1       -0.0689
      9 C          -6.1622  -15.4748   24.1741 C.3     1  UNL1        0.1432
     10 N          -5.2009  -14.7757   23.2592 N.3     1  UNL1       -0.3102
     11 H          -4.9038  -15.4172   22.5238 H       1  UNL1        0.1198
     12 H          -4.3870  -14.4685   23.7916 H       1  UNL1        0.1198
     13 C         -10.4735  -18.3262   24.7054 C.3     1  UNL1        0.0271
     14 C          -9.2615  -20.4228   23.7647 C.3     1  UNL1        0.0004
     15 C         -10.1291  -19.7826   24.8074 C.3     1  UNL1        0.0047
@<TRIPOS>BOND
     1    14    15    1
     2    15    13    1
     3    13     1    1
     4     1     2   ar
     5     2     3   ar
     6     3     4   ar
     7     4     5   ar
     8     5     6   ar
     9     6     7    1
    10     7     8    3
    11     8     9    1
    12     9    10    1
    13     6     1   ar
    14    10    11    1
    15    10    12    1
@<TRIPOS>MOLECULE
*****
 15 15 0 0 0
SMALL
GASTEIGER

@<TRIPOS>ATOM
      1 C         -11.1559  -17.8308   22.9644 C.ar    1  UNL1       -0.0115
      2 C         -11.8970  -18.2352   21.7245 C.ar    1  UNL1        0.0170
      3 C         -11.6095  -17.5498   20.4217 C.ar    1  UNL1        0.0986
      4 N         -10.5809  -16.4598   20.3586 N.ar    1  UNL1       -0.2417
      5 C          -9.8399  -16.0553   21.5985 C.ar    1  UNL1        0.1067
      6 C         -10.1274  -16.7408   22.9013 C.ar    1  UNL1        0.0569
      7 C          -9.3863  -16.3363   24.1412 C.1     1  UNL1       -0.0618
      8 C          -8.6452  -15.9319   25.3810 C.1     1  UNL1       -0.0689
      9 C          -7.9041  -15.5273   26.6209 C.3     1  UNL1        0.1432
     10 N          -6.5502  -14.8910   26.5114 N.3     1  UNL1       -0.3102
     11 H          -5.8875  -15.5654   26.1288 H       1  UNL1        0.1198
     12 H          -6.2381  -14.5946   27.4361 H       1  UNL1        0.1198
     13 C         -11.4435  -18.5163   24.2672 C.3     1  UNL1        0.0271
     14 C          -9.5058  -20.1895   23.8248 C.3     1  UNL1        0.0004
     15 C         -10.6714  -19.7421   24.6561 C.3     1  UNL1        0.0047
@<TRIPOS>BOND
     1    14    15    1
     2    15    13    1
     3    13     1    1
     4     1     2   ar
     5     2     3   ar
     6     3     4   ar
     7     4     5   ar
     8     5     6   ar
     9     6     7    1
    10     7     8    3
    11     8     9    1
    12     9    10    1
    13     6     1   ar
    14    10    11    1
    15    10    12    1
@<TRIPOS>MOLECULE
*****
 15 15 0 0 0
SMALL
GASTEIGER

@<TRIPOS>ATOM
      1 C          -3.1122  -18.6580   21.8266 C.ar    1  UNL1       -0.0115
      2 C          -2.1329  -19.2295   20.8446 C.ar    1  UNL1        0.0170
      3 C          -1.0836  -18.3491   20.2330 C.ar    1  UNL1        0.0986
      4 N          -1.0137  -16.8973   20.6035 N.ar    1  UNL1       -0.2417
      5 C          -1.9930  -16.3258   21.5854 C.ar    1  UNL1        0.1067
      6 C          -3.0422  -17.2062   22.1970 C.ar    1  UNL1        0.0569
      7 C          -4.0216  -16.6347   23.1790 C.1     1  UNL1       -0.0618
      8 C          -5.0009  -16.0632   24.1610 C.1     1  UNL1       -0.0689
      9 C          -5.9802  -15.4916   25.1431 C.3     1  UNL1        0.1432
     10 N          -6.9518  -14.4360   24.7054 N.3     1  UNL1       -0.3102
     11 H          -6.4431  -13.5873   24.4580 H       1  UNL1        0.1198
     12 H          -7.6003  -14.2342   25.4664 H       1  UNL1        0.1198
     13 C          -4.1614  -19.5384   22.4381 C.3     1  UNL1        0.0271
     14 C          -5.6607  -20.5792   20.5891 C.3     1  UNL1        0.0004
     15 C          -5.5010  -19.6784   21.7778 C.3     1  UNL1        0.0047
@<TRIPOS>BOND
     1    14    15    1
     2    15    13    1
     3    13     1    1
     4     1     2   ar
     5     2     3   ar
     6     3     4   ar
     7     4     5   ar
     8     5     6   ar
     9     6     7    1
    10     7     8    3
    11     8     9    1
    12     9    10    1
    13     6     1   ar
    14    10    11    1
    15    10    12    1
@<TRIPOS>MOLECULE
*****
 15 15 0 0 0
SMALL
GASTEIGER

@<TRIPOS>ATOM
      1 C         -10.9497  -18.5351   23.3444 C.ar    1  UNL1       -0.0115
      2 C         -12.3761  -18.2295   23.6935 C.ar    1  UNL1        0.0170
      3 C         -13.3317  -17.7876   22.6251 C.ar    1  UNL1        0.0986
      4 N         -12.8609  -17.6512   21.2075 N.ar    1  UNL1       -0.2417
      5 C         -11.4345  -17.9567   20.8583 C.ar    1  UNL1        0.1067
      6 C         -10.4789  -18.3987   21.9267 C.ar    1  UNL1        0.0569
      7 C          -9.0524  -18.7042   21.5775 C.1     1  UNL1       -0.0618
      8 C          -7.6260  -19.0097   21.2282 C.1     1  UNL1       -0.0689
      9 C          -6.1996  -19.3153   20.8790 C.3     1  UNL1        0.1432
     10 N          -5.5330  -18.5914   19.7469 N.3     1  UNL1       -0.3102
     11 H          -5.9826  -18.8477   18.8679 H       1  UNL1        0.1198
     12 H          -4.5468  -18.8494   19.7122 H       1  UNL1        0.1198
     13 C          -9.9941  -18.9770   24.4128 C.3     1  UNL1        0.0271
     14 C          -8.9448  -16.6501   24.8967 C.3     1  UNL1        0.0004
     15 C          -9.4429  -17.9777   25.3861 C.3     1  UNL1        0.0047
@<TRIPOS>BOND
     1    14    15    1
     2    15    13    1
     3    13     1    1
     4     1     2   ar
     5     2     3   ar
     6     3     4   ar
     7     4     5   ar
     8     5     6   ar
     9     6     7    1
    10     7     8    3
    11     8     9    1
    12     9    10    1
    13     6     1   ar
    14    10    11    1
    15    10    12    1
@<TRIPOS>MOLECULE
*****
 15 15 0 0 0
SMALL
GASTEIGER

@<TRIPOS>ATOM
      1 C         -13.1366   -3.8606   19.6162 C.ar    1  UNL1       -0.0115
      2 C         -13.9375   -2.5930   19.6557 C.ar    1  UNL1        0.0170
      3 C         -13.3803   -1.3348   19.0584 C.ar    1  UNL1        0.0986
      4 N         -12.0222   -1.3444   18.4217 N.ar    1  UNL1       -0.2417
      5 C         -11.2213   -2.6120   18.3822 C.ar    1  UNL1        0.1067
      6 C         -11.7785   -3.8701   18.9794 C.ar    1  UNL1        0.0569
      7 C         -10.9775   -5.1378   18.9399 C.1     1  UNL1       -0.0618
      8 C         -10.1766   -6.4054   18.9004 C.1     1  UNL1       -0.0689
      9 C          -9.3756   -7.6731   18.8609 C.3     1  UNL1        0.1432
     10 N          -9.7727   -8.7825   17.9328 N.3     1  UNL1       -0.3102
     11 H         -10.6755   -9.1600   18.2207 H       1  UNL1        0.1198
     12 H          -9.0696   -9.5208   17.9650 H       1  UNL1        0.1198
     13 C         -13.6938   -5.1187   20.2134 C.3     1  UNL1        0.0271
     14 C         -14.1494   -7.1980   18.7238 C.3     1  UNL1        0.0004
     15 C         -14.6453   -5.9669   19.4227 C.3     1  UNL1        0.0047
@<TRIPOS>BOND
     1    14    15    1
     2    15    13    1
     3    13     1    1
     4     1     2   ar
     5     2     3   ar
     6     3     4   ar
     7     4     5   ar
     8     5     6   ar
     9     6     7    1
    10     7     8    3
    11     8     9    1
    12     9    10    1
    13     6     1   ar
    14    10    11    1
    15    10    12    1
@<TRIPOS>MOLECULE
*****
 15 15 0 0 0
SMALL
GASTEIGER

@<TRIPOS>ATOM
      1 C          -8.7237  -18.6436   21.7642 C.ar    1  UNL1       -0.0115
      2 C          -9.7958  -19.1619   20.8522 C.ar    1  UNL1        0.0170
      3 C         -10.7939  -18.2154   20.2541 C.ar    1  UNL1        0.0986
      4 N         -10.7200  -16.7505   20.5680 N.ar    1  UNL1       -0.2417
      5 C          -9.6479  -16.2322   21.4801 C.ar    1  UNL1        0.1067
      6 C          -8.6497  -17.1787   22.0782 C.ar    1  UNL1        0.0569
      7 C          -7.5775  -16.6604   22.9902 C.1     1  UNL1       -0.0618
      8 C          -6.5054  -16.1419   23.9023 C.1     1  UNL1       -0.0689
      9 C          -5.4333  -15.6236   24.8143 C.3     1  UNL1        0.1432
     10 N          -5.7582  -14.5691   25.8305 N.3     1  UNL1       -0.3102
     11 H          -6.0098  -13.7034   25.3535 H       1  UNL1        0.1198
     12 H          -4.9445  -14.4064   26.4237 H       1  UNL1        0.1198
     13 C          -7.7255  -19.5902   22.3623 C.3     1  UNL1        0.0271
     14 C          -5.1439  -19.3869   22.1529 C.3     1  UNL1        0.0004
     15 C          -6.4532  -19.8995   21.6305 C.3     1  UNL1        0.0047
@<TRIPOS>BOND
     1    14    15    1
     2    15    13    1
     3    13     1    1
     4     1     2   ar
     5     2     3   ar
     6     3     4   ar
     7     4     5   ar
     8     5     6   ar
     9     6     7    1
    10     7     8    3
    11     8     9    1
    12     9    10    1
    13     6     1   ar
    14    10    11    1
    15    10    12    1
@<TRIPOS>MOLECULE
*****
 15 15 0 0 0
SMALL
GASTEIGER

@<TRIPOS>ATOM
      1 C         -12.2746   -5.2391   18.9077 C.ar    1  UNL1       -0.0115
      2 C         -11.1167   -4.3004   19.0749 C.ar    1  UNL1        0.0170
      3 C          -9.7121   -4.8228   19.0090 C.ar    1  UNL1        0.0986
      4 N          -9.4655   -6.2838   18.7758 N.ar    1  UNL1       -0.2417
      5 C         -10.6234   -7.2225   18.6086 C.ar    1  UNL1        0.1067
      6 C         -12.0280   -6.7001   18.6746 C.ar    1  UNL1        0.0569
      7 C         -13.1859   -7.6389   18.5074 C.1     1  UNL1       -0.0618
      8 C         -14.3438   -8.5777   18.3401 C.1     1  UNL1       -0.0689
      9 C         -15.5018   -9.5165   18.1729 C.3     1  UNL1        0.1432
     10 N         -15.2671  -10.9974   18.1342 N.3     1  UNL1       -0.3102
     11 H         -14.7325  -11.2353   17.2987 H       1  UNL1        0.1198
     12 H         -16.1637  -11.4834   18.1140 H       1  UNL1        0.1198
     13 C         -13.6791   -4.7167   18.9736 C.3     1  UNL1        0.0271
     14 C         -14.0052   -3.2477   21.0916 C.3     1  UNL1        0.0004
     15 C         -14.3305   -4.4824   20.3043 C.3     1  UNL1        0.0047
@<TRIPOS>BOND
     1    14    15    1
     2    15    13    1
     3    13     1    1
     4     1     2   ar
     5     2     3   ar
     6     3     4   ar
     7     4     5   ar
     8     5     6   ar
     9     6     7    1
    10     7     8    3
    11     8     9    1
    12     9    10    1
    13     6     1   ar
    14    10    11    1
    15    10    12    1
@<TRIPOS>MOLECULE
*****
 15 15 0 0 0
SMALL
GASTEIGER

@<TRIPOS>ATOM
      1 C          -8.7762  -17.8838   22.6959 C.ar    1  UNL1       -0.0115
      2 C          -7.3180  -17.5502   22.5840 C.ar    1  UNL1        0.0170
      3 C          -6.7222  -16.4884   23.4601 C.ar    1  UNL1        0.0986
      4 N          -7.5845  -15.7603   24.4481 N.ar    1  UNL1       -0.2417
      5 C          -9.0426  -16.0939   24.5600 C.ar    1  UNL1        0.1067
      6 C          -9.6384  -17.1556   23.6839 C.ar    1  UNL1        0.0569
      7 C         -11.0966  -17.4892   23.7958 C.1     1  UNL1       -0.0618
      8 C         -12.5547  -17.8228   23.9077 C.1     1  UNL1       -0.0689
      9 C         -14.0129  -18.1564   24.0196 C.3     1  UNL1        0.1432
     10 N         -14.6018  -18.5073   25.3538 N.3     1  UNL1       -0.3102
     11 H         -14.2001  -19.3854   25.6824 H       1  UNL1        0.1198
     12 H         -15.6127  -18.6086   25.2632 H       1  UNL1        0.1198
     13 C          -9.3720  -18.9456   21.8198 C.3     1  UNL1        0.0271
     14 C          -9.5753  -19.6708   19.3333 C.3     1  UNL1        0.0004
     15 C          -8.7271  -19.2854   20.5089 C.3     1  UNL1        0.0047
@<TRIPOS>BOND
     1    14    15    1
     2    15    13    1
     3    13     1    1
     4     1     2   ar
     5     2     3   ar
     6     3     4   ar
     7     4     5   ar
     8     5     6   ar
     9     6     7    1
    10     7     8    3
    11     8     9    1
    12     9    10    1
    13     6     1   ar
    14    10    11    1
    15    10    12    1
@<TRIPOS>MOLECULE
*****
 15 15 0 0 0
SMALL
GASTEIGER

@<TRIPOS>ATOM
      1 C          -5.6326  -19.4445   21.6024 C.ar    1  UNL1       -0.0115
      2 C          -5.3481  -20.5110   20.5867 C.ar    1  UNL1        0.0170
      3 C          -3.9563  -20.6902   20.0569 C.ar    1  UNL1        0.0986
      4 N          -2.8489  -19.8028   20.5428 N.ar    1  UNL1       -0.2417
      5 C          -3.1333  -18.7363   21.5585 C.ar    1  UNL1        0.1067
      6 C          -4.5251  -18.5572   22.0883 C.ar    1  UNL1        0.0569
      7 C          -4.8095  -17.4906   23.1040 C.1     1  UNL1       -0.0618
      8 C          -5.0938  -16.4241   24.1197 C.1     1  UNL1       -0.0689
      9 C          -5.3782  -15.3575   25.1354 C.3     1  UNL1        0.1432
     10 N          -6.5633  -14.4544   24.9629 N.3     1  UNL1       -0.3102
     11 H          -6.4293  -13.8717   24.1365 H       1  UNL1        0.1198
     12 H          -6.6604  -13.8599   25.7860 H       1  UNL1        0.1198
     13 C          -7.0244  -19.2654   22.1322 C.3     1  UNL1        0.0271
     14 C          -9.2294  -17.8924   22.0830 C.3     1  UNL1        0.0004
     15 C          -8.0067  -18.4116   21.3864 C.3     1  UNL1        0.0047
@<TRIPOS>BOND
     1    14    15    1
     2    15    13    1
     3    13     1    1
     4     1     2   ar
     5     2     3   ar
     6     3     4   ar
     7     4     5   ar
     8     5     6   ar
     9     6     7    1
    10     7     8    3
    11     8     9    1
    12     9    10    1
    13     6     1   ar
    14    10    11    1
    15    10    12    1
