@<TRIPOS>MOLECULE
*****
 16 16 0 0 0
SMALL
GASTEIGER

@<TRIPOS>ATOM
      1 C           2.3026  -13.8505   28.2438 C.ar    1  UNL1       -0.0227
      2 C           2.6253  -12.8660   29.3284 C.ar    1  UNL1       -0.0030
      3 C           3.8900  -12.0624   29.2600 C.ar    1  UNL1        0.0143
      4 C           4.8321  -12.2434   28.1069 C.ar    1  UNL1        0.0495
      5 C           4.5095  -13.2280   27.0223 C.ar    1  UNL1        0.0143
      6 C           3.2447  -14.0315   27.0907 C.ar    1  UNL1       -0.0030
      7 C           1.8436  -15.9187   28.3537 C.3     1  UNL1        0.0044
      8 C           1.0379  -14.6541   28.3122 C.3     1  UNL1        0.0189
      9 C           0.2322  -13.3895   28.2706 C.3     1  UNL1        0.0044
     10 C          -0.2269  -15.4577   28.3806 C.3     1  UNL1        0.0044
     11 N           6.0969  -11.4398   28.0385 N.pl3   1  UNL1       -0.2930
     12 H           6.0548  -10.4671   27.8928 H       1  UNL1        0.1538
     13 C           7.4258  -12.1183   28.1920 C.2     1  UNL1        0.2056
     14 N           7.5279  -13.4025   28.9604 N.2     1  UNL1       -0.0679
     15 O           8.8569  -14.0810   29.1140 O.2     1  UNL1       -0.4077
     16 H           8.9207  -14.8832   29.5940 H       1  UNL1        0.3278
@<TRIPOS>BOND
     1     7     8    1
     2     8     9    1
     3     8    10    1
     4     8     1    1
     5     1     2   ar
     6     2     3   ar
     7     3     4   ar
     8     4    11    1
     9    11    13    1
    10    13    14    2
    11    14    15    1
    12     4     5   ar
    13     5     6   ar
    14     6     1   ar
    15    11    12    1
    16    15    16    1
@<TRIPOS>MOLECULE
*****
 16 16 0 0 0
SMALL
GASTEIGER

@<TRIPOS>ATOM
      1 C          -7.8790  -15.9611   24.9553 C.ar    1  UNL1       -0.0227
      2 C          -9.0191  -16.9359   24.9464 C.ar    1  UNL1       -0.0030
      3 C          -9.6654  -17.3222   23.6491 C.ar    1  UNL1        0.0143
      4 C          -9.1716  -16.7339   22.3607 C.ar    1  UNL1        0.0495
      5 C          -8.0316  -15.7591   22.3696 C.ar    1  UNL1        0.0143
      6 C          -7.3853  -15.3728   23.6670 C.ar    1  UNL1       -0.0030
      7 C          -5.9784  -15.2054   25.5178 C.3     1  UNL1        0.0044
      8 C          -7.2328  -15.5748   26.2527 C.3     1  UNL1        0.0189
      9 C          -8.4871  -15.9442   26.9876 C.3     1  UNL1        0.0044
     10 C          -6.5865  -15.1884   27.5500 C.3     1  UNL1        0.0044
     11 N          -9.8179  -17.1202   21.0634 N.pl3   1  UNL1       -0.2930
     12 H          -9.3923  -17.7912   20.4820 H       1  UNL1        0.1538
     13 C         -11.1125  -16.4843   20.6518 C.2     1  UNL1        0.2056
     14 N         -11.2543  -15.8908   19.2815 N.2     1  UNL1       -0.0679
     15 O         -12.5491  -15.2549   18.8699 O.2     1  UNL1       -0.4077
     16 H         -12.6376  -14.8841   18.0140 H       1  UNL1        0.3278
@<TRIPOS>BOND
     1     7     8    1
     2     8     9    1
     3     8    10    1
     4     8     1    1
     5     1     2   ar
     6     2     3   ar
     7     3     4   ar
     8     4    11    1
     9    11    13    1
    10    13    14    2
    11    14    15    1
    12     4     5   ar
    13     5     6   ar
    14     6     1   ar
    15    11    12    1
    16    15    16    1
@<TRIPOS>MOLECULE
*****
 16 16 0 0 0
SMALL
GASTEIGER

@<TRIPOS>ATOM
      1 C         -11.0434  -18.5687   22.2130 C.ar    1  UNL1       -0.0227
      2 C          -9.7010  -18.3331   22.8393 C.ar    1  UNL1       -0.0030
      3 C          -8.4506  -18.6709   22.0827 C.ar    1  UNL1        0.0143
      4 C          -8.5427  -19.2442   20.6996 C.ar    1  UNL1        0.0495
      5 C          -9.8851  -19.4798   20.0733 C.ar    1  UNL1        0.0143
      6 C         -11.1355  -19.1420   20.8300 C.ar    1  UNL1       -0.0030
      7 C         -11.6629  -18.7311   24.2353 C.3     1  UNL1        0.0044
      8 C         -12.2937  -18.2309   22.9697 C.3     1  UNL1        0.0189
      9 C         -12.9246  -17.7308   21.7040 C.3     1  UNL1        0.0044
     10 C         -13.5441  -17.8932   23.7263 C.3     1  UNL1        0.0044
     11 N          -7.2923  -19.5820   19.9430 N.pl3   1  UNL1       -0.2930
     12 H          -7.3529  -20.0016   19.0545 H       1  UNL1        0.1538
     13 C          -5.9498  -19.2803   20.5400 C.2     1  UNL1        0.2056
     14 N          -4.9019  -18.5893   19.7187 N.2     1  UNL1       -0.0679
     15 O          -3.5593  -18.2876   20.3158 O.2     1  UNL1       -0.4077
     16 H          -2.9047  -17.8560   19.8028 H       1  UNL1        0.3278
@<TRIPOS>BOND
     1     7     8    1
     2     8     9    1
     3     8    10    1
     4     8     1    1
     5     1     2   ar
     6     2     3   ar
     7     3     4   ar
     8     4    11    1
     9    11    13    1
    10    13    14    2
    11    14    15    1
    12     4     5   ar
    13     5     6   ar
    14     6     1   ar
    15    11    12    1
    16    15    16    1
@<TRIPOS>MOLECULE
*****
 16 16 0 0 0
SMALL
GASTEIGER

@<TRIPOS>ATOM
      1 C          -8.4645  -16.3965   24.9075 C.ar    1  UNL1       -0.0227
      2 C          -8.3462  -15.8681   23.5087 C.ar    1  UNL1       -0.0030
      3 C          -9.2169  -16.4238   22.4209 C.ar    1  UNL1        0.0143
      4 C         -10.2058  -17.5079   22.7320 C.ar    1  UNL1        0.0495
      5 C         -10.3240  -18.0362   24.1308 C.ar    1  UNL1        0.0143
      6 C          -9.4534  -17.4805   25.2186 C.ar    1  UNL1       -0.0030
      7 C          -8.4639  -16.4963   27.0265 C.3     1  UNL1        0.0044
      8 C          -7.5939  -15.8408   25.9953 C.3     1  UNL1        0.0189
      9 C          -6.7239  -15.1853   24.9641 C.3     1  UNL1        0.0044
     10 C          -6.7233  -15.2851   27.0830 C.3     1  UNL1        0.0044
     11 N         -11.0764  -18.0636   21.6442 N.pl3   1  UNL1       -0.2930
     12 H         -11.5208  -18.9336   21.7656 H       1  UNL1        0.1538
     13 C         -11.2700  -17.2936   20.3716 C.2     1  UNL1        0.2056
     14 N         -12.3952  -16.3086   20.2547 N.2     1  UNL1       -0.0679
     15 O         -12.5887  -15.5386   18.9820 O.2     1  UNL1       -0.4077
     16 H         -13.2916  -14.9233   18.9089 H       1  UNL1        0.3278
@<TRIPOS>BOND
     1     7     8    1
     2     8     9    1
     3     8    10    1
     4     8     1    1
     5     1     2   ar
     6     2     3   ar
     7     3     4   ar
     8     4    11    1
     9    11    13    1
    10    13    14    2
    11    14    15    1
    12     4     5   ar
    13     5     6   ar
    14     6     1   ar
    15    11    12    1
    16    15    16    1
@<TRIPOS>MOLECULE
*****
 16 16 0 0 0
SMALL
GASTEIGER

@<TRIPOS>ATOM
      1 C          -8.6566  -16.4696   25.4202 C.ar    1  UNL1       -0.0227
      2 C          -9.2770  -17.7862   25.7830 C.ar    1  UNL1       -0.0030
      3 C         -10.3611  -18.3665   24.9241 C.ar    1  UNL1        0.0143
      4 C         -10.8250  -17.6303   23.7023 C.ar    1  UNL1        0.0495
      5 C         -10.2046  -16.3138   23.3395 C.ar    1  UNL1        0.0143
      6 C          -9.1204  -15.7334   24.1984 C.ar    1  UNL1       -0.0030
      7 C          -8.2978  -16.3523   27.5076 C.3     1  UNL1        0.0044
      8 C          -7.5724  -15.8892   26.2791 C.3     1  UNL1        0.0189
      9 C          -6.8471  -15.4261   25.0505 C.3     1  UNL1        0.0044
     10 C          -6.4883  -15.3088   27.1380 C.3     1  UNL1        0.0044
     11 N         -11.9092  -18.2107   22.8434 N.pl3   1  UNL1       -0.2930
     12 H         -11.6805  -18.6541   21.9947 H       1  UNL1        0.1538
     13 C         -13.3417  -18.1156   23.2777 C.2     1  UNL1        0.2056
     14 N         -13.7402  -18.5643   24.6524 N.2     1  UNL1       -0.0679
     15 O         -15.1728  -18.4691   25.0866 O.2     1  UNL1       -0.4077
     16 H         -15.4217  -18.7494   25.9453 H       1  UNL1        0.3278
@<TRIPOS>BOND
     1     7     8    1
     2     8     9    1
     3     8    10    1
     4     8     1    1
     5     1     2   ar
     6     2     3   ar
     7     3     4   ar
     8     4    11    1
     9    11    13    1
    10    13    14    2
    11    14    15    1
    12     4     5   ar
    13     5     6   ar
    14     6     1   ar
    15    11    12    1
    16    15    16    1
@<TRIPOS>MOLECULE
*****
 16 16 0 0 0
SMALL
GASTEIGER

@<TRIPOS>ATOM
      1 C          -8.8087  -16.5897   25.4108 C.ar    1  UNL1       -0.0227
      2 C          -9.3743  -17.9319   25.7693 C.ar    1  UNL1       -0.0030
      3 C         -10.3978  -18.5759   24.8817 C.ar    1  UNL1        0.0143
      4 C         -10.8555  -17.8777   23.6355 C.ar    1  UNL1        0.0495
      5 C         -10.2898  -16.5355   23.2770 C.ar    1  UNL1        0.0143
      6 C          -9.2664  -15.8915   24.1647 C.ar    1  UNL1       -0.0030
      7 C          -8.4353  -16.5674   27.4989 C.3     1  UNL1        0.0044
      8 C          -7.7853  -15.9458   26.2985 C.3     1  UNL1        0.0189
      9 C          -7.1353  -15.3241   25.0981 C.3     1  UNL1        0.0044
     10 C          -6.7619  -15.3018   27.1862 C.3     1  UNL1        0.0044
     11 N         -11.8789  -18.5216   22.7479 N.pl3   1  UNL1       -0.2930
     12 H         -12.7011  -18.8981   23.1371 H       1  UNL1        0.1538
     13 C         -11.6496  -18.5920   21.2672 C.2     1  UNL1        0.2056
     14 N         -10.6109  -19.5212   20.7124 N.2     1  UNL1       -0.0679
     15 O         -10.3817  -19.5916   19.2317 O.2     1  UNL1       -0.4077
     16 H          -9.7329  -20.1720   18.8851 H       1  UNL1        0.3278
@<TRIPOS>BOND
     1     7     8    1
     2     8     9    1
     3     8    10    1
     4     8     1    1
     5     1     2   ar
     6     2     3   ar
     7     3     4   ar
     8     4    11    1
     9    11    13    1
    10    13    14    2
    11    14    15    1
    12     4     5   ar
    13     5     6   ar
    14     6     1   ar
    15    11    12    1
    16    15    16    1
@<TRIPOS>MOLECULE
*****
 16 16 0 0 0
SMALL
GASTEIGER

@<TRIPOS>ATOM
      1 C         -12.3357   -6.2341   18.9534 C.ar    1  UNL1       -0.0227
      2 C         -12.5953   -7.4998   18.1915 C.ar    1  UNL1       -0.0030
      3 C         -13.9685   -8.1034   18.1855 C.ar    1  UNL1        0.0143
      4 C         -15.0821   -7.4413   18.9415 C.ar    1  UNL1        0.0495
      5 C         -14.8224   -6.1756   19.7034 C.ar    1  UNL1        0.0143
      6 C         -13.4493   -5.5720   19.7093 C.ar    1  UNL1       -0.0030
      7 C         -10.3603   -6.9993   18.8419 C.3     1  UNL1        0.0044
      8 C         -10.9625   -5.6306   18.9593 C.3     1  UNL1        0.0189
      9 C         -11.5647   -4.2618   19.0767 C.3     1  UNL1        0.0044
     10 C          -9.5893   -5.0270   18.9653 C.3     1  UNL1        0.0044
     11 N         -16.4552   -8.0449   18.9355 N.pl3   1  UNL1       -0.2930
     12 H         -17.2035   -7.5617   18.5162 H       1  UNL1        0.1538
     13 C         -16.6883   -9.3847   19.5683 C.2     1  UNL1        0.2056
     14 N         -16.5902  -10.6322   18.7410 N.2     1  UNL1       -0.0679
     15 O         -16.8233  -11.9721   19.3739 O.2     1  UNL1       -0.4077
     16 H         -16.7621  -12.7513   18.8572 H       1  UNL1        0.3278
@<TRIPOS>BOND
     1     7     8    1
     2     8     9    1
     3     8    10    1
     4     8     1    1
     5     1     2   ar
     6     2     3   ar
     7     3     4   ar
     8     4    11    1
     9    11    13    1
    10    13    14    2
    11    14    15    1
    12     4     5   ar
    13     5     6   ar
    14     6     1   ar
    15    11    12    1
    16    15    16    1
@<TRIPOS>MOLECULE
*****
 16 16 0 0 0
SMALL
GASTEIGER

@<TRIPOS>ATOM
      1 C         -11.5558   -5.8663   18.0004 C.ar    1  UNL1       -0.0227
      2 C         -12.3165   -5.2365   19.1293 C.ar    1  UNL1       -0.0030
      3 C         -13.5759   -5.8762   19.6341 C.ar    1  UNL1        0.0143
      4 C         -14.0745   -7.1457   19.0100 C.ar    1  UNL1        0.0495
      5 C         -13.3138   -7.7755   17.8810 C.ar    1  UNL1        0.0143
      6 C         -12.0544   -7.1359   17.3762 C.ar    1  UNL1       -0.0030
      7 C         -10.8369   -5.2664   16.0969 C.3     1  UNL1        0.0044
      8 C         -10.2964   -5.2267   17.4956 C.3     1  UNL1        0.0189
      9 C          -9.7560   -5.1869   18.8943 C.3     1  UNL1        0.0044
     10 C          -9.0371   -4.5870   16.9908 C.3     1  UNL1        0.0044
     11 N         -15.3339   -7.7854   19.5148 N.pl3   1  UNL1       -0.2930
     12 H         -15.8893   -7.3201   20.1813 H       1  UNL1        0.1538
     13 C         -15.7469   -9.1339   19.0041 C.2     1  UNL1        0.2056
     14 N         -16.5349  -10.0596   19.8829 N.2     1  UNL1       -0.0679
     15 O         -16.9479  -11.4082   19.3721 O.2     1  UNL1       -0.4077
     16 H         -17.4401  -11.9864   19.9210 H       1  UNL1        0.3278
@<TRIPOS>BOND
     1     7     8    1
     2     8     9    1
     3     8    10    1
     4     8     1    1
     5     1     2   ar
     6     2     3   ar
     7     3     4   ar
     8     4    11    1
     9    11    13    1
    10    13    14    2
    11    14    15    1
    12     4     5   ar
    13     5     6   ar
    14     6     1   ar
    15    11    12    1
    16    15    16    1
@<TRIPOS>MOLECULE
*****
 16 16 0 0 0
SMALL
GASTEIGER

@<TRIPOS>ATOM
      1 C           5.2838  -12.7766   17.9513 C.ar    1  UNL1       -0.0227
      2 C           5.1792  -11.3444   17.5179 C.ar    1  UNL1       -0.0030
      3 C           6.1804  -10.3387   18.0040 C.ar    1  UNL1        0.0143
      4 C           7.2862  -10.7652   18.9234 C.ar    1  UNL1        0.0495
      5 C           7.3908  -12.1974   19.3567 C.ar    1  UNL1        0.0143
      6 C           6.3896  -13.2031   18.8706 C.ar    1  UNL1       -0.0030
      7 C           5.0117  -14.8651   18.2040 C.3     1  UNL1        0.0044
      8 C           4.2826  -13.7822   17.4652 C.3     1  UNL1        0.0189
      9 C           3.5536  -12.6994   16.7264 C.3     1  UNL1        0.0044
     10 C           3.2814  -14.7879   16.9792 C.3     1  UNL1        0.0044
     11 N           8.2874   -9.7595   19.4094 N.pl3   1  UNL1       -0.2930
     12 H           9.1901  -10.0512   19.6727 H       1  UNL1        0.1538
     13 C           7.9133   -8.3095   19.4943 C.2     1  UNL1        0.2056
     14 N           8.4343   -7.4651   20.6192 N.2     1  UNL1       -0.0679
     15 O           8.0602   -6.0149   20.7041 O.2     1  UNL1       -0.4077
     16 H           8.3857   -5.4874   21.4068 H       1  UNL1        0.3278
@<TRIPOS>BOND
     1     7     8    1
     2     8     9    1
     3     8    10    1
     4     8     1    1
     5     1     2   ar
     6     2     3   ar
     7     3     4   ar
     8     4    11    1
     9    11    13    1
    10    13    14    2
    11    14    15    1
    12     4     5   ar
    13     5     6   ar
    14     6     1   ar
    15    11    12    1
    16    15    16    1
