@<TRIPOS>MOLECULE
*****
 34 37 0 0 0
SMALL
GASTEIGER

@<TRIPOS>ATOM
      1 N         -14.5006   -4.8857   20.2503 N.am    1  UNL1       -0.2533
      2 C         -14.9607   -3.6077   19.6141 C.2     1  UNL1        0.3092
      3 O         -15.5845   -3.6311   18.2501 O.2     1  UNL1       -0.2521
      4 N         -14.7971   -2.3063   20.3417 N.am    1  UNL1       -0.2680
      5 H         -14.0912   -4.8703   21.1455 H       1  UNL1        0.1578
      6 H         -14.3877   -2.2909   21.2369 H       1  UNL1        0.1564
      7 C         -15.2573   -1.0283   19.7053 C.ar    1  UNL1        0.0516
      8 C         -14.4312   -0.3855   18.6309 C.ar    1  UNL1        0.0147
      9 C         -14.8913    0.8925   17.9946 C.ar    1  UNL1        0.0013
     10 C         -16.1776    1.5278   18.4326 C.ar    1  UNL1        0.0016
     11 C         -17.0037    0.8850   19.5070 C.ar    1  UNL1        0.0013
     12 C         -16.5435   -0.3930   20.1433 C.ar    1  UNL1        0.0147
     13 C         -16.6377    2.8058   17.7962 C.ar    1  UNL1        0.0192
     14 C         -15.6700    3.6470   17.0178 C.ar    1  UNL1        0.0031
     15 C         -16.1301    4.9250   16.3815 C.ar    1  UNL1        0.0207
     16 C         -17.5581    5.3618   16.5235 C.ar    1  UNL1        0.0989
     17 N         -18.5258    4.5206   17.3019 N.ar    1  UNL1       -0.2423
     18 C         -18.0657    3.2426   17.9383 C.ar    1  UNL1        0.0988
     19 N         -13.7514   -6.7242   18.4605 N.ar    1  UNL1       -0.2162
     20 N         -14.2924   -8.0491   18.0109 N.ar    1  UNL1       -0.1683
     21 C         -15.5395   -8.3308   18.7953 C.ar    1  UNL1        0.0810
     22 C         -15.7693   -7.1801   19.7297 C.ar    1  UNL1        0.0509
     23 C         -14.6642   -6.1872   19.5227 C.ar    1  UNL1        0.1380
     24 C          -8.8048   -4.0437   16.3758 C.3     1  UNL1        0.0310
     25 C         -10.0414   -4.7139   16.8970 C.ar    1  UNL1       -0.0218
     26 C         -11.2706   -4.7903   16.0407 C.ar    1  UNL1       -0.0027
     27 C         -12.5072   -5.4605   16.5618 C.ar    1  UNL1        0.0189
     28 C         -12.5147   -6.0541   17.9393 C.ar    1  UNL1        0.0842
     29 C         -11.2856   -5.9776   18.7956 C.ar    1  UNL1        0.0189
     30 C         -10.0489   -5.3075   18.2744 C.ar    1  UNL1       -0.0027
     31 C         -16.4049   -9.5494   18.6677 C.3     1  UNL1        0.0372
     32 C         -17.4715   -8.8769   19.4802 C.3     1  UNL1        0.0060
     33 C         -15.3383  -10.2218   17.8553 C.3     1  UNL1        0.0060
     34 C         -17.2703  -10.7679   18.5402 C.3     1  UNL1        0.0060
@<TRIPOS>BOND
     1    24    25    1
     2    25    26   ar
     3    26    27   ar
     4    27    28   ar
     5    28    19    1
     6    19    20   ar
     7    20    21   ar
     8    21    31    1
     9    31    32    1
    10    31    33    1
    11    31    34    1
    12    21    22   ar
    13    22    23   ar
    14    23     1    1
    15     1     2   am
    16     2     3    2
    17     2     4   am
    18     4     7    1
    19     7     8   ar
    20     8     9   ar
    21     9    10   ar
    22    10    13    1
    23    13    14   ar
    24    14    15   ar
    25    15    16   ar
    26    16    17   ar
    27    17    18   ar
    28    10    11   ar
    29    11    12   ar
    30    28    29   ar
    31    29    30   ar
    32    30    25   ar
    33    23    19   ar
    34    12     7   ar
    35    18    13   ar
    36     1     5    1
    37     4     6    1
@<TRIPOS>MOLECULE
*****
 34 37 0 0 0
SMALL
GASTEIGER

@<TRIPOS>ATOM
      1 N           0.3030    3.5761   24.8138 N.am    1  UNL1       -0.2533
      2 C           0.7801    2.3478   24.0974 C.2     1  UNL1        0.3092
      3 O          -0.0992    1.1349   24.0209 O.2     1  UNL1       -0.2521
      4 N           2.1367    2.3321   23.4574 N.am    1  UNL1       -0.2680
      5 H           0.8801    4.3721   24.8640 H       1  UNL1        0.1578
      6 H           2.7138    3.1281   23.5076 H       1  UNL1        0.1564
      7 C           2.6138    1.1037   22.7410 C.ar    1  UNL1        0.0516
      8 C           3.1233   -0.0704   23.5232 C.ar    1  UNL1        0.0147
      9 C           3.6005   -1.2989   22.8068 C.ar    1  UNL1        0.0013
     10 C           3.5680   -1.3533   21.3082 C.ar    1  UNL1        0.0016
     11 C           3.0585   -0.1792   20.5259 C.ar    1  UNL1        0.0013
     12 C           2.5814    1.0492   21.2424 C.ar    1  UNL1        0.0147
     13 C           4.0452   -2.5817   20.5917 C.ar    1  UNL1        0.0192
     14 C           3.2175   -3.1775   19.4917 C.ar    1  UNL1        0.0031
     15 C           3.6946   -4.4059   18.7753 C.ar    1  UNL1        0.0207
     16 C           4.9994   -5.0386   19.1589 C.ar    1  UNL1        0.0989
     17 N           5.8270   -4.4429   20.2589 N.ar    1  UNL1       -0.2423
     18 C           5.3499   -3.2145   20.9754 C.ar    1  UNL1        0.0988
     19 N          -1.4289    2.9198   26.7413 N.ar    1  UNL1       -0.2162
     20 N          -2.8802    3.1950   27.0018 N.ar    1  UNL1       -0.1683
     21 C          -3.4019    4.0371   25.8754 C.ar    1  UNL1        0.0810
     22 C          -2.2729    4.2824   24.9187 C.ar    1  UNL1        0.0509
     23 C          -1.0536    3.5918   25.4538 C.ar    1  UNL1        0.1380
     24 C           2.2324   -0.3031   30.2353 C.3     1  UNL1        0.0310
     25 C           1.3171    0.5026   29.3618 C.ar    1  UNL1       -0.0218
     26 C           0.0927   -0.1318   28.7716 C.ar    1  UNL1       -0.0027
     27 C          -0.8226    0.6739   27.8981 C.ar    1  UNL1        0.0189
     28 C          -0.5135    2.1141   27.6148 C.ar    1  UNL1        0.0842
     29 C           0.7108    2.7485   28.2050 C.ar    1  UNL1        0.0189
     30 C           1.6261    1.9428   29.0785 C.ar    1  UNL1       -0.0027
     31 C          -4.8059    4.5447   25.7312 C.3     1  UNL1        0.0372
     32 C          -4.9785    3.7155   24.4932 C.3     1  UNL1        0.0060
     33 C          -4.6334    5.3739   26.9691 C.3     1  UNL1        0.0060
     34 C          -6.2100    5.0524   25.5869 C.3     1  UNL1        0.0060
@<TRIPOS>BOND
     1    24    25    1
     2    25    26   ar
     3    26    27   ar
     4    27    28   ar
     5    28    19    1
     6    19    20   ar
     7    20    21   ar
     8    21    31    1
     9    31    32    1
    10    31    33    1
    11    31    34    1
    12    21    22   ar
    13    22    23   ar
    14    23     1    1
    15     1     2   am
    16     2     3    2
    17     2     4   am
    18     4     7    1
    19     7     8   ar
    20     8     9   ar
    21     9    10   ar
    22    10    13    1
    23    13    14   ar
    24    14    15   ar
    25    15    16   ar
    26    16    17   ar
    27    17    18   ar
    28    10    11   ar
    29    11    12   ar
    30    28    29   ar
    31    29    30   ar
    32    30    25   ar
    33    23    19   ar
    34    12     7   ar
    35    18    13   ar
    36     1     5    1
    37     4     6    1
@<TRIPOS>MOLECULE
*****
 34 37 0 0 0
SMALL
GASTEIGER

@<TRIPOS>ATOM
      1 N           3.4353    0.3222   22.2753 N.am    1  UNL1       -0.2533
      2 C           2.1116    0.8820   22.7046 C.2     1  UNL1        0.3092
      3 O           0.8612    0.4981   21.9703 O.2     1  UNL1       -0.2521
      4 N           2.0381    1.8257   23.8683 N.am    1  UNL1       -0.2680
      5 H           4.2559    0.5742   22.7573 H       1  UNL1        0.1578
      6 H           2.8587    2.0776   24.3503 H       1  UNL1        0.1564
      7 C           0.7143    2.3854   24.2976 C.ar    1  UNL1        0.0516
      8 C           0.0401    1.8565   25.5287 C.ar    1  UNL1        0.0147
      9 C          -1.2837    2.4163   25.9580 C.ar    1  UNL1        0.0013
     10 C          -1.9333    3.5049   25.1562 C.ar    1  UNL1        0.0016
     11 C          -1.2590    4.0338   23.9250 C.ar    1  UNL1        0.0013
     12 C           0.0647    3.4740   23.4958 C.ar    1  UNL1        0.0147
     13 C          -3.2571    4.0646   25.5854 C.ar    1  UNL1        0.0192
     14 C          -4.4523    3.9358   24.6883 C.ar    1  UNL1        0.0031
     15 C          -5.7761    4.4955   25.1176 C.ar    1  UNL1        0.0207
     16 C          -5.9046    5.1841   26.4440 C.ar    1  UNL1        0.0989
     17 N          -4.7094    5.3130   27.3411 N.ar    1  UNL1       -0.2423
     18 C          -3.3856    4.7532   26.9118 C.ar    1  UNL1        0.0988
     19 N           3.1035   -0.3142   19.7005 N.ar    1  UNL1       -0.2162
     20 N           3.3447   -1.5409   18.8716 N.ar    1  UNL1       -0.1683
     21 C           3.8990   -2.6062   19.7704 C.ar    1  UNL1        0.0810
     22 C           4.0004   -2.0379   21.1549 C.ar    1  UNL1        0.0509
     23 C           3.5088   -0.6214   21.1116 C.ar    1  UNL1        0.1380
     24 C           0.9040    4.9046   17.7193 C.3     1  UNL1        0.0310
     25 C           1.4539    3.5999   18.2146 C.ar    1  UNL1       -0.0218
     26 C           0.5825    2.3792   18.2377 C.ar    1  UNL1       -0.0027
     27 C           1.1324    1.0745   18.7330 C.ar    1  UNL1        0.0189
     28 C           2.5536    0.9905   19.2052 C.ar    1  UNL1        0.0842
     29 C           3.4250    2.2112   19.1820 C.ar    1  UNL1        0.0189
     30 C           2.8751    3.5159   18.6867 C.ar    1  UNL1       -0.0027
     31 C           4.2843   -3.9958   19.3574 C.3     1  UNL1        0.0372
     32 C           2.8648   -4.2707   18.9581 C.3     1  UNL1        0.0060
     33 C           5.7038   -3.7209   19.7566 C.3     1  UNL1        0.0060
     34 C           4.6695   -5.3853   18.9443 C.3     1  UNL1        0.0060
@<TRIPOS>BOND
     1    24    25    1
     2    25    26   ar
     3    26    27   ar
     4    27    28   ar
     5    28    19    1
     6    19    20   ar
     7    20    21   ar
     8    21    31    1
     9    31    32    1
    10    31    33    1
    11    31    34    1
    12    21    22   ar
    13    22    23   ar
    14    23     1    1
    15     1     2   am
    16     2     3    2
    17     2     4   am
    18     4     7    1
    19     7     8   ar
    20     8     9   ar
    21     9    10   ar
    22    10    13    1
    23    13    14   ar
    24    14    15   ar
    25    15    16   ar
    26    16    17   ar
    27    17    18   ar
    28    10    11   ar
    29    11    12   ar
    30    28    29   ar
    31    29    30   ar
    32    30    25   ar
    33    23    19   ar
    34    12     7   ar
    35    18    13   ar
    36     1     5    1
    37     4     6    1
@<TRIPOS>MOLECULE
*****
 34 37 0 0 0
SMALL
GASTEIGER

@<TRIPOS>ATOM
      1 N           4.5322    1.2344   28.4048 N.am    1  UNL1       -0.2533
      2 C           4.4429    0.3239   27.2162 C.2     1  UNL1        0.3092
      3 O           3.7695   -1.0106   27.3425 O.2     1  UNL1       -0.2521
      4 N           5.0270    0.7477   25.9012 N.am    1  UNL1       -0.2680
      5 H           4.9742    2.1101   28.3219 H       1  UNL1        0.1578
      6 H           5.4690    1.6235   25.8182 H       1  UNL1        0.1564
      7 C           4.9377   -0.1629   24.7125 C.ar    1  UNL1        0.0516
      8 C           3.6237   -0.3612   24.0167 C.ar    1  UNL1        0.0147
      9 C           3.5343   -1.2718   22.8281 C.ar    1  UNL1        0.0013
     10 C           4.7589   -1.9841   22.3352 C.ar    1  UNL1        0.0016
     11 C           6.0729   -1.7857   23.0310 C.ar    1  UNL1        0.0013
     12 C           6.1622   -0.8752   24.2196 C.ar    1  UNL1        0.0147
     13 C           4.6696   -2.8946   21.1465 C.ar    1  UNL1        0.0192
     14 C           3.5514   -2.7326   20.1600 C.ar    1  UNL1        0.0031
     15 C           3.4620   -3.6431   18.9713 C.ar    1  UNL1        0.0207
     16 C           4.4909   -4.7158   18.7693 C.ar    1  UNL1        0.0989
     17 N           5.6091   -4.8778   19.7559 N.ar    1  UNL1       -0.2423
     18 C           5.6984   -3.9673   20.9445 C.ar    1  UNL1        0.0988
     19 N           2.4987    0.8710   30.1012 N.ar    1  UNL1       -0.2162
     20 N           2.3658    0.3497   31.5014 N.ar    1  UNL1       -0.1683
     21 C           3.7331   -0.0329   31.9854 C.ar    1  UNL1        0.0810
     22 C           4.7110    0.2519   30.8843 C.ar    1  UNL1        0.0509
     23 C           3.9482    0.8106   29.7198 C.ar    1  UNL1        0.1380
     24 C          -1.9808    2.8503   26.6347 C.3     1  UNL1        0.0310
     25 C          -0.8609    2.3555   27.5013 C.ar    1  UNL1       -0.0218
     26 C           0.1867    3.3107   27.9911 C.ar    1  UNL1       -0.0027
     27 C           1.3066    2.8159   28.8578 C.ar    1  UNL1        0.0189
     28 C           1.3789    1.3658   29.2346 C.ar    1  UNL1        0.0842
     29 C           0.3312    0.4106   28.7448 C.ar    1  UNL1        0.0189
     30 C          -0.7886    0.9054   27.8782 C.ar    1  UNL1       -0.0027
     31 C           4.0642   -0.6006   33.3337 C.3     1  UNL1        0.0372
     32 C           4.2990   -1.9445   32.7102 C.3     1  UNL1        0.0060
     33 C           3.8293    0.7433   33.9573 C.3     1  UNL1        0.0060
     34 C           4.3953   -1.1683   34.6821 C.3     1  UNL1        0.0060
@<TRIPOS>BOND
     1    24    25    1
     2    25    26   ar
     3    26    27   ar
     4    27    28   ar
     5    28    19    1
     6    19    20   ar
     7    20    21   ar
     8    21    31    1
     9    31    32    1
    10    31    33    1
    11    31    34    1
    12    21    22   ar
    13    22    23   ar
    14    23     1    1
    15     1     2   am
    16     2     3    2
    17     2     4   am
    18     4     7    1
    19     7     8   ar
    20     8     9   ar
    21     9    10   ar
    22    10    13    1
    23    13    14   ar
    24    14    15   ar
    25    15    16   ar
    26    16    17   ar
    27    17    18   ar
    28    10    11   ar
    29    11    12   ar
    30    28    29   ar
    31    29    30   ar
    32    30    25   ar
    33    23    19   ar
    34    12     7   ar
    35    18    13   ar
    36     1     5    1
    37     4     6    1
@<TRIPOS>MOLECULE
*****
 34 37 0 0 0
SMALL
GASTEIGER

@<TRIPOS>ATOM
      1 N           3.6060   -1.2067   31.8112 N.am    1  UNL1       -0.2533
      2 C           2.7843   -0.3223   30.9210 C.2     1  UNL1        0.3092
      3 O           2.6557    1.1402   31.2289 O.2     1  UNL1       -0.2521
      4 N           2.0911   -0.9002   29.7229 N.am    1  UNL1       -0.2680
      5 H           3.6903   -2.1665   31.6091 H       1  UNL1        0.1578
      6 H           2.1754   -1.8600   29.5208 H       1  UNL1        0.1564
      7 C           1.2694   -0.0157   28.8327 C.ar    1  UNL1        0.0516
      8 C          -0.2228    0.0193   28.9811 C.ar    1  UNL1        0.0147
      9 C          -1.0445    0.9038   28.0909 C.ar    1  UNL1        0.0013
     10 C          -0.3741    1.7533   27.0523 C.ar    1  UNL1        0.0016
     11 C           1.1181    1.7183   26.9039 C.ar    1  UNL1        0.0013
     12 C           1.9398    0.8338   27.7941 C.ar    1  UNL1        0.0147
     13 C          -1.1958    2.6378   26.1621 C.ar    1  UNL1        0.0192
     14 C          -2.4284    3.3039   26.6979 C.ar    1  UNL1        0.0031
     15 C          -3.2501    4.1884   25.8077 C.ar    1  UNL1        0.0207
     16 C          -2.8392    4.4068   24.3817 C.ar    1  UNL1        0.0989
     17 N          -1.6066    3.7408   23.8459 N.ar    1  UNL1       -0.2423
     18 C          -0.7849    2.8563   24.7361 C.ar    1  UNL1        0.0988
     19 N           5.6745   -0.9861   33.4898 N.ar    1  UNL1       -0.2162
     20 N           5.9640   -0.1702   34.7147 N.ar    1  UNL1       -0.1683
     21 C           4.7677    0.6914   34.9913 C.ar    1  UNL1        0.0810
     22 C           3.7387    0.4080   33.9373 C.ar    1  UNL1        0.0509
     23 C           4.2992   -0.6287   33.0093 C.ar    1  UNL1        0.1380
     24 C           9.3689   -4.9779   30.9566 C.3     1  UNL1        0.0310
     25 C           8.4453   -3.9799   31.5899 C.ar    1  UNL1       -0.0218
     26 C           8.9765   -2.6570   32.0564 C.ar    1  UNL1       -0.0027
     27 C           8.0529   -1.6590   32.6896 C.ar    1  UNL1        0.0189
     28 C           6.5981   -1.9840   32.8565 C.ar    1  UNL1        0.0842
     29 C           6.0669   -3.3069   32.3900 C.ar    1  UNL1        0.0189
     30 C           6.9905   -4.3049   31.7567 C.ar    1  UNL1       -0.0027
     31 C           4.6253    1.6653   36.1232 C.3     1  UNL1        0.0372
     32 C           4.4570    2.7846   35.1390 C.3     1  UNL1        0.0060
     33 C           4.7937    0.5460   37.1075 C.3     1  UNL1        0.0060
     34 C           4.4829    2.6392   37.2551 C.3     1  UNL1        0.0060
@<TRIPOS>BOND
     1    24    25    1
     2    25    26   ar
     3    26    27   ar
     4    27    28   ar
     5    28    19    1
     6    19    20   ar
     7    20    21   ar
     8    21    31    1
     9    31    32    1
    10    31    33    1
    11    31    34    1
    12    21    22   ar
    13    22    23   ar
    14    23     1    1
    15     1     2   am
    16     2     3    2
    17     2     4   am
    18     4     7    1
    19     7     8   ar
    20     8     9   ar
    21     9    10   ar
    22    10    13    1
    23    13    14   ar
    24    14    15   ar
    25    15    16   ar
    26    16    17   ar
    27    17    18   ar
    28    10    11   ar
    29    11    12   ar
    30    28    29   ar
    31    29    30   ar
    32    30    25   ar
    33    23    19   ar
    34    12     7   ar
    35    18    13   ar
    36     1     5    1
    37     4     6    1
@<TRIPOS>MOLECULE
*****
 34 37 0 0 0
SMALL
GASTEIGER

@<TRIPOS>ATOM
      1 N          -0.9886    3.9747   24.1456 N.am    1  UNL1       -0.2533
      2 C          -0.3068    3.2196   25.2477 C.2     1  UNL1        0.3092
      3 O           0.2942    1.8728   24.9740 O.2     1  UNL1       -0.2521
      4 N          -0.2258    3.8113   26.6237 N.am    1  UNL1       -0.2680
      5 H          -1.3831    4.8586   24.3253 H       1  UNL1        0.1578
      6 H          -0.6202    4.6952   26.8035 H       1  UNL1        0.1564
      7 C           0.4562    3.0561   27.7259 C.ar    1  UNL1        0.0516
      8 C           1.7993    3.5032   28.2219 C.ar    1  UNL1        0.0147
      9 C           2.4812    2.7481   29.3240 C.ar    1  UNL1        0.0013
     10 C           1.8201    1.5459   29.9302 C.ar    1  UNL1        0.0016
     11 C           0.4769    1.0988   29.4342 C.ar    1  UNL1        0.0013
     12 C          -0.2050    1.8539   28.3320 C.ar    1  UNL1        0.0147
     13 C           2.5020    0.7907   31.0323 C.ar    1  UNL1        0.0192
     14 C           2.8745    1.4935   32.3041 C.ar    1  UNL1        0.0031
     15 C           3.5564    0.7383   33.4063 C.ar    1  UNL1        0.0207
     16 C           3.8658   -0.7196   33.2366 C.ar    1  UNL1        0.0989
     17 N           3.4933   -1.4223   31.9649 N.ar    1  UNL1       -0.2423
     18 C           2.8114   -0.6672   30.8627 C.ar    1  UNL1        0.0988
     19 N          -2.3201    3.1959   21.9625 N.ar    1  UNL1       -0.2162
     20 N          -1.9377    2.5719   20.6532 N.ar    1  UNL1       -0.1683
     21 C          -0.4509    2.3733   20.6511 C.ar    1  UNL1        0.0810
     22 C           0.0856    2.8746   21.9591 C.ar    1  UNL1        0.0509
     23 C          -1.0697    3.3830   22.7696 C.ar    1  UNL1        0.1380
     24 C          -7.8761    4.6826   23.6715 C.3     1  UNL1        0.0310
     25 C          -6.4871    4.3109   23.2442 C.ar    1  UNL1       -0.0218
     26 C          -6.0569    4.5252   21.8234 C.ar    1  UNL1       -0.0027
     27 C          -4.6679    4.1535   21.3961 C.ar    1  UNL1        0.0189
     28 C          -3.7091    3.5676   22.3898 C.ar    1  UNL1        0.0842
     29 C          -4.1394    3.3533   23.8106 C.ar    1  UNL1        0.0189
     30 C          -5.5284    3.7249   24.2379 C.ar    1  UNL1       -0.0027
     31 C           0.3575    1.7779   19.5366 C.3     1  UNL1        0.0372
     32 C           0.3453    0.4513   20.2364 C.3     1  UNL1        0.0060
     33 C           0.3697    3.1046   18.8367 C.3     1  UNL1        0.0060
     34 C           1.1659    1.1826   18.4221 C.3     1  UNL1        0.0060
@<TRIPOS>BOND
     1    24    25    1
     2    25    26   ar
     3    26    27   ar
     4    27    28   ar
     5    28    19    1
     6    19    20   ar
     7    20    21   ar
     8    21    31    1
     9    31    32    1
    10    31    33    1
    11    31    34    1
    12    21    22   ar
    13    22    23   ar
    14    23     1    1
    15     1     2   am
    16     2     3    2
    17     2     4   am
    18     4     7    1
    19     7     8   ar
    20     8     9   ar
    21     9    10   ar
    22    10    13    1
    23    13    14   ar
    24    14    15   ar
    25    15    16   ar
    26    16    17   ar
    27    17    18   ar
    28    10    11   ar
    29    11    12   ar
    30    28    29   ar
    31    29    30   ar
    32    30    25   ar
    33    23    19   ar
    34    12     7   ar
    35    18    13   ar
    36     1     5    1
    37     4     6    1
@<TRIPOS>MOLECULE
*****
 34 37 0 0 0
SMALL
GASTEIGER

@<TRIPOS>ATOM
      1 N           0.4605    3.6896   23.0354 N.am    1  UNL1       -0.2533
      2 C           0.8700    2.8613   24.2169 C.2     1  UNL1        0.3092
      3 O          -0.0514    1.8025   24.7462 O.2     1  UNL1       -0.2521
      4 N           2.2009    3.0917   24.8693 N.am    1  UNL1       -0.2680
      5 H           1.0652    4.3845   22.6881 H       1  UNL1        0.1578
      6 H           2.8057    3.7866   24.5220 H       1  UNL1        0.1564
      7 C           2.6104    2.2633   26.0509 C.ar    1  UNL1        0.0516
      8 C           3.2321    0.9143   25.8418 C.ar    1  UNL1        0.0147
      9 C           3.6415    0.0859   27.0234 C.ar    1  UNL1        0.0013
     10 C           3.4294    0.6065   28.4140 C.ar    1  UNL1        0.0016
     11 C           2.8078    1.9555   28.6231 C.ar    1  UNL1        0.0013
     12 C           2.3983    2.7839   27.4416 C.ar    1  UNL1        0.0147
     13 C           3.8389   -0.2219   29.5956 C.ar    1  UNL1        0.0192
     14 C           5.2061   -0.8374   29.6424 C.ar    1  UNL1        0.0031
     15 C           5.6155   -1.6657   30.8240 C.ar    1  UNL1        0.0207
     16 C           4.6579   -1.8787   31.9587 C.ar    1  UNL1        0.0989
     17 N           3.2908   -1.2632   31.9118 N.ar    1  UNL1       -0.2423
     18 C           2.8813   -0.4348   30.7303 C.ar    1  UNL1        0.0988
     19 N          -1.1124    2.6792   21.1249 N.ar    1  UNL1       -0.2162
     20 N          -2.5845    2.7064   20.8386 N.ar    1  UNL1       -0.1683
     21 C          -3.2524    3.5032   21.9197 C.ar    1  UNL1        0.0810
     22 C          -2.1930    3.9686   22.8743 C.ar    1  UNL1        0.0509
     23 C          -0.8704    3.4593   22.3830 C.ar    1  UNL1        0.1380
     24 C           3.0735   -0.0676   17.8182 C.3     1  UNL1        0.0310
     25 C           2.0270    0.6191   18.6449 C.ar    1  UNL1       -0.0218
     26 C           1.2342   -0.1617   19.6507 C.ar    1  UNL1       -0.0027
     27 C           0.1877    0.5250   20.4774 C.ar    1  UNL1        0.0189
     28 C          -0.0659    1.9925   20.2982 C.ar    1  UNL1        0.0842
     29 C           0.7269    2.7733   19.2924 C.ar    1  UNL1        0.0189
     30 C           1.7734    2.0866   18.4658 C.ar    1  UNL1       -0.0027
     31 C          -4.7217    3.7853   22.0274 C.3     1  UNL1        0.0372
     32 C          -4.5295    4.2469   23.4416 C.3     1  UNL1        0.0060
     33 C          -4.9140    3.3236   20.6133 C.3     1  UNL1        0.0060
     34 C          -6.1910    4.0673   22.1351 C.3     1  UNL1        0.0060
@<TRIPOS>BOND
     1    24    25    1
     2    25    26   ar
     3    26    27   ar
     4    27    28   ar
     5    28    19    1
     6    19    20   ar
     7    20    21   ar
     8    21    31    1
     9    31    32    1
    10    31    33    1
    11    31    34    1
    12    21    22   ar
    13    22    23   ar
    14    23     1    1
    15     1     2   am
    16     2     3    2
    17     2     4   am
    18     4     7    1
    19     7     8   ar
    20     8     9   ar
    21     9    10   ar
    22    10    13    1
    23    13    14   ar
    24    14    15   ar
    25    15    16   ar
    26    16    17   ar
    27    17    18   ar
    28    10    11   ar
    29    11    12   ar
    30    28    29   ar
    31    29    30   ar
    32    30    25   ar
    33    23    19   ar
    34    12     7   ar
    35    18    13   ar
    36     1     5    1
    37     4     6    1
@<TRIPOS>MOLECULE
*****
 34 37 0 0 0
SMALL
GASTEIGER

@<TRIPOS>ATOM
      1 N           3.1587    1.1525   21.6437 N.am    1  UNL1       -0.2533
      2 C           1.7203    1.5328   21.8331 C.2     1  UNL1        0.3092
      3 O           0.6721    0.9867   20.9093 O.2     1  UNL1       -0.2521
      4 N           1.3297    2.4593   22.9463 N.am    1  UNL1       -0.2680
      5 H           3.8466    1.5109   22.2499 H       1  UNL1        0.1578
      6 H           2.0176    2.8178   23.5526 H       1  UNL1        0.1564
      7 C          -0.1088    2.8397   23.1357 C.ar    1  UNL1        0.0516
      8 C          -0.7197    2.8049   24.5052 C.ar    1  UNL1        0.0147
      9 C          -2.1583    3.1853   24.6946 C.ar    1  UNL1        0.0013
     10 C          -2.9860    3.6003   23.5145 C.ar    1  UNL1        0.0016
     11 C          -2.3751    3.6351   22.1450 C.ar    1  UNL1        0.0013
     12 C          -0.9365    3.2547   21.9556 C.ar    1  UNL1        0.0147
     13 C          -4.4246    3.9807   23.7039 C.ar    1  UNL1        0.0192
     14 C          -4.8643    4.6417   24.9766 C.ar    1  UNL1        0.0031
     15 C          -6.3028    5.0221   25.1660 C.ar    1  UNL1        0.0207
     16 C          -7.3017    4.7414   24.0827 C.ar    1  UNL1        0.0989
     17 N          -6.8620    4.0803   22.8101 N.ar    1  UNL1       -0.2423
     18 C          -5.4234    3.6999   22.6207 C.ar    1  UNL1        0.0988
     19 N           3.8096    0.6192   19.1065 N.ar    1  UNL1       -0.2162
     20 N           4.1693   -0.6202   18.3419 N.ar    1  UNL1       -0.1683
     21 C           4.1312   -1.7793   19.2932 C.ar    1  UNL1        0.0810
     22 C           3.7480   -1.2563   20.6459 C.ar    1  UNL1        0.0509
     23 C           3.5493    0.2260   20.5305 C.ar    1  UNL1        0.1380
     24 C           3.4718    6.1738   16.8633 C.3     1  UNL1        0.0310
     25 C           3.5563    4.7851   17.4241 C.ar    1  UNL1       -0.0218
     26 C           2.3261    4.1184   17.9645 C.ar    1  UNL1       -0.0027
     27 C           2.4105    2.7298   18.5253 C.ar    1  UNL1        0.0189
     28 C           3.7252    2.0078   18.5457 C.ar    1  UNL1        0.0842
     29 C           4.9554    2.6745   18.0053 C.ar    1  UNL1        0.0189
     30 C           4.8709    4.0632   17.4445 C.ar    1  UNL1       -0.0027
     31 C           4.4248   -3.2101   18.9519 C.3     1  UNL1        0.0372
     32 C           3.1926   -3.6394   19.6918 C.3     1  UNL1        0.0060
     33 C           5.6569   -2.7808   18.2119 C.3     1  UNL1        0.0060
     34 C           4.7183   -4.6409   18.6105 C.3     1  UNL1        0.0060
@<TRIPOS>BOND
     1    24    25    1
     2    25    26   ar
     3    26    27   ar
     4    27    28   ar
     5    28    19    1
     6    19    20   ar
     7    20    21   ar
     8    21    31    1
     9    31    32    1
    10    31    33    1
    11    31    34    1
    12    21    22   ar
    13    22    23   ar
    14    23     1    1
    15     1     2   am
    16     2     3    2
    17     2     4   am
    18     4     7    1
    19     7     8   ar
    20     8     9   ar
    21     9    10   ar
    22    10    13    1
    23    13    14   ar
    24    14    15   ar
    25    15    16   ar
    26    16    17   ar
    27    17    18   ar
    28    10    11   ar
    29    11    12   ar
    30    28    29   ar
    31    29    30   ar
    32    30    25   ar
    33    23    19   ar
    34    12     7   ar
    35    18    13   ar
    36     1     5    1
    37     4     6    1
@<TRIPOS>MOLECULE
*****
 34 37 0 0 0
SMALL
GASTEIGER

@<TRIPOS>ATOM
      1 N           4.1332    0.9719   24.6453 N.am    1  UNL1       -0.2533
      2 C           4.5611   -0.3992   25.0773 C.2     1  UNL1        0.3092
      3 O           3.5314   -1.4565   25.3456 O.2     1  UNL1       -0.2521
      4 N           6.0187   -0.7132   25.2412 N.am    1  UNL1       -0.2680
      5 H           4.8090    1.6659   24.4693 H       1  UNL1        0.1578
      6 H           6.6945   -0.0193   25.0651 H       1  UNL1        0.1564
      7 C           6.4465   -2.0844   25.6732 C.ar    1  UNL1        0.0516
      8 C           6.4764   -3.2084   24.6803 C.ar    1  UNL1        0.0147
      9 C           6.9043   -4.5796   25.1124 C.ar    1  UNL1        0.0013
     10 C           7.3023   -4.8269   26.5373 C.ar    1  UNL1        0.0016
     11 C           7.2724   -3.7030   27.5302 C.ar    1  UNL1        0.0013
     12 C           6.8445   -2.3318   27.0981 C.ar    1  UNL1        0.0147
     13 C           7.7301   -6.1982   26.9693 C.ar    1  UNL1        0.0192
     14 C           8.6527   -6.3616   28.1407 C.ar    1  UNL1        0.0031
     15 C           9.0806   -7.7329   28.5727 C.ar    1  UNL1        0.0207
     16 C           8.5859   -8.9406   27.8334 C.ar    1  UNL1        0.0989
     17 N           7.6633   -8.7771   26.6620 N.ar    1  UNL1       -0.2423
     18 C           7.2354   -7.4059   26.2300 C.ar    1  UNL1        0.0988
     19 N           1.8609    1.0690   23.2408 N.ar    1  UNL1       -0.2162
     20 N           0.4586    1.5210   23.5222 N.ar    1  UNL1       -0.1683
     21 C           0.4066    2.0174   24.9367 C.ar    1  UNL1        0.0810
     22 C           1.7767    1.8721   25.5296 C.ar    1  UNL1        0.0509
     23 C           2.6756    1.2860   24.4815 C.ar    1  UNL1        0.1380
     24 C           3.8606   -1.2074   18.0620 C.3     1  UNL1        0.0310
     25 C           3.3607   -0.6383   19.3567 C.ar    1  UNL1       -0.0218
     26 C           2.9664    0.8066   19.4383 C.ar    1  UNL1       -0.0027
     27 C           2.4665    1.3757   20.7330 C.ar    1  UNL1        0.0189
     28 C           2.3609    0.4999   21.9461 C.ar    1  UNL1        0.0842
     29 C           2.7551   -0.9450   21.8645 C.ar    1  UNL1        0.0189
     30 C           3.2550   -1.5141   20.5698 C.ar    1  UNL1       -0.0027
     31 C          -0.8033    2.5631   25.6356 C.3     1  UNL1        0.0372
     32 C          -1.1422    3.3710   24.4180 C.3     1  UNL1        0.0060
     33 C          -0.4643    1.7553   26.8532 C.3     1  UNL1        0.0060
     34 C          -2.0131    3.1089   26.3345 C.3     1  UNL1        0.0060
@<TRIPOS>BOND
     1    24    25    1
     2    25    26   ar
     3    26    27   ar
     4    27    28   ar
     5    28    19    1
     6    19    20   ar
     7    20    21   ar
     8    21    31    1
     9    31    32    1
    10    31    33    1
    11    31    34    1
    12    21    22   ar
    13    22    23   ar
    14    23     1    1
    15     1     2   am
    16     2     3    2
    17     2     4   am
    18     4     7    1
    19     7     8   ar
    20     8     9   ar
    21     9    10   ar
    22    10    13    1
    23    13    14   ar
    24    14    15   ar
    25    15    16   ar
    26    16    17   ar
    27    17    18   ar
    28    10    11   ar
    29    11    12   ar
    30    28    29   ar
    31    29    30   ar
    32    30    25   ar
    33    23    19   ar
    34    12     7   ar
    35    18    13   ar
    36     1     5    1
    37     4     6    1
