@<TRIPOS>MOLECULE
*****
 22 23 0 0 0
SMALL
GASTEIGER

@<TRIPOS>ATOM
      1 C         -11.4542  -17.8131   21.1788 C.ar    1  UNL1        0.0123
      2 C         -12.6578  -17.6556   22.0599 C.ar    1  UNL1       -0.0013
      3 C         -12.6425  -18.2050   23.4556 C.ar    1  UNL1       -0.0001
      4 C         -11.4237  -18.9117   23.9702 C.ar    1  UNL1        0.0031
      5 C         -10.2201  -19.0692   23.0890 C.ar    1  UNL1        0.0369
      6 C          -8.8851  -19.7135   23.3190 C.ar    1  UNL1        0.0360
      7 C          -8.0754  -19.5624   22.0654 C.ar    1  UNL1        0.1253
      8 O          -8.9098  -18.8247   21.0607 O.2     1  UNL1       -0.4580
      9 C         -10.2353  -18.5199   21.6933 C.ar    1  UNL1        0.1408
     10 C         -11.5179  -15.7811   19.5611 C.3     1  UNL1        0.0051
     11 C         -11.4694  -17.2638   19.7830 C.3     1  UNL1        0.0295
     12 C          -6.6767  -20.0614   21.8537 C.3     1  UNL1        0.0951
     13 C          -5.8644  -19.5502   20.7010 C.3     1  UNL1        0.1337
     14 O          -6.4346  -18.5073   19.7858 O.3     1  UNL1       -0.3826
     15 H          -5.7849  -18.2897   19.0991 H       1  UNL1        0.2104
     16 C          -4.4820  -20.0817   20.4634 C.3     1  UNL1        0.0985
     17 N          -3.5581  -19.3728   19.5179 N.3     1  UNL1       -0.2976
     18 H          -4.1029  -18.6347   19.0719 H       1  UNL1        0.1232
     19 C          -2.3032  -18.7332   20.0338 C.3     1  UNL1        0.0421
     20 C          -2.3369  -19.6342   21.2326 C.3     1  UNL1        0.0158
     21 C          -2.2696  -17.8322   18.8351 C.3     1  UNL1        0.0158
     22 C          -1.0483  -18.0936   20.5497 C.3     1  UNL1        0.0158
@<TRIPOS>BOND
     1    10    11    1
     2    11     1    1
     3     1     2   ar
     4     2     3   ar
     5     3     4   ar
     6     4     5   ar
     7     5     6   ar
     8     6     7   ar
     9     7    12    1
    10    12    13    1
    11    13    14    1
    12    13    16    1
    13    16    17    1
    14    17    19    1
    15    19    20    1
    16    19    21    1
    17    19    22    1
    18     7     8   ar
    19     8     9   ar
    20     9     1   ar
    21     9     5   ar
    22    14    15    1
    23    17    18    1
@<TRIPOS>MOLECULE
*****
 22 23 0 0 0
SMALL
GASTEIGER

@<TRIPOS>ATOM
      1 C         -10.1984  -17.1260   22.9902 C.ar    1  UNL1        0.0123
      2 C         -11.6453  -16.8154   22.7456 C.ar    1  UNL1       -0.0013
      3 C         -12.3311  -17.3507   21.5236 C.ar    1  UNL1       -0.0001
      4 C         -11.5700  -18.1965   20.5463 C.ar    1  UNL1        0.0031
      5 C         -10.1231  -18.5071   20.7910 C.ar    1  UNL1        0.0369
      6 C          -9.1225  -19.3076   20.0110 C.ar    1  UNL1        0.0360
      7 C          -7.8184  -19.2670   20.7509 C.ar    1  UNL1        0.1253
      8 O          -8.0129  -18.4415   21.9881 O.2     1  UNL1       -0.4580
      9 C          -9.4373  -17.9719   22.0129 C.ar    1  UNL1        0.1408
     10 C          -8.2991  -15.7204   24.0705 C.3     1  UNL1        0.0051
     11 C          -9.5125  -16.5907   24.2121 C.3     1  UNL1        0.0295
     12 C          -6.5435  -19.9347   20.3279 C.3     1  UNL1        0.0951
     13 C          -5.2363  -19.4993   20.9208 C.3     1  UNL1        0.1337
     14 O          -5.1045  -19.3331   22.4057 O.3     1  UNL1       -0.3826
     15 H          -4.2021  -19.0492   22.6205 H       1  UNL1        0.2104
     16 C          -4.0608  -19.2301   20.0287 C.3     1  UNL1        0.0985
     17 N          -3.5115  -17.8392   19.9112 N.3     1  UNL1       -0.2976
     18 H          -3.9643  -17.2816   20.6354 H       1  UNL1        0.1232
     19 C          -2.0361  -17.6020   20.0413 C.3     1  UNL1        0.0421
     20 C          -2.2061  -17.3503   21.5102 C.3     1  UNL1        0.0158
     21 C          -1.8661  -17.8537   18.5723 C.3     1  UNL1        0.0158
     22 C          -0.5607  -17.3649   20.1713 C.3     1  UNL1        0.0158
@<TRIPOS>BOND
     1    10    11    1
     2    11     1    1
     3     1     2   ar
     4     2     3   ar
     5     3     4   ar
     6     4     5   ar
     7     5     6   ar
     8     6     7   ar
     9     7    12    1
    10    12    13    1
    11    13    14    1
    12    13    16    1
    13    16    17    1
    14    17    19    1
    15    19    20    1
    16    19    21    1
    17    19    22    1
    18     7     8   ar
    19     8     9   ar
    20     9     1   ar
    21     9     5   ar
    22    14    15    1
    23    17    18    1
@<TRIPOS>MOLECULE
*****
 22 23 0 0 0
SMALL
GASTEIGER

@<TRIPOS>ATOM
      1 C          -5.9370  -15.6208   24.8010 C.ar    1  UNL1        0.0123
      2 C          -5.5454  -15.2322   26.1959 C.ar    1  UNL1       -0.0013
      3 C          -6.5641  -15.2609   27.2964 C.ar    1  UNL1       -0.0001
      4 C          -7.9745  -15.6780   27.0022 C.ar    1  UNL1        0.0031
      5 C          -8.3662  -16.0666   25.6074 C.ar    1  UNL1        0.0369
      6 C          -9.6705  -16.5179   25.0199 C.ar    1  UNL1        0.0360
      7 C          -9.4579  -16.7682   23.5563 C.ar    1  UNL1        0.1253
      8 O          -8.0221  -16.4716   23.2392 O.2     1  UNL1       -0.4580
      9 C          -7.3474  -16.0380   24.5068 C.ar    1  UNL1        0.1408
     10 C          -4.0798  -16.8045   23.4229 C.3     1  UNL1        0.0051
     11 C          -4.9182  -15.5922   23.7004 C.3     1  UNL1        0.0295
     12 C         -10.4984  -17.2334   22.5811 C.3     1  UNL1        0.0951
     13 C         -10.1338  -17.4512   21.1425 C.3     1  UNL1        0.1337
     14 O         -10.6516  -16.5184   20.0880 O.3     1  UNL1       -0.3826
     15 H         -10.3243  -16.7991   19.2191 H       1  UNL1        0.2104
     16 C          -9.2515  -18.6019   20.7583 C.3     1  UNL1        0.0985
     17 N          -7.7623  -18.4827   20.8931 N.3     1  UNL1       -0.2976
     18 H          -7.5770  -18.1689   21.8458 H       1  UNL1        0.1232
     19 C          -6.8894  -19.6788   20.6538 C.3     1  UNL1        0.0421
     20 C          -7.6384  -19.9720   19.3876 C.3     1  UNL1        0.0158
     21 C          -6.1405  -19.3857   21.9199 C.3     1  UNL1        0.0158
     22 C          -6.0166  -20.8750   20.4144 C.3     1  UNL1        0.0158
@<TRIPOS>BOND
     1    10    11    1
     2    11     1    1
     3     1     2   ar
     4     2     3   ar
     5     3     4   ar
     6     4     5   ar
     7     5     6   ar
     8     6     7   ar
     9     7    12    1
    10    12    13    1
    11    13    14    1
    12    13    16    1
    13    16    17    1
    14    17    19    1
    15    19    20    1
    16    19    21    1
    17    19    22    1
    18     7     8   ar
    19     8     9   ar
    20     9     1   ar
    21     9     5   ar
    22    14    15    1
    23    17    18    1
@<TRIPOS>MOLECULE
*****
 22 23 0 0 0
SMALL
GASTEIGER

@<TRIPOS>ATOM
      1 C          -7.8373  -16.6293   23.4079 C.ar    1  UNL1        0.0123
      2 C          -9.2527  -16.1328   23.4190 C.ar    1  UNL1       -0.0013
      3 C         -10.2635  -16.7275   22.4839 C.ar    1  UNL1       -0.0001
      4 C          -9.8591  -17.8188   21.5376 C.ar    1  UNL1        0.0031
      5 C          -8.4437  -18.3153   21.5265 C.ar    1  UNL1        0.0369
      6 C          -7.7568  -19.3710   20.7118 C.ar    1  UNL1        0.0360
      7 C          -6.3214  -19.4287   21.1434 C.ar    1  UNL1        0.1253
      8 O          -6.1212  -18.4087   22.2248 O.2     1  UNL1       -0.4580
      9 C          -7.4328  -17.7206   22.4616 C.ar    1  UNL1        0.1408
     10 C          -5.6009  -15.3651   23.7955 C.3     1  UNL1        0.0051
     11 C          -6.8264  -16.0346   24.3430 C.3     1  UNL1        0.0295
     12 C          -5.2707  -20.3455   20.5906 C.3     1  UNL1        0.0951
     13 C          -3.8834  -19.8324   20.3413 C.3     1  UNL1        0.1337
     14 O          -2.7116  -20.4786   21.0190 O.3     1  UNL1       -0.3826
     15 H          -1.8948  -20.0292   20.7509 H       1  UNL1        0.2104
     16 C          -3.6680  -18.6730   19.4142 C.3     1  UNL1        0.0985
     17 N          -3.0763  -17.3965   19.9345 N.3     1  UNL1       -0.2976
     18 H          -3.4324  -17.2717   20.8821 H       1  UNL1        0.1232
     19 C          -1.5868  -17.2351   20.0069 C.3     1  UNL1        0.0421
     20 C          -1.4433  -17.9780   18.7117 C.3     1  UNL1        0.0158
     21 C          -1.7303  -16.4923   21.3021 C.3     1  UNL1        0.0158
     22 C          -0.0972  -17.0738   20.0794 C.3     1  UNL1        0.0158
@<TRIPOS>BOND
     1    10    11    1
     2    11     1    1
     3     1     2   ar
     4     2     3   ar
     5     3     4   ar
     6     4     5   ar
     7     5     6   ar
     8     6     7   ar
     9     7    12    1
    10    12    13    1
    11    13    14    1
    12    13    16    1
    13    16    17    1
    14    17    19    1
    15    19    20    1
    16    19    21    1
    17    19    22    1
    18     7     8   ar
    19     8     9   ar
    20     9     1   ar
    21     9     5   ar
    22    14    15    1
    23    17    18    1
@<TRIPOS>MOLECULE
*****
 22 23 0 0 0
SMALL
GASTEIGER

@<TRIPOS>ATOM
      1 C          -7.8102  -16.1703   24.4966 C.ar    1  UNL1        0.0123
      2 C          -8.4226  -16.2200   25.8650 C.ar    1  UNL1       -0.0013
      3 C          -9.3432  -17.3453   26.2342 C.ar    1  UNL1       -0.0001
      4 C          -9.6513  -18.4208   25.2351 C.ar    1  UNL1        0.0031
      5 C          -9.0389  -18.3711   23.8668 C.ar    1  UNL1        0.0369
      6 C          -9.1563  -19.2820   22.6809 C.ar    1  UNL1        0.0360
      7 C          -8.3083  -18.7198   21.5787 C.ar    1  UNL1        0.1253
      8 O          -7.6668  -17.4613   22.0834 O.2     1  UNL1       -0.4580
      9 C          -8.1184  -17.2458   23.4975 C.ar    1  UNL1        0.1408
     10 C          -5.4038  -15.2369   24.2002 C.3     1  UNL1        0.0051
     11 C          -6.8897  -15.0450   24.1274 C.3     1  UNL1        0.0295
     12 C          -8.1326  -19.3120   20.2118 C.3     1  UNL1        0.0951
     13 C          -9.3341  -19.6266   19.3706 C.3     1  UNL1        0.1337
     14 O          -9.2168  -20.5881   18.2252 O.3     1  UNL1       -0.3826
     15 H         -10.0786  -20.6784   17.7894 H       1  UNL1        0.2104
     16 C         -10.6528  -18.9798   19.6748 C.3     1  UNL1        0.0985
     17 N         -10.7493  -17.4865   19.7794 N.3     1  UNL1       -0.2976
     18 H         -11.2947  -17.1698   18.9777 H       1  UNL1        0.1232
     19 C         -11.3622  -16.8579   20.9956 C.3     1  UNL1        0.0421
     20 C         -10.4278  -15.6920   20.8639 C.3     1  UNL1        0.0158
     21 C         -12.2967  -18.0238   21.1273 C.3     1  UNL1        0.0158
     22 C         -11.9752  -16.2293   22.2118 C.3     1  UNL1        0.0158
@<TRIPOS>BOND
     1    10    11    1
     2    11     1    1
     3     1     2   ar
     4     2     3   ar
     5     3     4   ar
     6     4     5   ar
     7     5     6   ar
     8     6     7   ar
     9     7    12    1
    10    12    13    1
    11    13    14    1
    12    13    16    1
    13    16    17    1
    14    17    19    1
    15    19    20    1
    16    19    21    1
    17    19    22    1
    18     7     8   ar
    19     8     9   ar
    20     9     1   ar
    21     9     5   ar
    22    14    15    1
    23    17    18    1
@<TRIPOS>MOLECULE
*****
 22 23 0 0 0
SMALL
GASTEIGER

@<TRIPOS>ATOM
      1 C         -10.0494  -16.7532   22.9752 C.ar    1  UNL1        0.0123
      2 C         -11.3834  -16.0722   23.0561 C.ar    1  UNL1       -0.0013
      3 C         -12.4172  -16.3195   21.9978 C.ar    1  UNL1       -0.0001
      4 C         -12.1170  -17.2479   20.8585 C.ar    1  UNL1        0.0031
      5 C         -10.7830  -17.9289   20.7776 C.ar    1  UNL1        0.0369
      6 C         -10.2051  -18.8891   19.7806 C.ar    1  UNL1        0.0360
      7 C          -8.8141  -19.2352   20.2226 C.ar    1  UNL1        0.1253
      8 O          -8.5324  -18.4889   21.4929 O.2     1  UNL1       -0.4580
      9 C          -9.7492  -17.6816   21.8359 C.ar    1  UNL1        0.1408
     10 C          -7.7221  -15.8356   23.6764 C.3     1  UNL1        0.0051
     11 C          -9.0156  -16.5058   24.0335 C.3     1  UNL1        0.0295
     12 C          -7.8706  -20.1644   19.5182 C.3     1  UNL1        0.0951
     13 C          -6.4434  -20.2672   19.9682 C.3     1  UNL1        0.1337
     14 O          -5.8955  -21.5852   20.4294 O.3     1  UNL1       -0.3826
     15 H          -4.9655  -21.4777   20.6833 H       1  UNL1        0.2104
     16 C          -5.5641  -19.0519   19.9572 C.3     1  UNL1        0.0985
     17 N          -5.0821  -18.4633   21.2500 N.3     1  UNL1       -0.2976
     18 H          -5.6428  -18.8826   21.9917 H       1  UNL1        0.1232
     19 C          -3.6456  -18.6160   21.6541 C.3     1  UNL1        0.0421
     20 C          -3.2599  -18.7947   20.2156 C.3     1  UNL1        0.0158
     21 C          -4.0313  -18.4373   23.0926 C.3     1  UNL1        0.0158
     22 C          -2.2092  -18.7687   22.0582 C.3     1  UNL1        0.0158
@<TRIPOS>BOND
     1    10    11    1
     2    11     1    1
     3     1     2   ar
     4     2     3   ar
     5     3     4   ar
     6     4     5   ar
     7     5     6   ar
     8     6     7   ar
     9     7    12    1
    10    12    13    1
    11    13    14    1
    12    13    16    1
    13    16    17    1
    14    17    19    1
    15    19    20    1
    16    19    21    1
    17    19    22    1
    18     7     8   ar
    19     8     9   ar
    20     9     1   ar
    21     9     5   ar
    22    14    15    1
    23    17    18    1
@<TRIPOS>MOLECULE
*****
 22 23 0 0 0
SMALL
GASTEIGER

@<TRIPOS>ATOM
      1 C          -7.7190  -16.1801   24.1546 C.ar    1  UNL1        0.0123
      2 C          -8.6506  -16.1951   25.3300 C.ar    1  UNL1       -0.0013
      3 C          -9.6349  -17.3153   25.4927 C.ar    1  UNL1       -0.0001
      4 C          -9.6874  -18.4205   24.4800 C.ar    1  UNL1        0.0031
      5 C          -8.7558  -18.4055   23.3045 C.ar    1  UNL1        0.0369
      6 C          -8.5772  -19.3503   22.1533 C.ar    1  UNL1        0.0360
      7 C          -7.4826  -18.8141   21.2790 C.ar    1  UNL1        0.1253
      8 O          -6.9847  -17.5379   21.8900 O.2     1  UNL1       -0.4580
      9 C          -7.7716  -17.2853   23.1418 C.ar    1  UNL1        0.1408
     10 C          -5.2624  -15.3450   24.0214 C.3     1  UNL1        0.0051
     11 C          -6.7348  -15.0599   23.9919 C.3     1  UNL1        0.0295
     12 C          -6.9751  -19.4436   20.0156 C.3     1  UNL1        0.0951
     13 C          -5.8779  -20.4647   20.0747 C.3     1  UNL1        0.1337
     14 O          -6.1850  -21.9110   19.8212 O.3     1  UNL1       -0.3826
     15 H          -5.3707  -22.4325   19.8973 H       1  UNL1        0.2104
     16 C          -4.4738  -20.0397   20.3872 C.3     1  UNL1        0.0985
     17 N          -4.1697  -18.5958   20.6571 N.3     1  UNL1       -0.2976
     18 H          -5.0497  -18.1544   20.9237 H       1  UNL1        0.1232
     19 C          -3.1638  -18.2245   21.7061 C.3     1  UNL1        0.0421
     20 C          -2.2863  -17.6197   20.6505 C.3     1  UNL1        0.0158
     21 C          -4.0413  -18.8293   22.7616 C.3     1  UNL1        0.0158
     22 C          -2.1579  -17.8533   22.7550 C.3     1  UNL1        0.0158
@<TRIPOS>BOND
     1    10    11    1
     2    11     1    1
     3     1     2   ar
     4     2     3   ar
     5     3     4   ar
     6     4     5   ar
     7     5     6   ar
     8     6     7   ar
     9     7    12    1
    10    12    13    1
    11    13    14    1
    12    13    16    1
    13    16    17    1
    14    17    19    1
    15    19    20    1
    16    19    21    1
    17    19    22    1
    18     7     8   ar
    19     8     9   ar
    20     9     1   ar
    21     9     5   ar
    22    14    15    1
    23    17    18    1
@<TRIPOS>MOLECULE
*****
 22 23 0 0 0
SMALL
GASTEIGER

@<TRIPOS>ATOM
      1 C         -10.1614   -5.4296   17.6782 C.ar    1  UNL1        0.0123
      2 C          -9.2232   -4.6946   16.7674 C.ar    1  UNL1       -0.0013
      3 C          -9.3857   -3.2185   16.5562 C.ar    1  UNL1       -0.0001
      4 C         -10.4863   -2.4773   17.2557 C.ar    1  UNL1        0.0031
      5 C         -11.4245   -3.2123   18.1664 C.ar    1  UNL1        0.0369
      6 C         -12.5942   -2.7529   18.9854 C.ar    1  UNL1        0.0360
      7 C         -13.1547   -3.9450   19.7027 C.ar    1  UNL1        0.1253
      8 O         -12.3314   -5.1413   19.3272 O.2     1  UNL1       -0.4580
      9 C         -11.2620   -4.6885   18.3777 C.ar    1  UNL1        0.1408
     10 C          -9.3134   -7.4160   19.1221 C.3     1  UNL1        0.0051
     11 C          -9.9990   -6.9058   17.8894 C.3     1  UNL1        0.0295
     12 C         -14.3318   -3.9414   20.6324 C.3     1  UNL1        0.0951
     13 C         -15.6647   -4.4387   20.1569 C.3     1  UNL1        0.1337
     14 O         -16.9192   -3.7185   20.5539 O.3     1  UNL1       -0.3826
     15 H         -17.6863   -4.1669   20.1649 H       1  UNL1        0.2104
     16 C         -15.7431   -5.6563   19.2842 C.3     1  UNL1        0.0985
     17 N         -14.8968   -6.8558   19.5926 N.3     1  UNL1       -0.2976
     18 H         -15.0145   -7.0515   20.5868 H       1  UNL1        0.1232
     19 C         -15.1327   -8.1469   18.8663 C.3     1  UNL1        0.0421
     20 C         -13.8844   -7.9241   18.0650 C.3     1  UNL1        0.0158
     21 C         -16.3810   -8.3696   19.6677 C.3     1  UNL1        0.0158
     22 C         -15.3686   -9.4379   18.1400 C.3     1  UNL1        0.0158
@<TRIPOS>BOND
     1    10    11    1
     2    11     1    1
     3     1     2   ar
     4     2     3   ar
     5     3     4   ar
     6     4     5   ar
     7     5     6   ar
     8     6     7   ar
     9     7    12    1
    10    12    13    1
    11    13    14    1
    12    13    16    1
    13    16    17    1
    14    17    19    1
    15    19    20    1
    16    19    21    1
    17    19    22    1
    18     7     8   ar
    19     8     9   ar
    20     9     1   ar
    21     9     5   ar
    22    14    15    1
    23    17    18    1
@<TRIPOS>MOLECULE
*****
 22 23 0 0 0
SMALL
GASTEIGER

@<TRIPOS>ATOM
      1 C         -13.6521   -7.7186   17.5051 C.ar    1  UNL1        0.0123
      2 C         -14.6430   -8.8436   17.5539 C.ar    1  UNL1       -0.0013
      3 C         -15.8099   -8.7750   18.4940 C.ar    1  UNL1       -0.0001
      4 C         -15.9858   -7.5814   19.3852 C.ar    1  UNL1        0.0031
      5 C         -14.9949   -6.4564   19.3364 C.ar    1  UNL1        0.0369
      6 C         -14.9079   -5.1621   20.0895 C.ar    1  UNL1        0.0360
      7 C         -13.6873   -4.4307   19.6149 C.ar    1  UNL1        0.1253
      8 O         -13.0199   -5.2731   18.5685 O.2     1  UNL1       -0.4580
      9 C         -13.8280   -6.5251   18.3963 C.ar    1  UNL1        0.1408
     10 C         -11.0946   -7.9417   17.1057 C.3     1  UNL1        0.0051
     11 C         -12.4852   -7.7872   16.5650 C.3     1  UNL1        0.0295
     12 C         -13.2167   -3.0921   20.1013 C.3     1  UNL1        0.0951
     13 C         -12.8634   -2.0178   19.1158 C.3     1  UNL1        0.1337
     14 O         -13.9221   -1.0789   18.6181 O.3     1  UNL1       -0.3826
     15 H         -13.5289   -0.4508   17.9923 H       1  UNL1        0.2104
     16 C         -11.4514   -1.8824   18.6281 C.3     1  UNL1        0.0985
     17 N         -10.4237   -2.9053   19.0126 N.3     1  UNL1       -0.2976
     18 H         -10.8419   -3.4831   19.7418 H       1  UNL1        0.1232
     19 C          -9.8754   -3.8430   17.9782 C.3     1  UNL1        0.0421
     20 C         -10.1050   -2.8074   16.9176 C.3     1  UNL1        0.0158
     21 C          -9.6458   -4.8786   19.0388 C.3     1  UNL1        0.0158
     22 C          -9.3271   -4.7808   16.9438 C.3     1  UNL1        0.0158
@<TRIPOS>BOND
     1    10    11    1
     2    11     1    1
     3     1     2   ar
     4     2     3   ar
     5     3     4   ar
     6     4     5   ar
     7     5     6   ar
     8     6     7   ar
     9     7    12    1
    10    12    13    1
    11    13    14    1
    12    13    16    1
    13    16    17    1
    14    17    19    1
    15    19    20    1
    16    19    21    1
    17    19    22    1
    18     7     8   ar
    19     8     9   ar
    20     9     1   ar
    21     9     5   ar
    22    14    15    1
    23    17    18    1
