@<TRIPOS>MOLECULE
*****
 33 36 0 0 0
SMALL
GASTEIGER

@<TRIPOS>ATOM
      1 C           6.9604   -3.8657   21.6887 C.ar    1  UNL1        0.0000
      2 C           5.9930   -3.6806   22.8200 C.ar    1  UNL1        0.0000
      3 C           6.3690   -4.1119   24.2066 C.ar    1  UNL1        0.0000
      4 C           7.7124   -4.7284   24.4619 C.ar    1  UNL1        0.0000
      5 C           8.6798   -4.9136   23.3305 C.ar    1  UNL1        0.0000
      6 C           8.3039   -4.4822   21.9440 C.ar    1  UNL1        0.0000
      7 B           8.0883   -5.1598   25.8485 B       1  UNL1        0.0000
      8 O           7.8554   -6.6238   26.0772 O.3     1  UNL1        0.0000
      9 C           8.0466   -7.5604   27.2331 C.2     1  UNL1        0.0000
     10 O           7.6388   -8.9664   26.9063 O.2     1  UNL1        0.0000
     11 C           8.5500   -7.4208   28.6392 C.3     1  UNL1        0.0000
     12 N           9.0707   -6.2869   29.4718 N.3     1  UNL1        0.0000
     13 C           9.4466   -6.7182   30.8583 C.3     1  UNL1        0.0000
     14 C           9.3036   -4.8229   29.2431 C.3     1  UNL1        0.0000
     15 C           9.1124   -3.8863   28.0871 C.2     1  UNL1        0.0000
     16 O           9.5202   -2.4803   28.4139 O.2     1  UNL1        0.0000
     17 O           8.6090   -4.0258   26.6810 O.3     1  UNL1        0.0000
     18 C           6.5845   -3.4343   20.3022 C.3     1  UNL1        0.0000
     19 C           4.0298   -5.0326   19.0497 C.3     1  UNL1        0.0000
     20 C           4.0513   -3.5909   19.4634 C.ar    1  UNL1        0.0000
     21 N           2.9024   -2.6308   19.3740 N.ar    1  UNL1        0.0000
     22 C           3.3665   -1.3027   19.8944 C.ar    1  UNL1        0.0000
     23 C           2.6673    0.0155   20.0472 C.ar    1  UNL1        0.0000
     24 C           3.4038    1.1944   20.6109 C.ar    1  UNL1        0.0000
     25 CL          2.7046    2.5126   20.7636 Cl      1  UNL1        0.0000
     26 C           4.8397    1.0550   21.0220 C.ar    1  UNL1        0.0000
     27 CL          5.5762    2.2338   21.5857 Cl      1  UNL1        0.0000
     28 C           5.5389   -0.2633   20.8692 C.ar    1  UNL1        0.0000
     29 C           4.8024   -1.4421   20.3055 C.ar    1  UNL1        0.0000
     30 N           5.2256   -2.8563   20.0391 N.ar    1  UNL1        0.0000
     31 N           1.2314    0.1549   19.6361 N.pl3   1  UNL1        1.0000
     32 O           0.1380   -0.1233   20.6245 O.2     1  UNL1        0.0000
     33 O           0.8891    0.5724   18.2366 O.co2   1  UNL1       -1.0000
@<TRIPOS>UNITY_ATOM_ATTR
31 1
charge 1
33 1
charge -1
@<TRIPOS>BOND
     1    19    20    1
     2    20    21   ar
     3    21    22   ar
     4    22    23   ar
     5    23    31    1
     6    31    32    2
     7    31    33    1
     8    23    24   ar
     9    24    25    1
    10    24    26   ar
    11    26    27    1
    12    26    28   ar
    13    28    29   ar
    14    29    30   ar
    15    30    18    1
    16    18     1    1
    17     1     2   ar
    18     2     3   ar
    19     3     4   ar
    20     4     7    1
    21     7     8    1
    22     8     9    1
    23     9    10    2
    24     9    11    1
    25    11    12    1
    26    12    13    1
    27    12    14    1
    28    14    15    1
    29    15    16    2
    30    15    17    1
    31     4     5   ar
    32     5     6   ar
    33    30    20   ar
    34     6     1   ar
    35    29    22   ar
    36    17     7    1
@<TRIPOS>MOLECULE
*****
 33 36 0 0 0
SMALL
GASTEIGER

@<TRIPOS>ATOM
      1 C           6.9630   -3.8434   21.6968 C.ar    1  UNL1        0.0000
      2 C           8.3139   -4.4427   21.9532 C.ar    1  UNL1        0.0000
      3 C           8.6897   -4.8804   23.3379 C.ar    1  UNL1        0.0000
      4 C           7.7146   -4.7188   24.4661 C.ar    1  UNL1        0.0000
      5 C           6.3636   -4.1195   24.2097 C.ar    1  UNL1        0.0000
      6 C           5.9877   -3.6817   22.8251 C.ar    1  UNL1        0.0000
      7 B           8.0904   -5.1565   25.8507 B       1  UNL1        0.0000
      8 O           8.6129   -4.0269   26.6878 O.3     1  UNL1        0.0000
      9 C           9.1170   -3.8939   28.0943 C.2     1  UNL1        0.0000
     10 O           9.5270   -2.4899   28.4269 O.2     1  UNL1        0.0000
     11 C           9.3074   -4.8357   29.2463 C.3     1  UNL1        0.0000
     12 N           9.0725   -6.3004   29.4688 N.3     1  UNL1        0.0000
     13 C           9.4483   -6.7381   30.8534 C.3     1  UNL1        0.0000
     14 C           8.5499   -7.4300   28.6317 C.3     1  UNL1        0.0000
     15 C           8.0458   -7.5629   27.2252 C.2     1  UNL1        0.0000
     16 O           7.6359   -8.9669   26.8926 O.2     1  UNL1        0.0000
     17 O           7.8555   -6.6212   26.0733 O.3     1  UNL1        0.0000
     18 C           6.5871   -3.4056   20.3122 C.3     1  UNL1        0.0000
     19 C           4.0140   -5.0306   19.1340 C.3     1  UNL1        0.0000
     20 C           4.0435   -3.5785   19.5090 C.ar    1  UNL1        0.0000
     21 N           2.8955   -2.6184   19.4083 N.ar    1  UNL1        0.0000
     22 C           3.3687   -1.2781   19.8876 C.ar    1  UNL1        0.0000
     23 C           2.6740    0.0453   20.0139 C.ar    1  UNL1        0.0000
     24 C           3.4198    1.2370   20.5372 C.ar    1  UNL1        0.0000
     25 CL          2.7251    2.5604   20.6635 Cl      1  UNL1        0.0000
     26 C           4.8603    1.1052   20.9341 C.ar    1  UNL1        0.0000
     27 CL          5.6061    2.2968   21.4574 Cl      1  UNL1        0.0000
     28 C           5.5550   -0.2183   20.8078 C.ar    1  UNL1        0.0000
     29 C           4.8092   -1.4099   20.2846 C.ar    1  UNL1        0.0000
     30 N           5.2262   -2.8316   20.0506 N.ar    1  UNL1        0.0000
     31 N           1.2335    0.1771   19.6170 N.pl3   1  UNL1        1.0000
     32 O           0.1511   -0.1155   20.6134 O.2     1  UNL1        0.0000
     33 O           0.8753    0.6015   18.2235 O.co2   1  UNL1       -1.0000
@<TRIPOS>UNITY_ATOM_ATTR
31 1
charge 1
33 1
charge -1
@<TRIPOS>BOND
     1    19    20    1
     2    20    21   ar
     3    21    22   ar
     4    22    23   ar
     5    23    31    1
     6    31    32    2
     7    31    33    1
     8    23    24   ar
     9    24    25    1
    10    24    26   ar
    11    26    27    1
    12    26    28   ar
    13    28    29   ar
    14    29    30   ar
    15    30    18    1
    16    18     1    1
    17     1     2   ar
    18     2     3   ar
    19     3     4   ar
    20     4     7    1
    21     7     8    1
    22     8     9    1
    23     9    10    2
    24     9    11    1
    25    11    12    1
    26    12    13    1
    27    12    14    1
    28    14    15    1
    29    15    16    2
    30    15    17    1
    31     4     5   ar
    32     5     6   ar
    33    30    20   ar
    34     6     1   ar
    35    29    22   ar
    36    17     7    1
@<TRIPOS>MOLECULE
*****
 33 36 0 0 0
SMALL
GASTEIGER

@<TRIPOS>ATOM
      1 C           6.6335   -0.1186   35.1901 C.ar    1  UNL1        0.0000
      2 C           5.3584   -0.7544   34.7213 C.ar    1  UNL1        0.0000
      3 C           5.3592   -1.6244   33.4994 C.ar    1  UNL1        0.0000
      4 C           6.6351   -1.8586   32.7463 C.ar    1  UNL1        0.0000
      5 C           7.9102   -1.2228   33.2152 C.ar    1  UNL1        0.0000
      6 C           7.9095   -0.3528   34.4371 C.ar    1  UNL1        0.0000
      7 B           6.6359   -2.7287   31.5244 B       1  UNL1        0.0000
      8 O           6.4279   -1.9456   30.2621 O.3     1  UNL1        0.0000
      9 C           6.3424   -2.2871   28.8040 C.2     1  UNL1        0.0000
     10 O           6.1170   -1.0791   27.9437 O.2     1  UNL1        0.0000
     11 C           6.4294   -3.5532   28.0043 C.3     1  UNL1        0.0000
     12 N           6.6379   -5.0022   28.3315 N.3     1  UNL1        0.0000
     13 C           6.6387   -5.8722   27.1096 C.3     1  UNL1        0.0000
     14 C           6.8459   -5.7852   29.5938 C.3     1  UNL1        0.0000
     15 C           6.9314   -5.4437   31.0519 C.2     1  UNL1        0.0000
     16 O           7.1568   -6.6516   31.9121 O.2     1  UNL1        0.0000
     17 O           6.8444   -4.1776   31.8516 O.3     1  UNL1        0.0000
     18 C           6.6327    0.7514   36.4120 C.3     1  UNL1        0.0000
     19 C           7.2734    3.6784   35.1189 C.3     1  UNL1        0.0000
     20 C           6.0365    3.3021   35.8796 C.ar    1  UNL1        0.0000
     21 N           4.8769    4.2052   36.1794 N.ar    1  UNL1        0.0000
     22 C           3.8658    3.4179   36.9591 C.ar    1  UNL1        0.0000
     23 C           2.5274    3.7869   37.5268 C.ar    1  UNL1        0.0000
     24 C           1.7235    2.7663   38.2766 C.ar    1  UNL1        0.0000
     25 CL          0.3850    3.1353   38.8444 Cl      1  UNL1        0.0000
     26 C           2.2581    1.3767   38.4587 C.ar    1  UNL1        0.0000
     27 CL          1.4543    0.3561   39.2085 Cl      1  UNL1        0.0000
     28 C           3.5967    1.0077   37.8909 C.ar    1  UNL1        0.0000
     29 C           4.4005    2.0283   37.1412 C.ar    1  UNL1        0.0000
     30 N           5.7420    1.9568   36.4740 N.ar    1  UNL1        0.0000
     31 N           1.9927    5.1765   37.3448 N.pl3   1  UNL1        1.0000
     32 O           0.7264    5.3976   36.5717 O.2     1  UNL1        0.0000
     33 O           2.7244    6.3451   37.9358 O.co2   1  UNL1       -1.0000
@<TRIPOS>UNITY_ATOM_ATTR
31 1
charge 1
33 1
charge -1
@<TRIPOS>BOND
     1    19    20    1
     2    20    21   ar
     3    21    22   ar
     4    22    23   ar
     5    23    31    1
     6    31    32    2
     7    31    33    1
     8    23    24   ar
     9    24    25    1
    10    24    26   ar
    11    26    27    1
    12    26    28   ar
    13    28    29   ar
    14    29    30   ar
    15    30    18    1
    16    18     1    1
    17     1     2   ar
    18     2     3   ar
    19     3     4   ar
    20     4     7    1
    21     7     8    1
    22     8     9    1
    23     9    10    2
    24     9    11    1
    25    11    12    1
    26    12    13    1
    27    12    14    1
    28    14    15    1
    29    15    16    2
    30    15    17    1
    31     4     5   ar
    32     5     6   ar
    33    30    20   ar
    34     6     1   ar
    35    29    22   ar
    36    17     7    1
@<TRIPOS>MOLECULE
*****
 33 36 0 0 0
SMALL
GASTEIGER

@<TRIPOS>ATOM
      1 C           4.3300    0.4623   24.3819 C.ar    1  UNL1        0.0000
      2 C           5.7932    0.2870   24.6612 C.ar    1  UNL1        0.0000
      3 C           6.2439   -0.6593   25.7342 C.ar    1  UNL1        0.0000
      4 C           5.2313   -1.4304   26.5279 C.ar    1  UNL1        0.0000
      5 C           3.7680   -1.2551   26.2486 C.ar    1  UNL1        0.0000
      6 C           3.3173   -0.3088   25.1756 C.ar    1  UNL1        0.0000
      7 B           5.6820   -2.3767   27.6009 B       1  UNL1        0.0000
      8 O           5.7202   -1.7329   28.9551 O.3     1  UNL1        0.0000
      9 C           6.0810   -2.1904   30.3373 C.2     1  UNL1        0.0000
     10 O           5.9356   -1.1016   31.3587 O.2     1  UNL1        0.0000
     11 C           6.5530   -3.4815   30.9378 C.3     1  UNL1        0.0000
     12 N           6.8598   -4.8496   30.4047 N.3     1  UNL1        0.0000
     13 C           7.3105   -5.7959   31.4777 C.3     1  UNL1        0.0000
     14 C           6.8216   -5.4934   29.0505 C.3     1  UNL1        0.0000
     15 C           6.4608   -5.0358   27.6683 C.2     1  UNL1        0.0000
     16 O           6.6062   -6.1247   26.6469 O.2     1  UNL1        0.0000
     17 O           5.9888   -3.7449   27.0679 O.3     1  UNL1        0.0000
     18 C           3.8793    1.4086   23.3089 C.3     1  UNL1        0.0000
     19 C           4.4697    3.6442   21.0060 C.3     1  UNL1        0.0000
     20 C           4.4845    2.1565   20.8150 C.ar    1  UNL1        0.0000
     21 N           4.7733    1.4351   19.5320 N.ar    1  UNL1        0.0000
     22 C           4.6804   -0.0383   19.7974 C.ar    1  UNL1        0.0000
     23 C           4.8663   -1.2320   18.9084 C.ar    1  UNL1        0.0000
     24 C           4.7060   -2.6151   19.4666 C.ar    1  UNL1        0.0000
     25 CL          4.8919   -3.8088   18.5775 Cl      1  UNL1        0.0000
     26 C           4.3597   -2.8043   20.9137 C.ar    1  UNL1        0.0000
     27 CL          4.1994   -4.1873   21.4719 Cl      1  UNL1        0.0000
     28 C           4.1738   -1.6105   21.8028 C.ar    1  UNL1        0.0000
     29 C           4.3341   -0.2275   21.2446 C.ar    1  UNL1        0.0000
     30 N           4.2131    1.1289   21.8735 N.ar    1  UNL1        0.0000
     31 N           5.2125   -1.0427   17.4613 N.pl3   1  UNL1        1.0000
     32 O           6.6453   -0.8814   17.0478 O.2     1  UNL1        0.0000
     33 O           4.1258   -1.0148   16.4275 O.co2   1  UNL1       -1.0000
@<TRIPOS>UNITY_ATOM_ATTR
31 1
charge 1
33 1
charge -1
@<TRIPOS>BOND
     1    19    20    1
     2    20    21   ar
     3    21    22   ar
     4    22    23   ar
     5    23    31    1
     6    31    32    2
     7    31    33    1
     8    23    24   ar
     9    24    25    1
    10    24    26   ar
    11    26    27    1
    12    26    28   ar
    13    28    29   ar
    14    29    30   ar
    15    30    18    1
    16    18     1    1
    17     1     2   ar
    18     2     3   ar
    19     3     4   ar
    20     4     7    1
    21     7     8    1
    22     8     9    1
    23     9    10    2
    24     9    11    1
    25    11    12    1
    26    12    13    1
    27    12    14    1
    28    14    15    1
    29    15    16    2
    30    15    17    1
    31     4     5   ar
    32     5     6   ar
    33    30    20   ar
    34     6     1   ar
    35    29    22   ar
    36    17     7    1
@<TRIPOS>MOLECULE
*****
 33 36 0 0 0
SMALL
GASTEIGER

@<TRIPOS>ATOM
      1 C           4.3244    0.4738   24.3461 C.ar    1  UNL1        0.0000
      2 C           3.3137   -0.3019   25.1378 C.ar    1  UNL1        0.0000
      3 C           3.7666   -1.2483   26.2098 C.ar    1  UNL1        0.0000
      4 C           5.2303   -1.4190   26.4902 C.ar    1  UNL1        0.0000
      5 C           6.2410   -0.6432   25.6984 C.ar    1  UNL1        0.0000
      6 C           5.7881    0.3031   24.6264 C.ar    1  UNL1        0.0000
      7 B           5.6832   -2.3653   27.5622 B       1  UNL1        0.0000
      8 O           6.0077   -3.7278   27.0255 O.3     1  UNL1        0.0000
      9 C           6.4888   -5.0166   27.6236 C.2     1  UNL1        0.0000
     10 O           6.6524   -6.0994   26.5985 O.2     1  UNL1        0.0000
     11 C           6.8446   -5.4765   29.0063 C.3     1  UNL1        0.0000
     12 N           6.8667   -4.8382   30.3636 N.3     1  UNL1        0.0000
     13 C           7.3196   -5.7846   31.4356 C.3     1  UNL1        0.0000
     14 C           6.5422   -3.4757   30.9003 C.3     1  UNL1        0.0000
     15 C           6.0611   -2.1870   30.3021 C.2     1  UNL1        0.0000
     16 O           5.8975   -1.1042   31.3272 O.2     1  UNL1        0.0000
     17 O           5.7053   -1.7271   28.9195 O.3     1  UNL1        0.0000
     18 C           3.8715    1.4202   23.2741 C.3     1  UNL1        0.0000
     19 C           4.4336    3.6557   20.9641 C.3     1  UNL1        0.0000
     20 C           4.4602    2.1678   20.7762 C.ar    1  UNL1        0.0000
     21 N           4.7499    1.4462   19.4935 N.ar    1  UNL1        0.0000
     22 C           4.6706   -0.0274   19.7625 C.ar    1  UNL1        0.0000
     23 C           4.8630   -1.2214   18.8752 C.ar    1  UNL1        0.0000
     24 C           4.7167   -2.6046   19.4369 C.ar    1  UNL1        0.0000
     25 CL          4.9091   -3.7986   18.5497 Cl      1  UNL1        0.0000
     26 C           4.3780   -2.7937   20.8859 C.ar    1  UNL1        0.0000
     27 CL          4.2316   -4.1768   21.4476 Cl      1  UNL1        0.0000
     28 C           4.1855   -1.5996   21.7732 C.ar    1  UNL1        0.0000
     29 C           4.3318   -0.2165   21.2115 C.ar    1  UNL1        0.0000
     30 N           4.2019    1.1402   21.8379 N.ar    1  UNL1        0.0000
     31 N           5.2017   -1.0323   17.4263 N.pl3   1  UNL1        1.0000
     32 O           4.1098   -1.0041   16.3983 O.2     1  UNL1        0.0000
     33 O           6.6325   -0.8715   17.0053 O.co2   1  UNL1       -1.0000
@<TRIPOS>UNITY_ATOM_ATTR
31 1
charge 1
33 1
charge -1
@<TRIPOS>BOND
     1    19    20    1
     2    20    21   ar
     3    21    22   ar
     4    22    23   ar
     5    23    31    1
     6    31    32    2
     7    31    33    1
     8    23    24   ar
     9    24    25    1
    10    24    26   ar
    11    26    27    1
    12    26    28   ar
    13    28    29   ar
    14    29    30   ar
    15    30    18    1
    16    18     1    1
    17     1     2   ar
    18     2     3   ar
    19     3     4   ar
    20     4     7    1
    21     7     8    1
    22     8     9    1
    23     9    10    2
    24     9    11    1
    25    11    12    1
    26    12    13    1
    27    12    14    1
    28    14    15    1
    29    15    16    2
    30    15    17    1
    31     4     5   ar
    32     5     6   ar
    33    30    20   ar
    34     6     1   ar
    35    29    22   ar
    36    17     7    1
@<TRIPOS>MOLECULE
*****
 33 36 0 0 0
SMALL
GASTEIGER

@<TRIPOS>ATOM
      1 C           1.7296    0.9893   18.7670 C.ar    1  UNL1        0.0000
      2 C           1.3283    2.4321   18.6836 C.ar    1  UNL1        0.0000
      3 C           0.2658    2.9691   19.5962 C.ar    1  UNL1        0.0000
      4 C          -0.3954    2.0632   20.5923 C.ar    1  UNL1        0.0000
      5 C           0.0060    0.6202   20.6757 C.ar    1  UNL1        0.0000
      6 C           1.0685    0.0833   19.7631 C.ar    1  UNL1        0.0000
      7 B          -1.4578    2.6002   21.5048 B       1  UNL1        0.0000
      8 O          -2.7905    2.7190   20.8269 O.3     1  UNL1        0.0000
      9 C          -4.1557    3.1792   21.2444 C.2     1  UNL1        0.0000
     10 O          -5.1582    3.0853   20.1325 O.2     1  UNL1        0.0000
     11 C          -4.7537    3.7112   22.5131 C.3     1  UNL1        0.0000
     12 N          -4.2341    4.0033   23.8896 N.3     1  UNL1        0.0000
     13 C          -5.2966    4.5403   24.8022 C.3     1  UNL1        0.0000
     14 C          -2.9014    3.8845   24.5676 C.3     1  UNL1        0.0000
     15 C          -1.5362    3.4243   24.1499 C.2     1  UNL1        0.0000
     16 O          -0.5337    3.5181   25.2618 O.2     1  UNL1        0.0000
     17 O          -0.9382    2.8923   22.8813 O.3     1  UNL1        0.0000
     18 C           2.7921    0.4523   17.8544 C.3     1  UNL1        0.0000
     19 C           5.1734    2.6810   17.9636 C.3     1  UNL1        0.0000
     20 C           5.2776    1.2562   18.4210 C.ar    1  UNL1        0.0000
     21 N           6.4946    0.6057   19.0088 N.ar    1  UNL1        0.0000
     22 C           6.1523   -0.8208   19.3220 C.ar    1  UNL1        0.0000
     23 C           6.9568   -1.9391   19.9153 C.ar    1  UNL1        0.0000
     24 C           6.3327   -3.2885   20.1142 C.ar    1  UNL1        0.0000
     25 CL          7.1373   -4.4069   20.7075 Cl      1  UNL1        0.0000
     26 C           4.9040   -3.5196   19.7199 C.ar    1  UNL1        0.0000
     27 CL          4.2799   -4.8690   19.9189 Cl      1  UNL1        0.0000
     28 C           4.0995   -2.4012   19.1266 C.ar    1  UNL1        0.0000
     29 C           4.7236   -1.0518   18.9277 C.ar    1  UNL1        0.0000
     30 N           4.1830    0.2318   18.3708 N.ar    1  UNL1        0.0000
     31 N           8.3855   -1.7080   20.3096 N.pl3   1  UNL1        1.0000
     32 O           8.7143   -1.2366   21.6951 O.2     1  UNL1        0.0000
     33 O           9.4854   -1.9484   19.3183 O.co2   1  UNL1       -1.0000
@<TRIPOS>UNITY_ATOM_ATTR
31 1
charge 1
33 1
charge -1
@<TRIPOS>BOND
     1    19    20    1
     2    20    21   ar
     3    21    22   ar
     4    22    23   ar
     5    23    31    1
     6    31    32    2
     7    31    33    1
     8    23    24   ar
     9    24    25    1
    10    24    26   ar
    11    26    27    1
    12    26    28   ar
    13    28    29   ar
    14    29    30   ar
    15    30    18    1
    16    18     1    1
    17     1     2   ar
    18     2     3   ar
    19     3     4   ar
    20     4     7    1
    21     7     8    1
    22     8     9    1
    23     9    10    2
    24     9    11    1
    25    11    12    1
    26    12    13    1
    27    12    14    1
    28    14    15    1
    29    15    16    2
    30    15    17    1
    31     4     5   ar
    32     5     6   ar
    33    30    20   ar
    34     6     1   ar
    35    29    22   ar
    36    17     7    1
@<TRIPOS>MOLECULE
*****
 33 36 0 0 0
SMALL
GASTEIGER

@<TRIPOS>ATOM
      1 C           0.4920    1.8602   20.2265 C.ar    1  UNL1        0.0000
      2 C           0.2016    0.4066   20.4558 C.ar    1  UNL1        0.0000
      3 C           1.3308   -0.5695   20.6046 C.ar    1  UNL1        0.0000
      4 C           2.7505   -0.0920   20.5241 C.ar    1  UNL1        0.0000
      5 C           3.0409    1.3616   20.2947 C.ar    1  UNL1        0.0000
      6 C           1.9118    2.3378   20.1459 C.ar    1  UNL1        0.0000
      7 B           3.8796   -1.0682   20.6729 B       1  UNL1        0.0000
      8 O           4.5148   -1.4157   19.3593 O.3     1  UNL1        0.0000
      9 C           5.6421   -2.3068   18.9290 C.2     1  UNL1        0.0000
     10 O           5.8619   -2.2786   17.4454 O.2     1  UNL1        0.0000
     11 C           6.6012   -3.2194   19.6342 C.3     1  UNL1        0.0000
     12 N           6.8302   -3.6189   21.0618 N.3     1  UNL1        0.0000
     13 C           7.9594   -4.5950   21.2106 C.3     1  UNL1        0.0000
     14 C           6.1951   -3.2713   22.3754 C.3     1  UNL1        0.0000
     15 C           5.0677   -2.3802   22.8056 C.2     1  UNL1        0.0000
     16 O           4.8479   -2.4084   24.2892 O.2     1  UNL1        0.0000
     17 O           4.1086   -1.4677   22.1005 O.3     1  UNL1        0.0000
     18 C          -0.6371    2.8363   20.0777 C.3     1  UNL1        0.0000
     19 C           0.4809    3.2839   23.1107 C.3     1  UNL1        0.0000
     20 C          -0.9447    3.4264   22.6665 C.ar    1  UNL1        0.0000
     21 N          -2.1067    3.7997   23.5385 N.ar    1  UNL1        0.0000
     22 C          -3.3388    3.8247   22.6833 C.ar    1  UNL1        0.0000
     23 C          -4.7737    4.1271   22.9989 C.ar    1  UNL1        0.0000
     24 C          -5.8081    4.0716   21.9139 C.ar    1  UNL1        0.0000
     25 CL         -7.2429    4.3740   22.2295 Cl      1  UNL1        0.0000
     26 C          -5.4075    3.7138   20.5134 C.ar    1  UNL1        0.0000
     27 CL         -6.4418    3.6583   19.4285 Cl      1  UNL1        0.0000
     28 C          -3.9725    3.4114   20.1978 C.ar    1  UNL1        0.0000
     29 C          -2.9382    3.4669   21.2827 C.ar    1  UNL1        0.0000
     30 N          -1.4586    3.2207   21.2724 N.ar    1  UNL1        0.0000
     31 N          -5.1743    4.4849   24.3994 N.pl3   1  UNL1        1.0000
     32 O          -5.4975    5.9079   24.7466 O.2     1  UNL1        0.0000
     33 O          -5.2516    3.4197   25.4527 O.co2   1  UNL1       -1.0000
@<TRIPOS>UNITY_ATOM_ATTR
31 1
charge 1
33 1
charge -1
@<TRIPOS>BOND
     1    19    20    1
     2    20    21   ar
     3    21    22   ar
     4    22    23   ar
     5    23    31    1
     6    31    32    2
     7    31    33    1
     8    23    24   ar
     9    24    25    1
    10    24    26   ar
    11    26    27    1
    12    26    28   ar
    13    28    29   ar
    14    29    30   ar
    15    30    18    1
    16    18     1    1
    17     1     2   ar
    18     2     3   ar
    19     3     4   ar
    20     4     7    1
    21     7     8    1
    22     8     9    1
    23     9    10    2
    24     9    11    1
    25    11    12    1
    26    12    13    1
    27    12    14    1
    28    14    15    1
    29    15    16    2
    30    15    17    1
    31     4     5   ar
    32     5     6   ar
    33    30    20   ar
    34     6     1   ar
    35    29    22   ar
    36    17     7    1
@<TRIPOS>MOLECULE
*****
 33 36 0 0 0
SMALL
GASTEIGER

@<TRIPOS>ATOM
      1 C           5.2901   -0.2627   35.2519 C.ar    1  UNL1        0.0000
      2 C           6.6279   -0.1880   34.5775 C.ar    1  UNL1        0.0000
      3 C           6.9094   -1.0373   33.3736 C.ar    1  UNL1        0.0000
      4 C           5.8532   -1.9614   32.8440 C.ar    1  UNL1        0.0000
      5 C           4.5154   -2.0362   33.5185 C.ar    1  UNL1        0.0000
      6 C           4.2339   -1.1869   34.7223 C.ar    1  UNL1        0.0000
      7 B           6.1348   -2.8108   31.6401 B       1  UNL1        0.0000
      8 O           6.5115   -4.2162   32.0045 O.3     1  UNL1        0.0000
      9 C           6.8830   -5.4484   31.2341 C.2     1  UNL1        0.0000
     10 O           7.1741   -6.6178   32.1272 O.2     1  UNL1        0.0000
     11 C           7.0318   -5.7855   29.7800 C.3     1  UNL1        0.0000
     12 N           6.8706   -5.0300   28.4942 N.3     1  UNL1        0.0000
     13 C           7.1522   -5.8793   27.2903 C.3     1  UNL1        0.0000
     14 C           6.4939   -3.6246   28.1298 C.3     1  UNL1        0.0000
     15 C           6.1224   -2.3924   28.9003 C.2     1  UNL1        0.0000
     16 O           5.8313   -1.2230   28.0072 O.2     1  UNL1        0.0000
     17 O           5.9736   -2.0553   30.3543 O.3     1  UNL1        0.0000
     18 C           5.0086    0.5866   36.4557 C.3     1  UNL1        0.0000
     19 C           2.5340    0.9136   38.5579 C.3     1  UNL1        0.0000
     20 C           2.7997    1.7851   37.3664 C.ar    1  UNL1        0.0000
     21 N           1.9745    2.9600   36.9318 N.ar    1  UNL1        0.0000
     22 C           2.6020    3.5358   35.6970 C.ar    1  UNL1        0.0000
     23 C           2.2256    4.7001   34.8294 C.ar    1  UNL1        0.0000
     24 C           3.0621    5.0454   33.6332 C.ar    1  UNL1        0.0000
     25 CL          2.6857    6.2097   32.7656 Cl      1  UNL1        0.0000
     26 C           4.2751    4.2264   33.3045 C.ar    1  UNL1        0.0000
     27 CL          5.1116    4.5716   32.1083 Cl      1  UNL1        0.0000
     28 C           4.6515    3.0621   34.1722 C.ar    1  UNL1        0.0000
     29 C           3.8149    2.7168   35.3684 C.ar    1  UNL1        0.0000
     30 N           3.9371    1.6348   36.4001 N.ar    1  UNL1        0.0000
     31 N           1.0127    5.5191   35.1581 N.pl3   1  UNL1        1.0000
     32 O          -0.1310    5.5874   34.1900 O.2     1  UNL1        0.0000
     33 O           0.9435    6.2699   36.4549 O.co2   1  UNL1       -1.0000
@<TRIPOS>UNITY_ATOM_ATTR
31 1
charge 1
33 1
charge -1
@<TRIPOS>BOND
     1    19    20    1
     2    20    21   ar
     3    21    22   ar
     4    22    23   ar
     5    23    31    1
     6    31    32    2
     7    31    33    1
     8    23    24   ar
     9    24    25    1
    10    24    26   ar
    11    26    27    1
    12    26    28   ar
    13    28    29   ar
    14    29    30   ar
    15    30    18    1
    16    18     1    1
    17     1     2   ar
    18     2     3   ar
    19     3     4   ar
    20     4     7    1
    21     7     8    1
    22     8     9    1
    23     9    10    2
    24     9    11    1
    25    11    12    1
    26    12    13    1
    27    12    14    1
    28    14    15    1
    29    15    16    2
    30    15    17    1
    31     4     5   ar
    32     5     6   ar
    33    30    20   ar
    34     6     1   ar
    35    29    22   ar
    36    17     7    1
@<TRIPOS>MOLECULE
*****
 33 36 0 0 0
SMALL
GASTEIGER

@<TRIPOS>ATOM
      1 C           2.7555   -0.3468   19.3400 C.ar    1  UNL1        0.0000
      2 C           1.6431   -1.0171   20.0906 C.ar    1  UNL1        0.0000
      3 C           0.5932   -0.1903   20.7719 C.ar    1  UNL1        0.0000
      4 C           0.6557    1.3068   20.7027 C.ar    1  UNL1        0.0000
      5 C           1.7681    1.9771   19.9521 C.ar    1  UNL1        0.0000
      6 C           2.8180    1.1503   19.2708 C.ar    1  UNL1        0.0000
      7 B          -0.3942    2.1336   21.3840 B       1  UNL1        0.0000
      8 O          -0.1004    2.3491   22.8390 O.3     1  UNL1        0.0000
      9 C          -0.7822    3.0711   23.9631 C.2     1  UNL1        0.0000
     10 O          -0.0293    2.9619   25.2559 O.2     1  UNL1        0.0000
     11 C          -2.0403    3.8768   24.0978 C.3     1  UNL1        0.0000
     12 N          -3.1377    4.2940   23.1642 N.3     1  UNL1        0.0000
     13 C          -4.1876    5.1208   23.8455 C.3     1  UNL1        0.0000
     14 C          -3.4315    4.0785   21.7092 C.3     1  UNL1        0.0000
     15 C          -2.7497    3.3564   20.5850 C.2     1  UNL1        0.0000
     16 O          -3.5026    3.4656   19.2923 O.2     1  UNL1        0.0000
     17 O          -1.4916    2.5508   20.4503 O.3     1  UNL1        0.0000
     18 C           3.8054   -1.1736   18.6587 C.3     1  UNL1        0.0000
     19 C           3.0097   -4.3257   18.9435 C.3     1  UNL1        0.0000
     20 C           4.1998   -3.6571   19.5653 C.ar    1  UNL1        0.0000
     21 N           5.2331   -4.3199   20.4272 N.ar    1  UNL1        0.0000
     22 C           6.2375   -3.2807   20.8290 C.ar    1  UNL1        0.0000
     23 C           7.4744   -3.3543   21.6743 C.ar    1  UNL1        0.0000
     24 C           8.2988   -2.1226   21.9060 C.ar    1  UNL1        0.0000
     25 CL          9.5357   -2.1962   22.7513 Cl      1  UNL1        0.0000
     26 C           7.8862   -0.8176   21.2925 C.ar    1  UNL1        0.0000
     27 CL          8.7105    0.4140   21.5242 Cl      1  UNL1        0.0000
     28 C           6.6492   -0.7441   20.4471 C.ar    1  UNL1        0.0000
     29 C           5.8249   -1.9756   20.2154 C.ar    1  UNL1        0.0000
     30 N           4.5655   -2.2082   19.4344 N.ar    1  UNL1        0.0000
     31 N           7.8870   -4.6594   22.2878 N.pl3   1  UNL1        1.0000
     32 O           7.7171   -4.8823   23.7614 O.2     1  UNL1        0.0000
     33 O           8.4697   -5.7415   21.4278 O.co2   1  UNL1       -1.0000
@<TRIPOS>UNITY_ATOM_ATTR
31 1
charge 1
33 1
charge -1
@<TRIPOS>BOND
     1    19    20    1
     2    20    21   ar
     3    21    22   ar
     4    22    23   ar
     5    23    31    1
     6    31    32    2
     7    31    33    1
     8    23    24   ar
     9    24    25    1
    10    24    26   ar
    11    26    27    1
    12    26    28   ar
    13    28    29   ar
    14    29    30   ar
    15    30    18    1
    16    18     1    1
    17     1     2   ar
    18     2     3   ar
    19     3     4   ar
    20     4     7    1
    21     7     8    1
    22     8     9    1
    23     9    10    2
    24     9    11    1
    25    11    12    1
    26    12    13    1
    27    12    14    1
    28    14    15    1
    29    15    16    2
    30    15    17    1
    31     4     5   ar
    32     5     6   ar
    33    30    20   ar
    34     6     1   ar
    35    29    22   ar
    36    17     7    1
