@<TRIPOS>MOLECULE
*****
 30 32 0 0 0
SMALL
GASTEIGER

@<TRIPOS>ATOM
      1 C          -4.4270  -19.4191   22.3440 C.3     1  UNL1        0.1565
      2 C          -3.4042  -18.4307   21.8676 C.ar    1  UNL1        0.0369
      3 C          -2.5728  -18.7363   20.6570 C.ar    1  UNL1        0.0121
      4 C          -1.5500  -17.7479   20.1807 C.ar    1  UNL1        0.0576
      5 CL         -0.7186  -18.0534   18.9701 Cl      1  UNL1       -0.0823
      6 C          -1.3586  -16.4539   20.9149 C.ar    1  UNL1        0.0145
      7 C          -2.1899  -16.1484   22.1254 C.ar    1  UNL1        0.0375
      8 C          -3.2127  -17.1368   22.6018 C.ar    1  UNL1        0.1369
      9 O          -4.0441  -16.8312   23.8124 O.3     1  UNL1       -0.4709
     10 C          -4.9751  -15.6551   23.8055 C.3     1  UNL1        0.2320
     11 C          -6.0576  -15.5493   24.8384 C.ar    1  UNL1        0.0212
     12 C          -5.7070  -15.5673   26.2968 C.ar    1  UNL1       -0.0007
     13 C          -6.7896  -15.4615   27.3297 C.ar    1  UNL1       -0.0002
     14 C          -8.2226  -15.3378   26.9043 C.ar    1  UNL1       -0.0000
     15 C          -8.5732  -15.3199   25.4459 C.ar    1  UNL1       -0.0002
     16 C          -7.4907  -15.4256   24.4130 C.ar    1  UNL1       -0.0007
     17 C          -5.9624  -21.2511   20.1223 C.3     1  UNL1        0.0518
     18 C          -6.5654  -20.1200   20.9014 C.ar    1  UNL1        0.0592
     19 C          -7.9800  -19.6323   20.7960 C.ar    1  UNL1        0.0506
     20 C          -8.1485  -18.4889   21.7521 C.ar    1  UNL1        0.1576
     21 N          -6.8381  -18.2699   22.4484 N.ar    1  UNL1       -0.1539
     22 N          -5.8596  -19.2779   21.9226 N.ar    1  UNL1       -0.2491
     23 N          -9.4066  -17.7025   21.9732 N.am    1  UNL1       -0.2336
     24 C         -10.1649  -17.8467   23.2594 C.2     1  UNL1        0.4064
     25 O          -9.6651  -18.7772   24.3244 O.2     1  UNL1       -0.2261
     26 H          -9.7346  -17.0917   21.2742 H       1  UNL1        0.1597
     27 O         -11.4229  -17.0604   23.4805 O.3     1  UNL1       -0.4382
     28 C         -12.7357  -17.5905   22.9847 C.3     1  UNL1        0.1707
     29 C         -12.9833  -17.7214   21.5110 C.3     1  UNL1        0.0474
     30 C         -13.8007  -17.9897   23.9626 C.3     1  UNL1        0.0474
@<TRIPOS>BOND
     1    17    18    1
     2    18    19   ar
     3    19    20   ar
     4    20    23    1
     5    23    24   am
     6    24    25    2
     7    24    27    1
     8    27    28    1
     9    28    29    1
    10    28    30    1
    11    20    21   ar
    12    21    22   ar
    13    22     1    1
    14     1     2    1
    15     2     3   ar
    16     3     4   ar
    17     4     5    1
    18     4     6   ar
    19     6     7   ar
    20     7     8   ar
    21     8     9    1
    22     9    10    1
    23    10    11    1
    24    11    12   ar
    25    12    13   ar
    26    13    14   ar
    27    14    15   ar
    28    15    16   ar
    29    22    18   ar
    30     8     2   ar
    31    16    11   ar
    32    23    26    1
@<TRIPOS>MOLECULE
*****
 30 32 0 0 0
SMALL
GASTEIGER

@<TRIPOS>ATOM
      1 C          -9.0391  -19.4109   23.1181 C.3     1  UNL1        0.1565
      2 C         -10.1410  -18.3972   23.0271 C.ar    1  UNL1        0.0369
      3 C         -11.5493  -18.7879   23.3645 C.ar    1  UNL1        0.0121
      4 C         -12.6511  -17.7742   23.2735 C.ar    1  UNL1        0.0576
      5 CL        -14.0595  -18.1649   23.6109 Cl      1  UNL1       -0.0823
      6 C         -12.3446  -16.3697   22.8452 C.ar    1  UNL1        0.0145
      7 C         -10.9362  -15.9789   22.5079 C.ar    1  UNL1        0.0375
      8 C          -9.8344  -16.9927   22.5988 C.ar    1  UNL1        0.1369
      9 O          -8.4260  -16.6020   22.2615 O.3     1  UNL1       -0.4709
     10 C          -7.8094  -15.3933   22.9009 C.3     1  UNL1        0.2320
     11 C          -7.4548  -15.4144   24.3582 C.ar    1  UNL1        0.0212
     12 C          -6.0160  -15.3764   24.7806 C.ar    1  UNL1       -0.0007
     13 C          -5.6614  -15.3975   26.2380 C.ar    1  UNL1       -0.0002
     14 C          -6.7456  -15.4565   27.2729 C.ar    1  UNL1       -0.0000
     15 C          -8.1844  -15.4945   26.8505 C.ar    1  UNL1       -0.0002
     16 C          -8.5390  -15.4734   25.3932 C.ar    1  UNL1       -0.0007
     17 C          -9.7264  -19.4066   19.9279 C.3     1  UNL1        0.0518
     18 C          -8.3614  -19.5388   20.5355 C.ar    1  UNL1        0.0592
     19 C          -7.0726  -19.6922   19.7835 C.ar    1  UNL1        0.0506
     20 C          -5.9602  -19.7891   20.7850 C.ar    1  UNL1        0.1576
     21 N          -6.5615  -19.6955   22.1560 N.ar    1  UNL1       -0.1539
     22 N          -8.0455  -19.5408   22.0019 N.ar    1  UNL1       -0.2491
     23 N          -4.5025  -19.9510   20.4707 N.am    1  UNL1       -0.2336
     24 C          -3.5059  -18.9661   21.0063 C.2     1  UNL1        0.4064
     25 O          -3.9670  -17.8193   21.8560 O.2     1  UNL1       -0.2261
     26 H          -4.1998  -20.7038   19.9130 H       1  UNL1        0.1597
     27 O          -2.0482  -19.1281   20.6920 O.3     1  UNL1       -0.4382
     28 C          -1.3755  -18.1802   19.7437 C.3     1  UNL1        0.1707
     29 C          -2.1185  -17.6623   18.5479 C.3     1  UNL1        0.0474
     30 C           0.0401  -17.7503   19.9913 C.3     1  UNL1        0.0474
@<TRIPOS>BOND
     1    17    18    1
     2    18    19   ar
     3    19    20   ar
     4    20    23    1
     5    23    24   am
     6    24    25    2
     7    24    27    1
     8    27    28    1
     9    28    29    1
    10    28    30    1
    11    20    21   ar
    12    21    22   ar
    13    22     1    1
    14     1     2    1
    15     2     3   ar
    16     3     4   ar
    17     4     5    1
    18     4     6   ar
    19     6     7   ar
    20     7     8   ar
    21     8     9    1
    22     9    10    1
    23    10    11    1
    24    11    12   ar
    25    12    13   ar
    26    13    14   ar
    27    14    15   ar
    28    15    16   ar
    29    22    18   ar
    30     8     2   ar
    31    16    11   ar
    32    23    26    1
@<TRIPOS>MOLECULE
*****
 30 32 0 0 0
SMALL
GASTEIGER

@<TRIPOS>ATOM
      1 C          -4.3038  -17.7922   23.4865 C.3     1  UNL1        0.1565
      2 C          -3.6303  -18.0175   22.1652 C.ar    1  UNL1        0.0369
      3 C          -2.3537  -17.2994   21.8421 C.ar    1  UNL1        0.0121
      4 C          -1.6803  -17.5247   20.5208 C.ar    1  UNL1        0.0576
      5 CL         -0.4035  -16.8066   20.1976 Cl      1  UNL1       -0.0823
      6 C          -2.2835  -18.4680   19.5228 C.ar    1  UNL1        0.0145
      7 C          -3.5602  -19.1861   19.8459 C.ar    1  UNL1        0.0375
      8 C          -4.2336  -18.9608   21.1672 C.ar    1  UNL1        0.1369
      9 O          -5.5103  -19.6789   21.4904 O.3     1  UNL1       -0.4709
     10 C          -6.6982  -19.5412   20.5848 C.3     1  UNL1        0.2320
     11 C          -8.0833  -19.7189   21.1323 C.ar    1  UNL1        0.0212
     12 C          -9.2643  -19.6919   20.2079 C.ar    1  UNL1       -0.0007
     13 C         -10.6495  -19.8695   20.7555 C.ar    1  UNL1       -0.0002
     14 C         -10.8536  -20.0742   22.2273 C.ar    1  UNL1       -0.0000
     15 C          -9.6726  -20.1013   23.1517 C.ar    1  UNL1       -0.0002
     16 C          -8.2874  -19.9236   22.6042 C.ar    1  UNL1       -0.0007
     17 C          -4.8013  -15.5039   25.7594 C.3     1  UNL1        0.0518
     18 C          -5.7220  -15.8311   24.6213 C.ar    1  UNL1        0.0592
     19 C          -7.0331  -15.1638   24.3282 C.ar    1  UNL1        0.0506
     20 C          -7.6147  -15.8032   23.1023 C.ar    1  UNL1        0.1576
     21 N          -6.6631  -16.8656   22.6378 N.ar    1  UNL1       -0.1539
     22 N          -5.4933  -16.8828   23.5766 N.ar    1  UNL1       -0.2491
     23 N          -8.9189  -15.4434   22.4546 N.am    1  UNL1       -0.2336
     24 C         -10.1997  -16.0277   22.9725 C.2     1  UNL1        0.4064
     25 O         -10.1764  -16.9716   24.1379 O.2     1  UNL1       -0.2261
     26 H          -8.9343  -14.8238   21.6897 H       1  UNL1        0.1597
     27 O         -11.5040  -15.6679   22.3247 O.3     1  UNL1       -0.4382
     28 C         -12.0465  -16.5132   21.2106 C.3     1  UNL1        0.1707
     29 C         -13.1250  -17.5180   21.4883 C.3     1  UNL1        0.0474
     30 C         -11.5104  -16.3536   19.8188 C.3     1  UNL1        0.0474
@<TRIPOS>BOND
     1    17    18    1
     2    18    19   ar
     3    19    20   ar
     4    20    23    1
     5    23    24   am
     6    24    25    2
     7    24    27    1
     8    27    28    1
     9    28    29    1
    10    28    30    1
    11    20    21   ar
    12    21    22   ar
    13    22     1    1
    14     1     2    1
    15     2     3   ar
    16     3     4   ar
    17     4     5    1
    18     4     6   ar
    19     6     7   ar
    20     7     8   ar
    21     8     9    1
    22     9    10    1
    23    10    11    1
    24    11    12   ar
    25    12    13   ar
    26    13    14   ar
    27    14    15   ar
    28    15    16   ar
    29    22    18   ar
    30     8     2   ar
    31    16    11   ar
    32    23    26    1
@<TRIPOS>MOLECULE
*****
 30 32 0 0 0
SMALL
GASTEIGER

@<TRIPOS>ATOM
      1 C          -8.2787  -17.2967   23.0112 C.3     1  UNL1        0.1565
      2 C          -8.2845  -16.9720   24.4757 C.ar    1  UNL1        0.0369
      3 C          -7.3189  -15.9638   25.0243 C.ar    1  UNL1        0.0121
      4 C          -7.3248  -15.6391   26.4887 C.ar    1  UNL1        0.0576
      5 CL         -6.3592  -14.6308   27.0373 Cl      1  UNL1       -0.0823
      6 C          -8.2964  -16.3228   27.4045 C.ar    1  UNL1        0.0145
      7 C          -9.2620  -17.3310   26.8560 C.ar    1  UNL1        0.0375
      8 C          -9.2561  -17.6556   25.3916 C.ar    1  UNL1        0.1369
      9 O         -10.2217  -18.6640   24.8429 O.3     1  UNL1       -0.4709
     10 C         -11.5026  -18.2082   24.2092 C.3     1  UNL1        0.2320
     11 C         -11.5314  -17.8429   22.7547 C.ar    1  UNL1        0.0212
     12 C         -11.3003  -18.8964   21.7122 C.ar    1  UNL1       -0.0007
     13 C         -11.3291  -18.5311   20.2576 C.ar    1  UNL1       -0.0002
     14 C         -11.5889  -17.1124   19.8456 C.ar    1  UNL1       -0.0000
     15 C         -11.8200  -16.0590   20.8881 C.ar    1  UNL1       -0.0002
     16 C         -11.7912  -16.4242   22.3426 C.ar    1  UNL1       -0.0007
     17 C          -8.7133  -20.5296   23.1060 C.3     1  UNL1        0.0518
     18 C          -7.5317  -19.8157   22.5194 C.ar    1  UNL1        0.0592
     19 C          -6.3425  -20.4624   21.8734 C.ar    1  UNL1        0.0506
     20 C          -5.4076  -19.3762   21.4305 C.ar    1  UNL1        0.1576
     21 N          -6.0192  -18.0581   21.8029 N.ar    1  UNL1       -0.1539
     22 N          -7.3319  -18.3297   22.4758 N.ar    1  UNL1       -0.2491
     23 N          -4.0922  -19.5733   20.7371 N.am    1  UNL1       -0.2336
     24 C          -2.8249  -19.0983   21.3839 C.2     1  UNL1        0.4064
     25 O          -2.8730  -18.4261   22.7239 O.2     1  UNL1       -0.2261
     26 H          -4.0607  -20.0145   19.8575 H       1  UNL1        0.1597
     27 O          -1.5095  -19.2954   20.6904 O.3     1  UNL1       -0.4382
     28 C          -0.9815  -18.2365   19.7685 C.3     1  UNL1        0.1707
     29 C          -1.7903  -17.8041   18.5816 C.3     1  UNL1        0.0474
     30 C           0.3554  -17.6100   20.0337 C.3     1  UNL1        0.0474
@<TRIPOS>BOND
     1    17    18    1
     2    18    19   ar
     3    19    20   ar
     4    20    23    1
     5    23    24   am
     6    24    25    2
     7    24    27    1
     8    27    28    1
     9    28    29    1
    10    28    30    1
    11    20    21   ar
    12    21    22   ar
    13    22     1    1
    14     1     2    1
    15     2     3   ar
    16     3     4   ar
    17     4     5    1
    18     4     6   ar
    19     6     7   ar
    20     7     8   ar
    21     8     9    1
    22     9    10    1
    23    10    11    1
    24    11    12   ar
    25    12    13   ar
    26    13    14   ar
    27    14    15   ar
    28    15    16   ar
    29    22    18   ar
    30     8     2   ar
    31    16    11   ar
    32    23    26    1
@<TRIPOS>MOLECULE
*****
 30 32 0 0 0
SMALL
GASTEIGER

@<TRIPOS>ATOM
      1 C          -9.6430  -16.2342   23.9151 C.3     1  UNL1        0.1565
      2 C         -10.0921  -16.8076   22.6037 C.ar    1  UNL1        0.0369
      3 C         -10.9803  -16.0057   21.6993 C.ar    1  UNL1        0.0121
      4 C         -11.4293  -16.5792   20.3880 C.ar    1  UNL1        0.0576
      5 CL        -12.3176  -15.7773   19.4836 Cl      1  UNL1       -0.0823
      6 C         -10.9901  -17.9545   19.9812 C.ar    1  UNL1        0.0145
      7 C         -10.1019  -18.7564   20.8856 C.ar    1  UNL1        0.0375
      8 C          -9.6529  -18.1829   22.1968 C.ar    1  UNL1        0.1369
      9 O          -8.7646  -18.9848   23.1013 O.3     1  UNL1       -0.4709
     10 C          -8.0526  -20.1948   22.5731 C.3     1  UNL1        0.2320
     11 C          -6.8938  -20.0330   21.6346 C.ar    1  UNL1        0.0212
     12 C          -6.4855  -18.6644   21.1760 C.ar    1  UNL1       -0.0007
     13 C          -5.3266  -18.5026   20.2375 C.ar    1  UNL1       -0.0002
     14 C          -4.5760  -19.7093   19.7576 C.ar    1  UNL1       -0.0000
     15 C          -4.9842  -21.0779   20.2162 C.ar    1  UNL1       -0.0002
     16 C          -6.1431  -21.2397   21.1547 C.ar    1  UNL1       -0.0007
     17 C          -8.2783  -15.4247   26.7667 C.3     1  UNL1        0.0518
     18 C          -7.5645  -15.5593   25.4543 C.ar    1  UNL1        0.0592
     19 C          -6.0980  -15.3453   25.2222 C.ar    1  UNL1        0.0506
     20 C          -5.8190  -15.5852   23.7681 C.ar    1  UNL1        0.1576
     21 N          -7.1131  -15.9473   23.1014 N.ar    1  UNL1       -0.1539
     22 N          -8.1918  -15.9313   24.1435 N.ar    1  UNL1       -0.2491
     23 N          -4.4810  -15.4812   23.0981 N.am    1  UNL1       -0.2336
     24 C          -3.5815  -16.6796   23.0295 C.2     1  UNL1        0.4064
     25 O          -4.0200  -17.9819   23.6307 O.2     1  UNL1       -0.2261
     26 H          -4.1932  -14.6264   22.7035 H       1  UNL1        0.1597
     27 O          -2.2435  -16.5756   22.3596 O.3     1  UNL1       -0.4382
     28 C          -1.8756  -17.5343   21.2660 C.3     1  UNL1        0.1707
     29 C          -1.7484  -17.0472   19.8530 C.3     1  UNL1        0.0474
     30 C          -1.6351  -18.9800   21.5856 C.3     1  UNL1        0.0474
@<TRIPOS>BOND
     1    17    18    1
     2    18    19   ar
     3    19    20   ar
     4    20    23    1
     5    23    24   am
     6    24    25    2
     7    24    27    1
     8    27    28    1
     9    28    29    1
    10    28    30    1
    11    20    21   ar
    12    21    22   ar
    13    22     1    1
    14     1     2    1
    15     2     3   ar
    16     3     4   ar
    17     4     5    1
    18     4     6   ar
    19     6     7   ar
    20     7     8   ar
    21     8     9    1
    22     9    10    1
    23    10    11    1
    24    11    12   ar
    25    12    13   ar
    26    13    14   ar
    27    14    15   ar
    28    15    16   ar
    29    22    18   ar
    30     8     2   ar
    31    16    11   ar
    32    23    26    1
@<TRIPOS>MOLECULE
*****
 30 32 0 0 0
SMALL
GASTEIGER

@<TRIPOS>ATOM
      1 C          -9.7812  -19.6429   20.7934 C.3     1  UNL1        0.1565
      2 C         -10.6554  -18.4504   21.0463 C.ar    1  UNL1        0.0369
      3 C         -11.0452  -17.5518   19.9104 C.ar    1  UNL1        0.0121
      4 C         -11.9193  -16.3594   20.1633 C.ar    1  UNL1        0.0576
      5 CL        -12.3092  -15.4607   19.0273 Cl      1  UNL1       -0.0823
      6 C         -12.4037  -16.0656   21.5523 C.ar    1  UNL1        0.0145
      7 C         -12.0139  -16.9643   22.6882 C.ar    1  UNL1        0.0375
      8 C         -11.1397  -18.1567   22.4353 C.ar    1  UNL1        0.1369
      9 O         -10.7499  -19.0554   23.5713 O.3     1  UNL1       -0.4709
     10 C         -10.1862  -18.4693   24.8317 C.3     1  UNL1        0.2320
     11 C          -9.1776  -17.3615   24.7582 C.ar    1  UNL1        0.0212
     12 C          -8.4251  -17.1157   23.4840 C.ar    1  UNL1       -0.0007
     13 C          -7.4165  -16.0078   23.4105 C.ar    1  UNL1       -0.0002
     14 C          -7.1604  -15.1458   24.6110 C.ar    1  UNL1       -0.0000
     15 C          -7.9129  -15.3916   25.8851 C.ar    1  UNL1       -0.0002
     16 C          -8.9215  -16.4994   25.9587 C.ar    1  UNL1       -0.0007
     17 C          -7.9070  -20.7709   23.2151 C.3     1  UNL1        0.0518
     18 C          -7.4284  -20.0315   22.0009 C.ar    1  UNL1        0.0592
     19 C          -6.0042  -19.6808   21.6868 C.ar    1  UNL1        0.0506
     20 C          -5.9854  -18.9455   20.3795 C.ar    1  UNL1        0.1576
     21 N          -7.3981  -18.8418   19.8857 N.ar    1  UNL1       -0.1539
     22 N          -8.2898  -19.5130   20.8878 N.ar    1  UNL1       -0.2491
     23 N          -4.7679  -18.4083   19.6874 N.am    1  UNL1       -0.2336
     24 C          -3.4230  -19.0158   19.9565 C.2     1  UNL1        0.4064
     25 O          -3.2957  -20.1604   20.9174 O.2     1  UNL1       -0.2261
     26 H          -4.8514  -17.6570   19.0567 H       1  UNL1        0.1597
     27 O          -2.2055  -18.4785   19.2644 O.3     1  UNL1       -0.4382
     28 C          -1.2144  -17.6493   20.0262 C.3     1  UNL1        0.1707
     29 C          -1.6939  -16.6052   20.9905 C.3     1  UNL1        0.0474
     30 C           0.2562  -17.8643   19.8235 C.3     1  UNL1        0.0474
@<TRIPOS>BOND
     1    17    18    1
     2    18    19   ar
     3    19    20   ar
     4    20    23    1
     5    23    24   am
     6    24    25    2
     7    24    27    1
     8    27    28    1
     9    28    29    1
    10    28    30    1
    11    20    21   ar
    12    21    22   ar
    13    22     1    1
    14     1     2    1
    15     2     3   ar
    16     3     4   ar
    17     4     5    1
    18     4     6   ar
    19     6     7   ar
    20     7     8   ar
    21     8     9    1
    22     9    10    1
    23    10    11    1
    24    11    12   ar
    25    12    13   ar
    26    13    14   ar
    27    14    15   ar
    28    15    16   ar
    29    22    18   ar
    30     8     2   ar
    31    16    11   ar
    32    23    26    1
@<TRIPOS>MOLECULE
*****
 30 32 0 0 0
SMALL
GASTEIGER

@<TRIPOS>ATOM
      1 C          -8.5736  -16.0136   23.1234 C.3     1  UNL1        0.1565
      2 C          -9.5002  -17.1851   22.9857 C.ar    1  UNL1        0.0369
      3 C         -10.6206  -17.3744   23.9649 C.ar    1  UNL1        0.0121
      4 C         -11.5472  -18.5459   23.8271 C.ar    1  UNL1        0.0576
      5 CL        -12.6676  -18.7352   24.8063 Cl      1  UNL1       -0.0823
      6 C         -11.3534  -19.5281   22.7101 C.ar    1  UNL1        0.0145
      7 C         -10.2330  -19.3388   21.7309 C.ar    1  UNL1        0.0375
      8 C          -9.3064  -18.1673   21.8687 C.ar    1  UNL1        0.1369
      9 O          -8.1860  -17.9780   20.8894 O.3     1  UNL1       -0.4709
     10 C          -7.5518  -19.1699   20.2357 C.3     1  UNL1        0.2320
     11 C          -6.1102  -19.4907   20.4981 C.ar    1  UNL1        0.0212
     12 C          -5.6813  -19.9580   21.8574 C.ar    1  UNL1       -0.0007
     13 C          -4.2396  -20.2788   22.1197 C.ar    1  UNL1       -0.0002
     14 C          -3.2270  -20.1323   21.0229 C.ar    1  UNL1       -0.0000
     15 C          -3.6560  -19.6650   19.6636 C.ar    1  UNL1       -0.0002
     16 C          -5.0976  -19.3442   19.4012 C.ar    1  UNL1       -0.0007
     17 C          -7.4099  -15.2232   26.0681 C.3     1  UNL1        0.0518
     18 C          -6.6320  -15.8588   24.9541 C.ar    1  UNL1        0.0592
     19 C          -5.1826  -16.2427   24.9980 C.ar    1  UNL1        0.0506
     20 C          -4.8217  -16.8432   23.6717 C.ar    1  UNL1        0.1576
     21 N          -6.0481  -16.8304   22.8081 N.ar    1  UNL1       -0.1539
     22 N          -7.1669  -16.2221   23.6006 N.ar    1  UNL1       -0.2491
     23 N          -3.4715  -17.3648   23.2781 N.am    1  UNL1       -0.2336
     24 C          -2.5994  -16.5670   22.3546 C.2     1  UNL1        0.4064
     25 O          -3.0773  -15.2477   21.8247 O.2     1  UNL1       -0.2261
     26 H          -3.1578  -18.2308   23.6259 H       1  UNL1        0.1597
     27 O          -1.2492  -17.0887   21.9610 O.3     1  UNL1       -0.4382
     28 C          -0.9024  -17.2537   20.5109 C.3     1  UNL1        0.1707
     29 C          -1.9386  -16.9944   19.4577 C.3     1  UNL1        0.0474
     30 C           0.4805  -17.6781   20.1142 C.3     1  UNL1        0.0474
@<TRIPOS>BOND
     1    17    18    1
     2    18    19   ar
     3    19    20   ar
     4    20    23    1
     5    23    24   am
     6    24    25    2
     7    24    27    1
     8    27    28    1
     9    28    29    1
    10    28    30    1
    11    20    21   ar
    12    21    22   ar
    13    22     1    1
    14     1     2    1
    15     2     3   ar
    16     3     4   ar
    17     4     5    1
    18     4     6   ar
    19     6     7   ar
    20     7     8   ar
    21     8     9    1
    22     9    10    1
    23    10    11    1
    24    11    12   ar
    25    12    13   ar
    26    13    14   ar
    27    14    15   ar
    28    15    16   ar
    29    22    18   ar
    30     8     2   ar
    31    16    11   ar
    32    23    26    1
@<TRIPOS>MOLECULE
*****
 30 32 0 0 0
SMALL
GASTEIGER

@<TRIPOS>ATOM
      1 C          -9.4138  -16.3074   24.2286 C.3     1  UNL1        0.1565
      2 C          -9.9755  -17.6799   24.0029 C.ar    1  UNL1        0.0369
      3 C          -9.6455  -18.7912   24.9548 C.ar    1  UNL1        0.0121
      4 C         -10.2072  -20.1635   24.7290 C.ar    1  UNL1        0.0576
      5 CL         -9.8773  -21.2749   25.6809 Cl      1  UNL1       -0.0823
      6 C         -11.0989  -20.4246   23.5514 C.ar    1  UNL1        0.0145
      7 C         -11.4289  -19.3134   22.5995 C.ar    1  UNL1        0.0375
      8 C         -10.8672  -17.9410   22.8253 C.ar    1  UNL1        0.1369
      9 O         -11.1971  -16.8296   21.8734 O.3     1  UNL1       -0.4709
     10 C         -10.7496  -16.9089   20.4439 C.3     1  UNL1        0.2320
     11 C          -9.9068  -18.0615   19.9846 C.ar    1  UNL1        0.0212
     12 C         -10.4839  -19.0905   19.0582 C.ar    1  UNL1       -0.0007
     13 C          -9.6409  -20.2432   18.5990 C.ar    1  UNL1       -0.0002
     14 C          -8.2209  -20.3669   19.0662 C.ar    1  UNL1       -0.0000
     15 C          -7.6438  -19.3379   19.9926 C.ar    1  UNL1       -0.0002
     16 C          -8.4867  -18.1853   20.4518 C.ar    1  UNL1       -0.0007
     17 C          -7.8368  -15.4450   26.9523 C.3     1  UNL1        0.0518
     18 C          -7.2075  -15.7204   25.6188 C.ar    1  UNL1        0.0592
     19 C          -5.7429  -15.6476   25.3032 C.ar    1  UNL1        0.0506
     20 C          -5.5625  -15.9991   23.8562 C.ar    1  UNL1        0.1576
     21 N          -6.9157  -16.2890   23.2775 N.ar    1  UNL1       -0.1539
     22 N          -7.9324  -16.1167   24.3669 N.ar    1  UNL1       -0.2491
     23 N          -4.2581  -16.0514   23.1175 N.am    1  UNL1       -0.2336
     24 C          -3.5504  -17.3617   22.9374 C.2     1  UNL1        0.4064
     25 O          -4.1470  -18.6194   23.4959 O.2     1  UNL1       -0.2261
     26 H          -3.8665  -15.2259   22.7509 H       1  UNL1        0.1597
     27 O          -2.2459  -17.4140   22.1987 O.3     1  UNL1       -0.4382
     28 C          -2.2054  -17.9056   20.7820 C.3     1  UNL1        0.1707
     29 C          -3.3968  -18.6035   20.1960 C.3     1  UNL1        0.0474
     30 C          -0.9734  -17.6992   19.9516 C.3     1  UNL1        0.0474
@<TRIPOS>BOND
     1    17    18    1
     2    18    19   ar
     3    19    20   ar
     4    20    23    1
     5    23    24   am
     6    24    25    2
     7    24    27    1
     8    27    28    1
     9    28    29    1
    10    28    30    1
    11    20    21   ar
    12    21    22   ar
    13    22     1    1
    14     1     2    1
    15     2     3   ar
    16     3     4   ar
    17     4     5    1
    18     4     6   ar
    19     6     7   ar
    20     7     8   ar
    21     8     9    1
    22     9    10    1
    23    10    11    1
    24    11    12   ar
    25    12    13   ar
    26    13    14   ar
    27    14    15   ar
    28    15    16   ar
    29    22    18   ar
    30     8     2   ar
    31    16    11   ar
    32    23    26    1
