@<TRIPOS>MOLECULE
*****
 22 23 0 0 0
SMALL
GASTEIGER

@<TRIPOS>ATOM
      1 C           2.6750  -13.9895   28.1874 C.2     1  UNL1        0.4049
      2 O           1.4276  -13.5598   27.4737 O.2     1  UNL1       -0.2262
      3 N           3.9012  -13.1268   28.1400 N.am    1  UNL1       -0.2454
      4 C           5.1485  -13.5564   28.8537 C.3     1  UNL1        0.1011
      5 C           6.3747  -12.6937   28.8064 C.3     1  UNL1        0.0443
      6 C           6.3535  -11.4013   28.0454 C.2     1  UNL1       -0.0326
      7 C           7.5796  -10.5386   27.9981 C.2     1  UNL1        0.0412
      8 C           5.1061  -10.9716   27.3317 C.3     1  UNL1        0.0443
      9 C           3.8800  -11.8343   27.3790 C.3     1  UNL1        0.1011
     10 C           7.5584   -9.2462   27.2371 C.1     1  UNL1       -0.0598
     11 C           7.5372   -7.9537   26.4760 C.1     1  UNL1       -0.0597
     12 C           7.5160   -6.6613   25.7150 C.ar    1  UNL1        0.0426
     13 C           6.9120   -5.4359   26.3345 C.ar    1  UNL1        0.0083
     14 C           6.8908   -4.1435   25.5735 C.ar    1  UNL1        0.0013
     15 C           7.4735   -4.0764   24.1929 C.ar    1  UNL1        0.0103
     16 C           8.0774   -5.3017   23.5734 C.ar    1  UNL1        0.0691
     17 C           8.0986   -6.5942   24.3344 C.ar    1  UNL1        0.0185
     18 C           8.6601   -5.2346   22.1928 C.1     1  UNL1        0.1004
     19 N           9.2428   -5.1675   20.8122 N.1     1  UNL1       -0.1908
     20 O           2.6962  -15.2819   28.9484 O.3     1  UNL1       -0.4345
     21 C           1.9132  -17.7534   29.1181 C.3     1  UNL1        0.0513
     22 C           1.6868  -16.3486   28.6432 C.3     1  UNL1        0.2102
@<TRIPOS>BOND
     1    21    22    1
     2    22    20    1
     3    20     1    1
     4     1     2    2
     5     1     3   am
     6     3     4    1
     7     4     5    1
     8     5     6    1
     9     6     7    2
    10     7    10    1
    11    10    11    3
    12    11    12    1
    13    12    13   ar
    14    13    14   ar
    15    14    15   ar
    16    15    16   ar
    17    16    18    1
    18    18    19    3
    19    16    17   ar
    20     6     8    1
    21     8     9    1
    22     9     3    1
    23    17    12   ar
@<TRIPOS>MOLECULE
*****
 22 23 0 0 0
SMALL
GASTEIGER

@<TRIPOS>ATOM
      1 C           2.7989  -14.0065   28.1026 C.2     1  UNL1        0.4049
      2 O           1.5728  -13.6201   27.3297 O.2     1  UNL1       -0.2262
      3 N           4.0102  -13.1221   28.0787 N.am    1  UNL1       -0.2454
      4 C           5.2363  -13.5085   28.8515 C.3     1  UNL1        0.1011
      5 C           6.4476  -12.6241   28.8276 C.3     1  UNL1        0.0443
      6 C           6.4328  -11.3533   28.0309 C.2     1  UNL1       -0.0326
      7 C           7.6441  -10.4689   28.0070 C.2     1  UNL1        0.0412
      8 C           5.2067  -10.9669   27.2580 C.3     1  UNL1        0.0443
      9 C           3.9954  -11.8513   27.2819 C.3     1  UNL1        0.1011
     10 C           7.6294   -9.1982   27.2102 C.1     1  UNL1       -0.0598
     11 C           7.6145   -7.9273   26.4134 C.1     1  UNL1       -0.0597
     12 C           7.5998   -6.6565   25.6167 C.ar    1  UNL1        0.0426
     13 C           8.1924   -6.6282   24.2389 C.ar    1  UNL1        0.0083
     14 C           8.1776   -5.3574   23.4422 C.ar    1  UNL1        0.0013
     15 C           7.5702   -4.1149   24.0231 C.ar    1  UNL1        0.0103
     16 C           6.9777   -4.1433   25.4007 C.ar    1  UNL1        0.0691
     17 C           6.9924   -5.4141   26.1976 C.ar    1  UNL1        0.0185
     18 C           6.3703   -2.9008   25.9816 C.1     1  UNL1        0.1004
     19 N           5.7630   -1.6584   26.5626 N.1     1  UNL1       -0.1908
     20 O           2.8136  -15.2772   28.8993 O.3     1  UNL1       -0.4345
     21 C           1.9139  -17.7001   29.1643 C.3     1  UNL1        0.0513
     22 C           1.7073  -16.2771   28.7371 C.3     1  UNL1        0.2102
@<TRIPOS>BOND
     1    21    22    1
     2    22    20    1
     3    20     1    1
     4     1     2    2
     5     1     3   am
     6     3     4    1
     7     4     5    1
     8     5     6    1
     9     6     7    2
    10     7    10    1
    11    10    11    3
    12    11    12    1
    13    12    13   ar
    14    13    14   ar
    15    14    15   ar
    16    15    16   ar
    17    16    18    1
    18    18    19    3
    19    16    17   ar
    20     6     8    1
    21     8     9    1
    22     9     3    1
    23    17    12   ar
@<TRIPOS>MOLECULE
*****
 22 23 0 0 0
SMALL
GASTEIGER

@<TRIPOS>ATOM
      1 C           0.9885    0.2098   19.3552 C.2     1  UNL1        0.4049
      2 O           0.0517   -0.0637   20.4943 O.2     1  UNL1       -0.2262
      3 N           2.3540   -0.4109   19.3416 N.am    1  UNL1       -0.2454
      4 C           3.2909   -0.1374   18.2025 C.3     1  UNL1        0.1011
      5 C           4.6564   -0.7581   18.1889 C.3     1  UNL1        0.0443
      6 C           5.0850   -1.6522   19.3143 C.2     1  UNL1       -0.0326
      7 C           6.4505   -2.2729   19.3007 C.2     1  UNL1        0.0412
      8 C           4.1482   -1.9257   20.4534 C.3     1  UNL1        0.0443
      9 C           2.7827   -1.3051   20.4670 C.3     1  UNL1        0.1011
     10 C           6.8792   -3.1671   20.4261 C.1     1  UNL1       -0.0598
     11 C           7.3079   -4.0613   21.5516 C.1     1  UNL1       -0.0597
     12 C           7.7366   -4.9555   22.6770 C.ar    1  UNL1        0.0426
     13 C           8.7925   -5.9960   22.4478 C.ar    1  UNL1        0.0083
     14 C           9.2212   -6.8902   23.5732 C.ar    1  UNL1        0.0013
     15 C           8.5940   -6.7439   24.9279 C.ar    1  UNL1        0.0103
     16 C           7.5381   -5.7035   25.1572 C.ar    1  UNL1        0.0691
     17 C           7.1094   -4.8092   24.0317 C.ar    1  UNL1        0.0185
     18 C           6.9110   -5.5572   26.5119 C.1     1  UNL1        0.1004
     19 N           6.2838   -5.4110   27.8666 N.1     1  UNL1       -0.1908
     20 O           0.5599    1.1039   18.2298 O.3     1  UNL1       -0.4345
     21 C           1.7654    3.3929   18.4697 C.3     1  UNL1        0.0513
     22 C           0.4995    2.5889   18.4330 C.3     1  UNL1        0.2102
@<TRIPOS>BOND
     1    21    22    1
     2    22    20    1
     3    20     1    1
     4     1     2    2
     5     1     3   am
     6     3     4    1
     7     4     5    1
     8     5     6    1
     9     6     7    2
    10     7    10    1
    11    10    11    3
    12    11    12    1
    13    12    13   ar
    14    13    14   ar
    15    14    15   ar
    16    15    16   ar
    17    16    18    1
    18    18    19    3
    19    16    17   ar
    20     6     8    1
    21     8     9    1
    22     9     3    1
    23    17    12   ar
@<TRIPOS>MOLECULE
*****
 22 23 0 0 0
SMALL
GASTEIGER

@<TRIPOS>ATOM
      1 C          -7.5234    5.1266   24.2530 C.2     1  UNL1        0.4049
      2 O          -7.9076    4.8047   22.8393 O.2     1  UNL1       -0.2262
      3 N          -6.1824    4.7089   24.7795 N.am    1  UNL1       -0.2454
      4 C          -5.7982    5.0308   26.1932 C.3     1  UNL1        0.1011
      5 C          -4.4572    4.6130   26.7197 C.3     1  UNL1        0.0443
      6 C          -3.5004    3.8733   25.8324 C.2     1  UNL1       -0.0326
      7 C          -2.1594    3.4556   26.3589 C.2     1  UNL1        0.0412
      8 C          -3.8846    3.5514   24.4187 C.3     1  UNL1        0.0443
      9 C          -5.2256    3.9692   23.8922 C.3     1  UNL1        0.1011
     10 C          -1.2026    2.7159   25.4716 C.1     1  UNL1       -0.0598
     11 C          -0.2457    1.9762   24.5843 C.1     1  UNL1       -0.0597
     12 C           0.7111    1.2365   23.6970 C.ar    1  UNL1        0.0426
     13 C           1.8723    0.4994   24.2958 C.ar    1  UNL1        0.0083
     14 C           2.8292   -0.2403   23.4085 C.ar    1  UNL1        0.0013
     15 C           2.6249   -0.2429   21.9225 C.ar    1  UNL1        0.0103
     16 C           1.4637    0.4941   21.3237 C.ar    1  UNL1        0.0691
     17 C           0.5068    1.2338   22.2110 C.ar    1  UNL1        0.0185
     18 C           1.2594    0.4914   19.8377 C.1     1  UNL1        0.1004
     19 N           1.0551    0.4888   18.3517 N.1     1  UNL1       -0.1908
     20 O          -8.4803    5.8663   25.1403 O.3     1  UNL1       -0.4345
     21 C         -10.8571    4.8390   24.9272 C.3     1  UNL1        0.0513
     22 C          -9.9213    5.9972   24.7451 C.3     1  UNL1        0.2102
@<TRIPOS>BOND
     1    21    22    1
     2    22    20    1
     3    20     1    1
     4     1     2    2
     5     1     3   am
     6     3     4    1
     7     4     5    1
     8     5     6    1
     9     6     7    2
    10     7    10    1
    11    10    11    3
    12    11    12    1
    13    12    13   ar
    14    13    14   ar
    15    14    15   ar
    16    15    16   ar
    17    16    18    1
    18    18    19    3
    19    16    17   ar
    20     6     8    1
    21     8     9    1
    22     9     3    1
    23    17    12   ar
@<TRIPOS>MOLECULE
*****
 22 23 0 0 0
SMALL
GASTEIGER

@<TRIPOS>ATOM
      1 C           7.7008   -5.3533   27.1478 C.2     1  UNL1        0.4049
      2 O           6.6119   -4.7202   27.9622 O.2     1  UNL1       -0.2262
      3 N           7.7586   -5.1250   25.6664 N.am    1  UNL1       -0.2454
      4 C           8.8476   -5.7580   24.8519 C.3     1  UNL1        0.1011
      5 C           8.9054   -5.5298   23.3705 C.3     1  UNL1        0.0443
      6 C           7.8743   -4.6684   22.7035 C.2     1  UNL1       -0.0326
      7 C           7.9321   -4.4402   21.2221 C.2     1  UNL1        0.0412
      8 C           6.7853   -4.0354   23.5180 C.3     1  UNL1        0.0443
      9 C           6.7275   -4.2636   24.9994 C.3     1  UNL1        0.1011
     10 C           6.9010   -3.5788   20.5552 C.1     1  UNL1       -0.0598
     11 C           5.8698   -2.7175   19.8882 C.1     1  UNL1       -0.0597
     12 C           4.8386   -1.8562   19.2213 C.ar    1  UNL1        0.0426
     13 C           5.0590   -1.3724   17.8186 C.ar    1  UNL1        0.0083
     14 C           4.0278   -0.5110   17.1517 C.ar    1  UNL1        0.0013
     15 C           2.7764   -0.1335   17.8874 C.ar    1  UNL1        0.0103
     16 C           2.5560   -0.6172   19.2900 C.ar    1  UNL1        0.0691
     17 C           3.5872   -1.4786   19.9570 C.ar    1  UNL1        0.0185
     18 C           1.3045   -0.2396   20.0257 C.1     1  UNL1        0.1004
     19 N           0.0531    0.1380   20.7614 N.1     1  UNL1       -0.1908
     20 O           8.7320   -6.2146   27.8147 O.3     1  UNL1       -0.4345
     21 C           8.0106   -8.5985   27.0752 C.3     1  UNL1        0.0513
     22 C           8.4115   -7.6395   28.1567 C.3     1  UNL1        0.2102
@<TRIPOS>BOND
     1    21    22    1
     2    22    20    1
     3    20     1    1
     4     1     2    2
     5     1     3   am
     6     3     4    1
     7     4     5    1
     8     5     6    1
     9     6     7    2
    10     7    10    1
    11    10    11    3
    12    11    12    1
    13    12    13   ar
    14    13    14   ar
    15    14    15   ar
    16    15    16   ar
    17    16    18    1
    18    18    19    3
    19    16    17   ar
    20     6     8    1
    21     8     9    1
    22     9     3    1
    23    17    12   ar
@<TRIPOS>MOLECULE
*****
 22 23 0 0 0
SMALL
GASTEIGER

@<TRIPOS>ATOM
      1 C           2.3961   -0.0186   30.6921 C.2     1  UNL1        0.4049
      2 O           0.9843    0.3754   30.3733 O.2     1  UNL1       -0.2262
      3 N           3.2820   -0.5708   29.6150 N.am    1  UNL1       -0.2454
      4 C           4.6938   -0.9648   29.9337 C.3     1  UNL1        0.1011
      5 C           5.5798   -1.5170   28.8566 C.3     1  UNL1        0.0443
      6 C           5.0540   -1.6752   27.4608 C.2     1  UNL1       -0.0326
      7 C           5.9399   -2.2274   26.3837 C.2     1  UNL1        0.0412
      8 C           3.6422   -1.2812   27.1420 C.3     1  UNL1        0.0443
      9 C           2.7562   -0.7290   28.2191 C.3     1  UNL1        0.1011
     10 C           5.4141   -2.3856   24.9878 C.1     1  UNL1       -0.0598
     11 C           4.8883   -2.5438   23.5919 C.1     1  UNL1       -0.0597
     12 C           4.3625   -2.7020   22.1960 C.ar    1  UNL1        0.0426
     13 C           4.6727   -3.9439   21.4140 C.ar    1  UNL1        0.0083
     14 C           4.1469   -4.1021   20.0181 C.ar    1  UNL1        0.0013
     15 C           3.3109   -3.0185   19.4042 C.ar    1  UNL1        0.0103
     16 C           3.0007   -1.7767   20.1862 C.ar    1  UNL1        0.0691
     17 C           3.5265   -1.6184   21.5822 C.ar    1  UNL1        0.0185
     18 C           2.1647   -0.6930   19.5724 C.1     1  UNL1        0.1004
     19 N           1.3287    0.3906   18.9585 N.1     1  UNL1       -0.1908
     20 O           2.9219    0.1396   32.0879 O.3     1  UNL1       -0.4345
     21 C           3.2199    1.6117   34.2079 C.3     1  UNL1        0.0513
     22 C           2.9106    1.4878   32.7453 C.3     1  UNL1        0.2102
@<TRIPOS>BOND
     1    21    22    1
     2    22    20    1
     3    20     1    1
     4     1     2    2
     5     1     3   am
     6     3     4    1
     7     4     5    1
     8     5     6    1
     9     6     7    2
    10     7    10    1
    11    10    11    3
    12    11    12    1
    13    12    13   ar
    14    13    14   ar
    15    14    15   ar
    16    15    16   ar
    17    16    18    1
    18    18    19    3
    19    16    17   ar
    20     6     8    1
    21     8     9    1
    22     9     3    1
    23    17    12   ar
@<TRIPOS>MOLECULE
*****
 22 23 0 0 0
SMALL
GASTEIGER

@<TRIPOS>ATOM
      1 C         -10.5369   -5.9060   19.0822 C.2     1  UNL1        0.4049
      2 O          -9.3228   -5.0265   19.0328 O.2     1  UNL1       -0.2262
      3 N         -11.8961   -5.2985   19.2654 N.am    1  UNL1       -0.2454
      4 C         -13.1102   -6.1780   19.3148 C.3     1  UNL1        0.1011
      5 C         -14.4694   -5.5705   19.4980 C.3     1  UNL1        0.0443
      6 C         -14.6145   -4.0835   19.6317 C.2     1  UNL1       -0.0326
      7 C         -15.9737   -3.4761   19.8149 C.2     1  UNL1        0.0412
      8 C         -13.4004   -3.2041   19.5823 C.3     1  UNL1        0.0443
      9 C         -12.0412   -3.8116   19.3992 C.3     1  UNL1        0.1011
     10 C         -16.1188   -1.9891   19.9487 C.1     1  UNL1       -0.0598
     11 C         -16.2639   -0.5021   20.0824 C.1     1  UNL1       -0.0597
     12 C         -16.4090    0.9848   20.2161 C.ar    1  UNL1        0.0426
     13 C         -15.6863    1.8971   19.2698 C.ar    1  UNL1        0.0083
     14 C         -15.8315    3.3840   19.4035 C.ar    1  UNL1        0.0013
     15 C         -16.6992    3.9587   20.4836 C.ar    1  UNL1        0.0103
     16 C         -17.4219    3.0466   21.4300 C.ar    1  UNL1        0.0691
     17 C         -17.2768    1.5596   21.2962 C.ar    1  UNL1        0.0185
     18 C         -18.2897    3.6213   22.5101 C.1     1  UNL1        0.1004
     19 N         -19.1575    4.1961   23.5902 N.1     1  UNL1       -0.1908
     20 O         -10.3918   -7.3929   18.9485 O.3     1  UNL1       -0.4345
     21 C         -11.4192   -7.8016   16.5974 C.3     1  UNL1        0.0513
     22 C         -10.3139   -8.0195   17.5878 C.3     1  UNL1        0.2102
@<TRIPOS>BOND
     1    21    22    1
     2    22    20    1
     3    20     1    1
     4     1     2    2
     5     1     3   am
     6     3     4    1
     7     4     5    1
     8     5     6    1
     9     6     7    2
    10     7    10    1
    11    10    11    3
    12    11    12    1
    13    12    13   ar
    14    13    14   ar
    15    14    15   ar
    16    15    16   ar
    17    16    18    1
    18    18    19    3
    19    16    17   ar
    20     6     8    1
    21     8     9    1
    22     9     3    1
    23    17    12   ar
@<TRIPOS>MOLECULE
*****
 22 23 0 0 0
SMALL
GASTEIGER

@<TRIPOS>ATOM
      1 C         -10.5105   -5.8840   19.0771 C.2     1  UNL1        0.4049
      2 O          -9.2995   -5.0015   19.0099 O.2     1  UNL1       -0.2262
      3 N         -11.8704   -5.2787   19.2616 N.am    1  UNL1       -0.2454
      4 C         -13.0814   -6.1612   19.3288 C.3     1  UNL1        0.1011
      5 C         -14.4414   -5.5558   19.5133 C.3     1  UNL1        0.0443
      6 C         -14.5903   -4.0679   19.6306 C.2     1  UNL1       -0.0326
      7 C         -15.9503   -3.4625   19.8151 C.2     1  UNL1        0.0412
      8 C         -13.3794   -3.1853   19.5634 C.3     1  UNL1        0.0443
      9 C         -12.0194   -3.7907   19.3789 C.3     1  UNL1        0.1011
     10 C         -16.0993   -1.9746   19.9324 C.1     1  UNL1       -0.0598
     11 C         -16.2482   -0.4866   20.0497 C.1     1  UNL1       -0.0597
     12 C         -16.3972    1.0014   20.1670 C.ar    1  UNL1        0.0426
     13 C         -17.2885    1.5850   21.2230 C.ar    1  UNL1        0.0083
     14 C         -17.4374    3.0730   21.3403 C.ar    1  UNL1        0.0013
     15 C         -16.6952    3.9773   20.4016 C.ar    1  UNL1        0.0103
     16 C         -15.8039    3.3938   19.3456 C.ar    1  UNL1        0.0691
     17 C         -15.6549    1.9058   19.2283 C.ar    1  UNL1        0.0185
     18 C         -15.0617    4.2982   18.4070 C.1     1  UNL1        0.1004
     19 N         -14.3194    5.2026   17.4683 N.1     1  UNL1       -0.1908
     20 O         -10.3615   -7.3720   18.9598 O.3     1  UNL1       -0.4345
     21 C         -11.3514   -7.7541   16.5883 C.3     1  UNL1        0.0513
     22 C         -10.2805   -8.0133   17.6062 C.3     1  UNL1        0.2102
@<TRIPOS>BOND
     1    21    22    1
     2    22    20    1
     3    20     1    1
     4     1     2    2
     5     1     3   am
     6     3     4    1
     7     4     5    1
     8     5     6    1
     9     6     7    2
    10     7    10    1
    11    10    11    3
    12    11    12    1
    13    12    13   ar
    14    13    14   ar
    15    14    15   ar
    16    15    16   ar
    17    16    18    1
    18    18    19    3
    19    16    17   ar
    20     6     8    1
    21     8     9    1
    22     9     3    1
    23    17    12   ar
@<TRIPOS>MOLECULE
*****
 22 23 0 0 0
SMALL
GASTEIGER

@<TRIPOS>ATOM
      1 C           4.0768   -0.9886   17.7784 C.2     1  UNL1        0.4049
      2 O           3.8187   -1.0215   16.3012 O.2     1  UNL1       -0.2262
      3 N           3.1155   -0.2883   18.6924 N.am    1  UNL1       -0.2454
      4 C           3.3737   -0.2554   20.1696 C.3     1  UNL1        0.1011
      5 C           2.4124    0.4449   21.0836 C.3     1  UNL1        0.0443
      6 C           1.1929    1.1125   20.5204 C.2     1  UNL1       -0.0326
      7 C           0.2316    1.8128   21.4344 C.2     1  UNL1        0.0412
      8 C           0.9348    1.0796   19.0432 C.3     1  UNL1        0.0443
      9 C           1.8961    0.3793   18.1292 C.3     1  UNL1        0.1011
     10 C          -0.9878    2.4804   20.8712 C.1     1  UNL1       -0.0598
     11 C          -2.2074    3.1479   20.3080 C.1     1  UNL1       -0.0597
     12 C          -3.4269    3.8154   19.7447 C.ar    1  UNL1        0.0426
     13 C          -3.5503    4.0266   18.2648 C.ar    1  UNL1        0.0083
     14 C          -4.7697    4.6942   17.7016 C.ar    1  UNL1        0.0013
     15 C          -5.8659    5.1505   18.6182 C.ar    1  UNL1        0.0103
     16 C          -5.7425    4.9393   20.0981 C.ar    1  UNL1        0.0691
     17 C          -4.5230    4.2717   20.6614 C.ar    1  UNL1        0.0185
     18 C          -6.8386    5.3956   21.0148 C.1     1  UNL1        0.1004
     19 N          -7.9348    5.8519   21.9315 N.1     1  UNL1       -0.1908
     20 O           5.2963   -1.6561   18.3416 O.3     1  UNL1       -0.4345
     21 C           4.4042   -4.0310   18.9024 C.3     1  UNL1        0.0513
     22 C           5.4368   -3.1477   18.2671 C.3     1  UNL1        0.2102
@<TRIPOS>BOND
     1    21    22    1
     2    22    20    1
     3    20     1    1
     4     1     2    2
     5     1     3   am
     6     3     4    1
     7     4     5    1
     8     5     6    1
     9     6     7    2
    10     7    10    1
    11    10    11    3
    12    11    12    1
    13    12    13   ar
    14    13    14   ar
    15    14    15   ar
    16    15    16   ar
    17    16    18    1
    18    18    19    3
    19    16    17   ar
    20     6     8    1
    21     8     9    1
    22     9     3    1
    23    17    12   ar
