@<TRIPOS>MOLECULE
*****
 30 33 0 0 0
SMALL
GASTEIGER

@<TRIPOS>ATOM
      1 C          -9.3621  -17.0539   23.5857 C.3     1  UNL1        0.1631
      2 C          -8.4091  -17.8942   22.7883 C.3     1  UNL1        0.1278
      3 N          -6.9483  -17.5543   22.7652 N.pl3   1  UNL1       -0.2740
      4 C          -6.4405  -16.3742   23.5394 C.3     1  UNL1        0.1257
      5 C          -7.3934  -15.5339   24.3368 C.3     1  UNL1        0.1640
      6 O          -8.8543  -15.8738   24.3599 O.3     1  UNL1       -0.3481
      7 C          -5.9954  -18.3946   21.9678 C.ar    1  UNL1        0.2036
      8 N          -4.6009  -17.9064   21.7091 N.ar    1  UNL1       -0.2133
      9 C          -3.6479  -18.7467   20.9117 C.ar    1  UNL1        0.1065
     10 C          -4.0894  -20.0751   20.3731 C.ar    1  UNL1        0.0815
     11 C          -5.4840  -20.5634   20.6318 C.ar    1  UNL1        0.2646
     12 O          -5.9255  -21.8919   20.0932 O.2     1  UNL1       -0.2668
     13 N          -6.4370  -19.7231   21.4292 N.ar    1  UNL1       -0.2667
     14 C          -7.8314  -20.2114   21.6879 C.3     1  UNL1        0.1363
     15 C          -2.2533  -18.2584   20.6530 C.ar    1  UNL1        0.1024
     16 C          -1.9153  -16.8114   20.8576 C.ar    1  UNL1        0.0414
     17 C          -0.5208  -16.3232   20.5988 C.ar    1  UNL1        0.1023
     18 N           0.5357  -17.2820   20.1355 N.ar    1  UNL1       -0.2224
     19 C           0.1976  -18.7290   19.9309 C.ar    1  UNL1        0.1989
     20 N          -1.1969  -19.2172   20.1897 N.ar    1  UNL1       -0.2224
     21 C         -11.3238  -18.4904   24.5012 C.ar    1  UNL1        0.1399
     22 C         -12.7846  -18.8303   24.5243 C.ar    1  UNL1        0.0369
     23 C         -13.7445  -18.0734   23.6549 C.ar    1  UNL1        0.0062
     24 C         -13.2437  -16.9768   22.7625 C.ar    1  UNL1        0.0369
     25 C         -11.7829  -16.6369   22.7395 C.ar    1  UNL1        0.1399
     26 C         -10.8230  -17.3938   23.6088 C.ar    1  UNL1        0.0741
     27 C          -9.8345  -20.5772   24.9222 C.3     1  UNL1        0.2525
     28 O         -10.3639  -19.2473   25.3705 O.3     1  UNL1       -0.4716
     29 O         -11.2820  -15.5402   21.8470 O.3     1  UNL1       -0.4716
     30 C         -11.0407  -15.8093   20.3912 C.3     1  UNL1        0.2525
@<TRIPOS>BOND
     1    27    28    1
     2    28    21    1
     3    21    22   ar
     4    22    23   ar
     5    23    24   ar
     6    24    25   ar
     7    25    29    1
     8    29    30    1
     9    25    26   ar
    10     1    26    1
    11     1     2    1
    12     2     3    1
    13     3     7    1
    14     7     8   ar
    15     8     9   ar
    16     9    15    1
    17    15    16   ar
    18    16    17   ar
    19    17    18   ar
    20    18    19   ar
    21    19    20   ar
    22     9    10   ar
    23    10    11   ar
    24    11    12    2
    25    11    13   ar
    26    13    14    1
    27     3     4    1
    28     4     5    1
    29     5     6    1
    30    26    21   ar
    31     6     1    1
    32    13     7   ar
    33    20    15   ar
@<TRIPOS>MOLECULE
*****
 30 33 0 0 0
SMALL
GASTEIGER

@<TRIPOS>ATOM
      1 C          -9.3207  -17.0408   23.6053 C.3     1  UNL1        0.1631
      2 C          -8.3734  -17.8788   22.7988 C.3     1  UNL1        0.1278
      3 N          -6.9090  -17.5540   22.7865 N.pl3   1  UNL1       -0.2740
      4 C          -6.3920  -16.3912   23.5806 C.3     1  UNL1        0.1257
      5 C          -7.3393  -15.5532   24.3870 C.3     1  UNL1        0.1640
      6 O          -8.8037  -15.8780   24.3994 O.3     1  UNL1       -0.3481
      7 C          -5.9617  -18.3920   21.9800 C.ar    1  UNL1        0.2036
      8 N          -4.5721  -17.8988   21.7049 N.ar    1  UNL1       -0.2133
      9 C          -3.6248  -18.7368   20.8984 C.ar    1  UNL1        0.1065
     10 C          -4.0671  -20.0680   20.3672 C.ar    1  UNL1        0.0815
     11 C          -5.4567  -20.5613   20.6423 C.ar    1  UNL1        0.2646
     12 O          -5.8990  -21.8925   20.1111 O.2     1  UNL1       -0.2668
     13 N          -6.4040  -19.7233   21.4488 N.ar    1  UNL1       -0.2667
     14 C          -7.7936  -20.2165   21.7240 C.3     1  UNL1        0.1363
     15 C          -2.2352  -18.2435   20.6232 C.ar    1  UNL1        0.1024
     16 C          -1.8863  -16.8063   20.8731 C.ar    1  UNL1        0.0414
     17 C          -0.4967  -16.3131   20.5980 C.ar    1  UNL1        0.1023
     18 N           0.5440  -17.2572   20.0729 N.ar    1  UNL1       -0.2224
     19 C           0.1951  -18.6944   19.8230 C.ar    1  UNL1        0.1989
     20 N          -1.1945  -19.1876   20.0982 N.ar    1  UNL1       -0.2224
     21 C         -11.7290  -16.6072   22.7324 C.ar    1  UNL1        0.1399
     22 C         -13.1934  -16.9321   22.7448 C.ar    1  UNL1        0.0369
     23 C         -13.7137  -18.0154   23.6424 C.ar    1  UNL1        0.0062
     24 C         -12.7698  -18.7738   24.5276 C.ar    1  UNL1        0.0369
     25 C         -11.3055  -18.4489   24.5152 C.ar    1  UNL1        0.1399
     26 C         -10.7851  -17.3657   23.6176 C.ar    1  UNL1        0.0741
     27 C         -10.9564  -15.8088   20.3839 C.3     1  UNL1        0.2525
     28 O         -11.2087  -15.5239   21.8348 O.3     1  UNL1       -0.4716
     29 O         -10.3614  -19.2074   25.4005 O.3     1  UNL1       -0.4716
     30 C          -9.8329  -20.5418   24.9645 C.3     1  UNL1        0.2525
@<TRIPOS>BOND
     1    27    28    1
     2    28    21    1
     3    21    22   ar
     4    22    23   ar
     5    23    24   ar
     6    24    25   ar
     7    25    29    1
     8    29    30    1
     9    25    26   ar
    10     1    26    1
    11     1     2    1
    12     2     3    1
    13     3     7    1
    14     7     8   ar
    15     8     9   ar
    16     9    15    1
    17    15    16   ar
    18    16    17   ar
    19    17    18   ar
    20    18    19   ar
    21    19    20   ar
    22     9    10   ar
    23    10    11   ar
    24    11    12    2
    25    11    13   ar
    26    13    14    1
    27     3     4    1
    28     4     5    1
    29     5     6    1
    30    26    21   ar
    31     6     1    1
    32    13     7   ar
    33    20    15   ar
@<TRIPOS>MOLECULE
*****
 30 33 0 0 0
SMALL
GASTEIGER

@<TRIPOS>ATOM
      1 C           7.7073   -4.0255   27.7703 C.3     1  UNL1        0.1631
      2 C           6.4982   -3.5276   28.5054 C.3     1  UNL1        0.1278
      3 N           6.3675   -2.0698   28.8333 N.pl3   1  UNL1       -0.2740
      4 C           7.4457   -1.1098   28.4260 C.3     1  UNL1        0.1257
      5 C           8.6547   -1.6077   27.6909 C.3     1  UNL1        0.1640
      6 O           8.7855   -3.0656   27.3631 O.3     1  UNL1       -0.3481
      7 C           5.1585   -1.5719   29.5684 C.ar    1  UNL1        0.2036
      8 N           3.9927   -1.0163   28.8053 N.ar    1  UNL1       -0.2133
      9 C           2.7837   -0.5184   29.5404 C.ar    1  UNL1        0.1065
     10 C           2.7405   -0.5760   31.0386 C.ar    1  UNL1        0.0815
     11 C           3.9062   -1.1316   31.8018 C.ar    1  UNL1        0.2646
     12 O           3.8629   -1.1892   33.3001 O.2     1  UNL1       -0.2668
     13 N           5.1152   -1.6295   31.0667 N.ar    1  UNL1       -0.2667
     14 C           6.2810   -2.1851   31.8298 C.3     1  UNL1        0.1363
     15 C           1.6180    0.0371   28.7772 C.ar    1  UNL1        0.1024
     16 C           1.8494    0.8150   27.5157 C.ar    1  UNL1        0.0414
     17 C           0.6837    1.3705   26.7526 C.ar    1  UNL1        0.1023
     18 N          -0.7135    1.1482   27.2509 N.ar    1  UNL1       -0.2224
     19 C          -0.9450    0.3703   28.5124 C.ar    1  UNL1        0.1989
     20 N           0.2207   -0.1852   29.2755 N.ar    1  UNL1       -0.2224
     21 C           7.3901   -5.9946   26.1053 C.ar    1  UNL1        0.1399
     22 C           7.5208   -7.4525   25.7775 C.ar    1  UNL1        0.0369
     23 C           8.0995   -8.3992   26.7869 C.ar    1  UNL1        0.0062
     24 C           8.5474   -7.8881   28.1240 C.ar    1  UNL1        0.0369
     25 C           8.4167   -6.4302   28.4518 C.ar    1  UNL1        0.1399
     26 C           7.8380   -5.4835   27.4425 C.ar    1  UNL1        0.0741
     27 C           7.5088   -4.8299   23.7860 C.3     1  UNL1        0.2525
     28 O           6.8114   -5.0479   25.0959 O.3     1  UNL1       -0.4716
     29 O           8.8646   -5.9190   29.7890 O.3     1  UNL1       -0.4716
     30 C           7.9406   -5.9933   30.9683 C.3     1  UNL1        0.2525
@<TRIPOS>BOND
     1    27    28    1
     2    28    21    1
     3    21    22   ar
     4    22    23   ar
     5    23    24   ar
     6    24    25   ar
     7    25    29    1
     8    29    30    1
     9    25    26   ar
    10     1    26    1
    11     1     2    1
    12     2     3    1
    13     3     7    1
    14     7     8   ar
    15     8     9   ar
    16     9    15    1
    17    15    16   ar
    18    16    17   ar
    19    17    18   ar
    20    18    19   ar
    21    19    20   ar
    22     9    10   ar
    23    10    11   ar
    24    11    12    2
    25    11    13   ar
    26    13    14    1
    27     3     4    1
    28     4     5    1
    29     5     6    1
    30    26    21   ar
    31     6     1    1
    32    13     7   ar
    33    20    15   ar
@<TRIPOS>MOLECULE
*****
 30 33 0 0 0
SMALL
GASTEIGER

@<TRIPOS>ATOM
      1 C           7.6745   -3.9877   27.7269 C.3     1  UNL1        0.1631
      2 C           6.4673   -3.4947   28.4683 C.3     1  UNL1        0.1278
      3 N           6.3289   -2.0363   28.7905 N.pl3   1  UNL1       -0.2740
      4 C           7.3976   -1.0708   28.3714 C.3     1  UNL1        0.1257
      5 C           8.6048   -1.5638   27.6300 C.3     1  UNL1        0.1640
      6 O           8.7433   -3.0223   27.3078 O.3     1  UNL1       -0.3481
      7 C           5.1217   -1.5433   29.5319 C.ar    1  UNL1        0.2036
      8 N           3.9526   -0.9860   28.7752 N.ar    1  UNL1       -0.2133
      9 C           2.7454   -0.4931   29.5165 C.ar    1  UNL1        0.1065
     10 C           2.7073   -0.5574   31.0147 C.ar    1  UNL1        0.0815
     11 C           3.8764   -1.1147   31.7715 C.ar    1  UNL1        0.2646
     12 O           3.8382   -1.1790   33.2696 O.2     1  UNL1       -0.2668
     13 N           5.0836   -1.6077   31.0301 N.ar    1  UNL1       -0.2667
     14 C           6.2526   -2.1650   31.7868 C.3     1  UNL1        0.1363
     15 C           1.5763    0.0643   28.7597 C.ar    1  UNL1        0.1024
     16 C           1.8039    0.8733   27.5173 C.ar    1  UNL1        0.0414
     17 C           0.6349    1.4305   26.7606 C.ar    1  UNL1        0.1023
     18 N          -0.7618    1.1788   27.2463 N.ar    1  UNL1       -0.2224
     19 C          -0.9894    0.3698   28.4887 C.ar    1  UNL1        0.1989
     20 N           0.1796   -0.1875   29.2454 N.ar    1  UNL1       -0.2224
     21 C           8.3686   -6.3910   28.4286 C.ar    1  UNL1        0.1399
     22 C           8.5070   -7.8494   28.1064 C.ar    1  UNL1        0.0369
     23 C           8.0898   -8.3630   26.7602 C.ar    1  UNL1        0.0062
     24 C           7.5341   -7.4181   25.7363 C.ar    1  UNL1        0.0369
     25 C           7.3957   -5.9597   26.0586 C.ar    1  UNL1        0.1399
     26 C           7.8130   -5.4462   27.4047 C.ar    1  UNL1        0.0741
     27 C           7.8310   -5.9387   30.9299 C.3     1  UNL1        0.2525
     28 O           8.7859   -5.8775   29.7748 O.3     1  UNL1       -0.4716
     29 O           6.8400   -5.0148   25.0346 O.3     1  UNL1       -0.4716
     30 C           7.7084   -4.5305   23.9116 C.3     1  UNL1        0.2525
@<TRIPOS>BOND
     1    27    28    1
     2    28    21    1
     3    21    22   ar
     4    22    23   ar
     5    23    24   ar
     6    24    25   ar
     7    25    29    1
     8    29    30    1
     9    25    26   ar
    10     1    26    1
    11     1     2    1
    12     2     3    1
    13     3     7    1
    14     7     8   ar
    15     8     9   ar
    16     9    15    1
    17    15    16   ar
    18    16    17   ar
    19    17    18   ar
    20    18    19   ar
    21    19    20   ar
    22     9    10   ar
    23    10    11   ar
    24    11    12    2
    25    11    13   ar
    26    13    14    1
    27     3     4    1
    28     4     5    1
    29     5     6    1
    30    26    21   ar
    31     6     1    1
    32    13     7   ar
    33    20    15   ar
@<TRIPOS>MOLECULE
*****
 30 33 0 0 0
SMALL
GASTEIGER

@<TRIPOS>ATOM
      1 C           1.6502    1.7832   25.6016 C.3     1  UNL1        0.1631
      2 C           1.6248    1.0374   24.3004 C.3     1  UNL1        0.1278
      3 N           2.3536    1.5835   23.1086 N.pl3   1  UNL1       -0.2740
      4 C           3.1078    2.8755   23.2178 C.3     1  UNL1        0.1257
      5 C           3.1332    3.6214   24.5190 C.3     1  UNL1        0.1640
      6 O           2.4043    3.0752   25.7109 O.3     1  UNL1       -0.3481
      7 C           2.3283    0.8376   21.8074 C.ar    1  UNL1        0.2036
      8 N           3.1568   -0.4011   21.6367 N.ar    1  UNL1       -0.2133
      9 C           3.1315   -1.1470   20.3355 C.ar    1  UNL1        0.1065
     10 C           2.2775   -0.6542   19.2051 C.ar    1  UNL1        0.0815
     11 C           1.4489    0.5845   19.3758 C.ar    1  UNL1        0.2646
     12 O           0.5950    1.0773   18.2453 O.2     1  UNL1       -0.2668
     13 N           1.4743    1.3304   20.6769 N.ar    1  UNL1       -0.2667
     14 C           0.6457    2.5690   20.8476 C.3     1  UNL1        0.1363
     15 C           3.9601   -2.3857   20.1649 C.ar    1  UNL1        0.1024
     16 C           3.4748   -3.4969   19.2819 C.ar    1  UNL1        0.0414
     17 C           4.3034   -4.7355   19.1113 C.ar    1  UNL1        0.1023
     18 N           5.6173   -4.8629   19.8236 N.ar    1  UNL1       -0.2224
     19 C           6.1026   -3.7517   20.7065 C.ar    1  UNL1        0.1989
     20 N           5.2740   -2.5131   20.8771 N.ar    1  UNL1       -0.2224
     21 C          -0.5386    1.5276   26.9778 C.ar    1  UNL1        0.1399
     22 C          -1.2673    0.9815   28.1697 C.ar    1  UNL1        0.0369
     23 C          -0.5361    0.1447   29.1772 C.ar    1  UNL1        0.0062
     24 C           0.9238   -0.1458   28.9929 C.ar    1  UNL1        0.0369
     25 C           1.6526    0.4003   27.8011 C.ar    1  UNL1        0.1399
     26 C           0.9214    1.2371   26.7935 C.ar    1  UNL1        0.0741
     27 C          -2.2550    3.3988   26.4277 C.3     1  UNL1        0.2525
     28 O          -1.2698    2.3644   25.9702 O.3     1  UNL1       -0.4716
     29 O           3.1126    0.1098   27.6167 O.3     1  UNL1       -0.4716
     30 C           3.5658   -1.2850   27.3015 C.3     1  UNL1        0.2525
@<TRIPOS>BOND
     1    27    28    1
     2    28    21    1
     3    21    22   ar
     4    22    23   ar
     5    23    24   ar
     6    24    25   ar
     7    25    29    1
     8    29    30    1
     9    25    26   ar
    10     1    26    1
    11     1     2    1
    12     2     3    1
    13     3     7    1
    14     7     8   ar
    15     8     9   ar
    16     9    15    1
    17    15    16   ar
    18    16    17   ar
    19    17    18   ar
    20    18    19   ar
    21    19    20   ar
    22     9    10   ar
    23    10    11   ar
    24    11    12    2
    25    11    13   ar
    26    13    14    1
    27     3     4    1
    28     4     5    1
    29     5     6    1
    30    26    21   ar
    31     6     1    1
    32    13     7   ar
    33    20    15   ar
@<TRIPOS>MOLECULE
*****
 30 33 0 0 0
SMALL
GASTEIGER

@<TRIPOS>ATOM
      1 C           3.5433    0.4620   28.3740 C.3     1  UNL1        0.1631
      2 C           4.0827   -0.9364   28.4348 C.3     1  UNL1        0.1278
      3 N           5.5534   -1.1656   28.6203 N.pl3   1  UNL1       -0.2740
      4 C           6.4848    0.0037   28.7449 C.3     1  UNL1        0.1257
      5 C           5.9454    1.4020   28.6841 C.3     1  UNL1        0.1640
      6 O           4.4746    1.6312   28.4986 O.3     1  UNL1       -0.3481
      7 C           6.0927   -2.5639   28.6811 C.ar    1  UNL1        0.2036
      8 N           6.4508   -3.2854   27.4157 N.ar    1  UNL1       -0.2133
      9 C           6.9902   -4.6837   27.4766 C.ar    1  UNL1        0.1065
     10 C           7.1715   -5.3606   28.8028 C.ar    1  UNL1        0.0815
     11 C           6.8134   -4.6392   30.0682 C.ar    1  UNL1        0.2646
     12 O           6.9946   -5.3161   31.3945 O.2     1  UNL1       -0.2668
     13 N           6.2740   -3.2408   30.0074 N.ar    1  UNL1       -0.2667
     14 C           5.9159   -2.5194   31.2728 C.3     1  UNL1        0.1363
     15 C           7.3483   -5.4052   26.2111 C.ar    1  UNL1        0.1024
     16 C           7.6241   -6.8793   26.2405 C.ar    1  UNL1        0.0414
     17 C           7.9821   -7.6006   24.9751 C.ar    1  UNL1        0.1023
     18 N           8.0644   -6.8479   23.6802 N.ar    1  UNL1       -0.2224
     19 C           7.7886   -5.3738   23.6508 C.ar    1  UNL1        0.1989
     20 N           7.4306   -4.6524   24.9162 N.ar    1  UNL1       -0.2224
     21 C           1.5361    1.0656   26.8387 C.ar    1  UNL1        0.1399
     22 C           0.0654    1.2948   26.6533 C.ar    1  UNL1        0.0369
     23 C          -0.8690    1.1494   27.8177 C.ar    1  UNL1        0.0062
     24 C          -0.3326    0.7748   29.1675 C.ar    1  UNL1        0.0369
     25 C           1.1381    0.5457   29.3529 C.ar    1  UNL1        0.1399
     26 C           2.0725    0.6911   28.1885 C.ar    1  UNL1        0.0741
     27 C           2.6888    0.0586   24.7394 C.3     1  UNL1        0.2525
     28 O           2.4705    1.2110   25.6743 O.3     1  UNL1       -0.4716
     29 O           1.6745    0.1712   30.7027 O.3     1  UNL1       -0.4716
     30 C           2.1247    1.2401   31.6539 C.3     1  UNL1        0.2525
@<TRIPOS>BOND
     1    27    28    1
     2    28    21    1
     3    21    22   ar
     4    22    23   ar
     5    23    24   ar
     6    24    25   ar
     7    25    29    1
     8    29    30    1
     9    25    26   ar
    10     1    26    1
    11     1     2    1
    12     2     3    1
    13     3     7    1
    14     7     8   ar
    15     8     9   ar
    16     9    15    1
    17    15    16   ar
    18    16    17   ar
    19    17    18   ar
    20    18    19   ar
    21    19    20   ar
    22     9    10   ar
    23    10    11   ar
    24    11    12    2
    25    11    13   ar
    26    13    14    1
    27     3     4    1
    28     4     5    1
    29     5     6    1
    30    26    21   ar
    31     6     1    1
    32    13     7   ar
    33    20    15   ar
@<TRIPOS>MOLECULE
*****
 30 33 0 0 0
SMALL
GASTEIGER

@<TRIPOS>ATOM
      1 C           1.6983    1.7172   25.6596 C.3     1  UNL1        0.1631
      2 C           1.6448    0.9916   24.3479 C.3     1  UNL1        0.1278
      3 N           2.3848    1.5327   23.1607 N.pl3   1  UNL1       -0.2740
      4 C           3.1783    2.7996   23.2851 C.3     1  UNL1        0.1257
      5 C           3.2319    3.5252   24.5968 C.3     1  UNL1        0.1640
      6 O           2.4918    2.9840   25.7841 O.3     1  UNL1       -0.3481
      7 C           2.3312    0.8071   21.8490 C.ar    1  UNL1        0.2036
      8 N           3.1384   -0.4412   21.6489 N.ar    1  UNL1       -0.2133
      9 C           3.0849   -1.1669   20.3372 C.ar    1  UNL1        0.1065
     10 C           2.2241   -0.6442   19.2255 C.ar    1  UNL1        0.0815
     11 C           1.4169    0.6042   19.4255 C.ar    1  UNL1        0.2646
     12 O           0.5561    1.1269   18.3139 O.2     1  UNL1       -0.2668
     13 N           1.4704    1.3298   20.7373 N.ar    1  UNL1       -0.2667
     14 C           0.6632    2.5782   20.9373 C.3     1  UNL1        0.1363
     15 C           3.8922   -2.4152   20.1372 C.ar    1  UNL1        0.1024
     16 C           5.2381   -2.5499   20.7855 C.ar    1  UNL1        0.0414
     17 C           6.0453   -3.7983   20.5855 C.ar    1  UNL1        0.1023
     18 N           5.5066   -4.9119   19.7372 N.ar    1  UNL1       -0.2224
     19 C           4.1606   -4.7772   19.0889 C.ar    1  UNL1        0.1989
     20 N           3.3534   -3.5289   19.2889 N.ar    1  UNL1       -0.2224
     21 C           1.6831    0.3557   27.8723 C.ar    1  UNL1        0.1399
     22 C           0.9430   -0.1854   29.0595 C.ar    1  UNL1        0.0369
     23 C          -0.5219    0.0937   29.2212 C.ar    1  UNL1        0.0062
     24 C          -1.2467    0.9141   28.1957 C.ar    1  UNL1        0.0369
     25 C          -0.5067    1.4552   27.0086 C.ar    1  UNL1        0.1399
     26 C           0.9582    1.1760   26.8469 C.ar    1  UNL1        0.0741
     27 C           3.6059   -1.2628   27.2144 C.3     1  UNL1        0.2525
     28 O           3.1480    0.0765   27.7106 O.3     1  UNL1       -0.4716
     29 O          -1.2315    2.2756   25.9830 O.3     1  UNL1       -0.4716
     30 C          -1.4352    3.7450   26.2054 C.3     1  UNL1        0.2525
@<TRIPOS>BOND
     1    27    28    1
     2    28    21    1
     3    21    22   ar
     4    22    23   ar
     5    23    24   ar
     6    24    25   ar
     7    25    29    1
     8    29    30    1
     9    25    26   ar
    10     1    26    1
    11     1     2    1
    12     2     3    1
    13     3     7    1
    14     7     8   ar
    15     8     9   ar
    16     9    15    1
    17    15    16   ar
    18    16    17   ar
    19    17    18   ar
    20    18    19   ar
    21    19    20   ar
    22     9    10   ar
    23    10    11   ar
    24    11    12    2
    25    11    13   ar
    26    13    14    1
    27     3     4    1
    28     4     5    1
    29     5     6    1
    30    26    21   ar
    31     6     1    1
    32    13     7   ar
    33    20    15   ar
@<TRIPOS>MOLECULE
*****
 30 33 0 0 0
SMALL
GASTEIGER

@<TRIPOS>ATOM
      1 C           3.7793   -0.4701   21.8210 C.3     1  UNL1        0.1631
      2 C           2.7912   -0.2042   22.9178 C.3     1  UNL1        0.1278
      3 N           2.7387    1.1461   23.5689 N.pl3   1  UNL1       -0.2740
      4 C           3.6744    2.2305   23.1231 C.3     1  UNL1        0.1257
      5 C           4.6625    1.9646   22.0264 C.3     1  UNL1        0.1640
      6 O           4.7149    0.6143   21.3753 O.3     1  UNL1       -0.3481
      7 C           1.7506    1.4120   24.6657 C.ar    1  UNL1        0.2036
      8 N           2.1017    1.0851   26.0869 N.ar    1  UNL1       -0.2133
      9 C           1.1136    1.3510   27.1837 C.ar    1  UNL1        0.1065
     10 C          -0.2256    1.9438   26.8593 C.ar    1  UNL1        0.0815
     11 C          -0.5766    2.2707   25.4380 C.ar    1  UNL1        0.2646
     12 O          -1.9158    2.8635   25.1136 O.2     1  UNL1       -0.2668
     13 N           0.4114    2.0048   24.3412 N.ar    1  UNL1       -0.2667
     14 C           0.0604    2.3317   22.9200 C.3     1  UNL1        0.1363
     15 C           1.4647    1.0240   28.6049 C.ar    1  UNL1        0.1024
     16 C           2.1258   -0.2818   28.9328 C.ar    1  UNL1        0.0414
     17 C           2.4769   -0.6087   30.3540 C.ar    1  UNL1        0.1023
     18 N           2.1668    0.3703   31.4473 N.ar    1  UNL1       -0.2224
     19 C           1.5056    1.6762   31.1195 C.ar    1  UNL1        0.1989
     20 N           1.1546    2.0030   29.6983 N.ar    1  UNL1       -0.2224
     21 C           3.3647   -1.9893   19.7546 C.ar    1  UNL1        0.1399
     22 C           3.4172   -3.3397   19.1036 C.ar    1  UNL1        0.0369
     23 C           3.9367   -4.5211   19.8679 C.ar    1  UNL1        0.0062
     24 C           4.4038   -4.3523   21.2833 C.ar    1  UNL1        0.0369
     25 C           4.3513   -3.0019   21.9343 C.ar    1  UNL1        0.1399
     26 C           3.8318   -1.8205   21.1699 C.ar    1  UNL1        0.0741
     27 C           3.7277   -0.1089   17.9990 C.3     1  UNL1        0.2525
     28 O           2.8452   -0.8079   18.9902 O.3     1  UNL1       -0.4716
     29 O           4.8184   -2.8330   23.3497 O.3     1  UNL1       -0.4716
     30 C           6.0082   -3.6014   23.8436 C.3     1  UNL1        0.2525
@<TRIPOS>BOND
     1    27    28    1
     2    28    21    1
     3    21    22   ar
     4    22    23   ar
     5    23    24   ar
     6    24    25   ar
     7    25    29    1
     8    29    30    1
     9    25    26   ar
    10     1    26    1
    11     1     2    1
    12     2     3    1
    13     3     7    1
    14     7     8   ar
    15     8     9   ar
    16     9    15    1
    17    15    16   ar
    18    16    17   ar
    19    17    18   ar
    20    18    19   ar
    21    19    20   ar
    22     9    10   ar
    23    10    11   ar
    24    11    12    2
    25    11    13   ar
    26    13    14    1
    27     3     4    1
    28     4     5    1
    29     5     6    1
    30    26    21   ar
    31     6     1    1
    32    13     7   ar
    33    20    15   ar
@<TRIPOS>MOLECULE
*****
 30 33 0 0 0
SMALL
GASTEIGER

@<TRIPOS>ATOM
      1 C           3.7074   -0.2729   21.7756 C.3     1  UNL1        0.1631
      2 C           2.7196   -0.0343   22.8789 C.3     1  UNL1        0.1278
      3 N           2.5959    1.3286   23.4930 N.pl3   1  UNL1       -0.2740
      4 C           3.4601    2.4529   23.0039 C.3     1  UNL1        0.1257
      5 C           4.4480    2.2143   21.9006 C.3     1  UNL1        0.1640
      6 O           4.5716    0.8513   21.2865 O.3     1  UNL1       -0.3481
      7 C           1.6081    1.5673   24.5963 C.ar    1  UNL1        0.2036
      8 N           1.9669    1.2238   26.0116 N.ar    1  UNL1       -0.2133
      9 C           0.9791    1.4625   27.1149 C.ar    1  UNL1        0.1065
     10 C          -0.3676    2.0446   26.8028 C.ar    1  UNL1        0.0815
     11 C          -0.7265    2.3882   25.3874 C.ar    1  UNL1        0.2646
     12 O          -2.0732    2.9704   25.0754 O.2     1  UNL1       -0.2668
     13 N           0.2613    2.1495   24.2842 N.ar    1  UNL1       -0.2667
     14 C          -0.0975    2.4931   22.8688 C.3     1  UNL1        0.1363
     15 C           1.3380    1.1189   28.5302 C.ar    1  UNL1        0.1024
     16 C           1.0538    2.0942   29.6339 C.ar    1  UNL1        0.0414
     17 C           1.4127    1.7506   31.0492 C.ar    1  UNL1        0.1023
     18 N           2.0558    0.4317   31.3608 N.ar    1  UNL1       -0.2224
     19 C           2.3399   -0.5435   30.2572 C.ar    1  UNL1        0.1989
     20 N           1.9810   -0.2000   28.8419 N.ar    1  UNL1       -0.2224
     21 C           4.5705   -2.7210   21.8866 C.ar    1  UNL1        0.1399
     22 C           4.6941   -4.0838   21.2724 C.ar    1  UNL1        0.0369
     23 C           4.0783   -4.3617   19.9332 C.ar    1  UNL1        0.0062
     24 C           3.3389   -3.2766   19.2081 C.ar    1  UNL1        0.0369
     25 C           3.2152   -1.9137   19.8222 C.ar    1  UNL1        0.1399
     26 C           3.8311   -1.6359   21.1615 C.ar    1  UNL1        0.0741
     27 C           5.8702   -3.5448   23.9799 C.3     1  UNL1        0.2525
     28 O           5.1863   -2.4431   23.2258 O.3     1  UNL1       -0.4716
     29 O           2.4758   -0.8286   19.0971 O.3     1  UNL1       -0.4716
     30 C           3.1528   -0.0653   17.9976 C.3     1  UNL1        0.2525
@<TRIPOS>BOND
     1    27    28    1
     2    28    21    1
     3    21    22   ar
     4    22    23   ar
     5    23    24   ar
     6    24    25   ar
     7    25    29    1
     8    29    30    1
     9    25    26   ar
    10     1    26    1
    11     1     2    1
    12     2     3    1
    13     3     7    1
    14     7     8   ar
    15     8     9   ar
    16     9    15    1
    17    15    16   ar
    18    16    17   ar
    19    17    18   ar
    20    18    19   ar
    21    19    20   ar
    22     9    10   ar
    23    10    11   ar
    24    11    12    2
    25    11    13   ar
    26    13    14    1
    27     3     4    1
    28     4     5    1
    29     5     6    1
    30    26    21   ar
    31     6     1    1
    32    13     7   ar
    33    20    15   ar
