@<TRIPOS>MOLECULE
*****
 42 48 0 0 0
SMALL
GASTEIGER

@<TRIPOS>ATOM
      1 O           5.5474   -0.7330   22.0620 O.2     1  UNL1       -0.2701
      2 C           4.4946   -1.4154   22.8841 C.2     1  UNL1        0.2461
      3 N           4.2565   -2.8878   22.7254 N.am    1  UNL1       -0.2970
      4 H           3.5655   -3.3357   23.2650 H       1  UNL1        0.1500
      5 C           3.6799   -0.6253   23.8650 C.ar    1  UNL1        0.0550
      6 C           2.6794    0.3780   23.3728 C.ar    1  UNL1        0.0061
      7 C           1.8647    1.1681   24.3536 C.ar    1  UNL1        0.0189
      8 C           2.0505    0.9548   25.8267 C.ar    1  UNL1        0.0788
      9 C           3.0510   -0.0486   26.3189 C.ar    1  UNL1        0.0988
     10 C           3.8657   -0.8386   25.3380 C.ar    1  UNL1        0.0251
     11 N           3.0149   -0.0419   27.8184 N.ar    1  UNL1       -0.2267
     12 C           1.9921    0.9656   28.2530 C.ar    1  UNL1        0.1469
     13 N           1.3960    1.5816   27.0220 N.ar    1  UNL1       -0.3133
     14 C           0.3323    2.6387   26.9917 C.3     1  UNL1        0.0869
     15 C           0.6689    4.0522   27.3638 C.3     1  UNL1        0.0226
     16 C          -0.3948    5.1094   27.3335 C.3     1  UNL1        0.0019
     17 C          -1.7952    4.7530   26.9310 C.3     1  UNL1        0.0001
     18 C          -2.1318    3.3394   26.5589 C.3     1  UNL1        0.0019
     19 C          -1.0680    2.2823   26.5892 C.3     1  UNL1        0.0226
     20 C           1.6290    1.2985   29.6698 C.ar    1  UNL1        0.0748
     21 C           2.5917    1.5040   30.8016 C.ar    1  UNL1        0.0468
     22 C           1.7972    1.8169   32.0348 C.ar    1  UNL1        0.1799
     23 O           0.3435    1.8050   31.6652 O.2     1  UNL1       -0.4472
     24 C           0.2396    1.4846   30.2035 C.ar    1  UNL1        0.1827
     25 C           5.0712   -3.6779   21.7445 C.3     1  UNL1        0.1170
     26 C           6.4283   -4.1850   22.1332 C.ar    1  UNL1        0.0842
     27 C           6.9639   -4.2883   23.5305 C.ar    1  UNL1        0.0533
     28 S           8.3547   -4.8450   23.4537 S.2     1  UNL1       -0.0642
     29 C           8.6786   -5.0856   22.0090 C.ar    1  UNL1        0.1342
     30 N           7.4880   -4.6777   21.1928 N.ar    1  UNL1       -0.2389
     31 C           4.5287   -3.9608   20.3749 C.3     1  UNL1        0.0537
     32 C           4.4675   -2.8659   19.3514 C.2     1  UNL1        0.0002
     33 C           5.4563   -2.6347   18.2474 C.2     1  UNL1        0.0943
     34 N           5.0067   -1.4359   17.4661 N.2     1  UNL1       -0.2482
     35 C           3.7400   -0.9261   18.0871 C.2     1  UNL1        0.0633
     36 C           2.8470    0.2286   17.7422 C.3     1  UNL1        0.0749
     37 C           1.6208    0.4995   18.5624 C.2     1  UNL1        0.0168
     38 C           1.2875   -0.3843   19.7277 C.2     1  UNL1        0.1298
     39 O           0.0612   -0.1134   20.5480 O.2     1  UNL1       -0.5058
     40 C           2.1806   -1.5391   20.0726 C.2     1  UNL1        0.0372
     41 C           3.4068   -1.8100   19.2524 C.2     1  UNL1        0.0145
     42 H          -0.4966    0.6080   20.3325 H       1  UNL1        0.2922
@<TRIPOS>BOND
     1     1     2    2
     2     2     3   am
     3     3    25    1
     4    25    31    1
     5    31    32    1
     6    32    33    2
     7    33    34    1
     8    34    35    2
     9    35    36    1
    10    36    37    1
    11    37    38    2
    12    38    39    1
    13    38    40    1
    14    40    41    2
    15    25    26    1
    16    26    27   ar
    17    27    28   ar
    18    28    29   ar
    19    29    30   ar
    20     2     5    1
    21     5     6   ar
    22     6     7   ar
    23     7     8   ar
    24     8     9   ar
    25     9    10   ar
    26     9    11   ar
    27    11    12   ar
    28    12    20    1
    29    20    21   ar
    30    21    22   ar
    31    22    23   ar
    32    23    24   ar
    33    12    13   ar
    34    13    14    1
    35    14    15    1
    36    15    16    1
    37    16    17    1
    38    17    18    1
    39    18    19    1
    40    41    32    1
    41    30    26   ar
    42    10     5   ar
    43    24    20   ar
    44    19    14    1
    45    41    35    1
    46    13     8   ar
    47     3     4    1
    48    39    42    1
@<TRIPOS>MOLECULE
*****
 42 48 0 0 0
SMALL
GASTEIGER

@<TRIPOS>ATOM
      1 O           5.5288   -0.6714   22.1240 O.2     1  UNL1       -0.2701
      2 C           4.4378   -1.3462   22.9014 C.2     1  UNL1        0.2461
      3 N           4.2180   -2.8230   22.7581 N.am    1  UNL1       -0.2970
      4 H           3.5020   -3.2659   23.2683 H       1  UNL1        0.1500
      5 C           3.5666   -0.5441   23.8221 C.ar    1  UNL1        0.0550
      6 C           3.9496   -0.3795   25.2630 C.ar    1  UNL1        0.0061
      7 C           3.0784    0.4226   26.1837 C.ar    1  UNL1        0.0189
      8 C           1.8242    1.0601   25.6635 C.ar    1  UNL1        0.0788
      9 C           1.4412    0.8954   24.2226 C.ar    1  UNL1        0.0988
     10 C           2.3124    0.0934   23.3019 C.ar    1  UNL1        0.0251
     11 N           0.1558    1.6350   23.9972 N.ar    1  UNL1       -0.2267
     12 C          -0.2556    2.2567   25.2988 C.ar    1  UNL1        0.1469
     13 N           0.7755    1.9014   26.3287 N.ar    1  UNL1       -0.3133
     14 C           0.7606    2.3148   27.7705 C.3     1  UNL1        0.0869
     15 C           0.3533    1.3323   28.8282 C.3     1  UNL1        0.0226
     16 C           0.3384    1.7457   30.2701 C.3     1  UNL1        0.0019
     17 C           0.7307    3.1415   30.6542 C.3     1  UNL1        0.0001
     18 C           1.1380    4.1240   29.5964 C.3     1  UNL1        0.0019
     19 C           1.1530    3.7106   28.1546 C.3     1  UNL1        0.0226
     20 C          -1.4827    3.0878   25.5300 C.ar    1  UNL1        0.0748
     21 C          -2.2905    3.1349   26.7931 C.ar    1  UNL1        0.0468
     22 C          -3.4245    4.0940   26.5824 C.ar    1  UNL1        0.1799
     23 O          -3.3176    4.6396   25.1893 O.2     1  UNL1       -0.4472
     24 C          -2.1174    4.0177   24.5389 C.ar    1  UNL1        0.1827
     25 C           5.0892   -3.6251   21.8374 C.3     1  UNL1        0.1170
     26 C           6.4309   -4.1065   22.3044 C.ar    1  UNL1        0.0842
     27 C           6.9607   -4.0183   23.7050 C.ar    1  UNL1        0.0533
     28 S           8.3356   -4.6178   23.7191 S.2     1  UNL1       -0.0642
     29 C           8.6555   -5.0765   22.3272 C.ar    1  UNL1        0.1342
     30 N           7.4784   -4.7605   21.4529 N.ar    1  UNL1       -0.2389
     31 C           4.6187   -3.9458   20.4496 C.3     1  UNL1        0.0537
     32 C           4.5582   -2.8663   19.4099 C.2     1  UNL1        0.0002
     33 C           5.5645   -2.6321   18.3225 C.2     1  UNL1        0.0943
     34 N           5.1090   -1.4524   17.5157 N.2     1  UNL1       -0.2482
     35 C           3.8211   -0.9576   18.1045 C.2     1  UNL1        0.0633
     36 C           2.9145    0.1758   17.7259 C.3     1  UNL1        0.0749
     37 C           1.6674    0.4354   18.5180 C.2     1  UNL1        0.0168
     38 C           1.3271   -0.4385   19.6887 C.2     1  UNL1        0.1298
     39 O           0.0799   -0.1789   20.4808 O.2     1  UNL1       -0.5058
     40 C           2.2337   -1.5718   20.0673 C.2     1  UNL1        0.0372
     41 C           3.4808   -1.8314   19.2752 C.2     1  UNL1        0.0145
     42 H          -0.4864    0.5291   20.2443 H       1  UNL1        0.2922
@<TRIPOS>BOND
     1     1     2    2
     2     2     3   am
     3     3    25    1
     4    25    31    1
     5    31    32    1
     6    32    33    2
     7    33    34    1
     8    34    35    2
     9    35    36    1
    10    36    37    1
    11    37    38    2
    12    38    39    1
    13    38    40    1
    14    40    41    2
    15    25    26    1
    16    26    27   ar
    17    27    28   ar
    18    28    29   ar
    19    29    30   ar
    20     2     5    1
    21     5     6   ar
    22     6     7   ar
    23     7     8   ar
    24     8     9   ar
    25     9    10   ar
    26     9    11   ar
    27    11    12   ar
    28    12    20    1
    29    20    21   ar
    30    21    22   ar
    31    22    23   ar
    32    23    24   ar
    33    12    13   ar
    34    13    14    1
    35    14    15    1
    36    15    16    1
    37    16    17    1
    38    17    18    1
    39    18    19    1
    40    41    32    1
    41    30    26   ar
    42    10     5   ar
    43    24    20   ar
    44    19    14    1
    45    41    35    1
    46    13     8   ar
    47     3     4    1
    48    39    42    1
@<TRIPOS>MOLECULE
*****
 42 48 0 0 0
SMALL
GASTEIGER

@<TRIPOS>ATOM
      1 O          -1.2470    4.3625   21.7883 O.2     1  UNL1       -0.2701
      2 C          -1.3468    3.1407   20.9239 C.2     1  UNL1        0.2461
      3 N          -2.6898    2.6519   20.4686 N.am    1  UNL1       -0.2970
      4 H          -2.7554    1.8500   19.9013 H       1  UNL1        0.1500
      5 C          -0.1037    2.4077   20.5149 C.ar    1  UNL1        0.0550
      6 C           1.0275    3.1517   19.8691 C.ar    1  UNL1        0.0061
      7 C           2.2706    2.4187   19.4601 C.ar    1  UNL1        0.0189
      8 C           2.3826    0.9418   19.6968 C.ar    1  UNL1        0.0788
      9 C           1.2514    0.1978   20.3425 C.ar    1  UNL1        0.0988
     10 C           0.0083    0.9308   20.7516 C.ar    1  UNL1        0.0251
     11 N           1.6460   -1.2456   20.4474 N.ar    1  UNL1       -0.2267
     12 C           3.0210   -1.3936   19.8665 C.ar    1  UNL1        0.1469
     13 N           3.4763   -0.0417   19.4026 N.ar    1  UNL1       -0.3133
     14 C           4.7938    0.2716   18.7577 C.3     1  UNL1        0.0869
     15 C           5.9623    0.6860   19.6019 C.3     1  UNL1        0.0226
     16 C           7.2799    0.9993   18.9570 C.3     1  UNL1        0.0019
     17 C           7.4289    0.8982   17.4679 C.3     1  UNL1        0.0001
     18 C           6.2604    0.4838   16.6237 C.3     1  UNL1        0.0019
     19 C           4.9429    0.1705   17.2686 C.3     1  UNL1        0.0226
     20 C           3.8034   -2.6695   19.7670 C.ar    1  UNL1        0.0748
     21 C           3.4501   -3.8566   18.9209 C.ar    1  UNL1        0.0468
     22 C           4.5048   -4.9031   19.1271 C.ar    1  UNL1        0.1799
     23 O           5.5099   -4.3628   20.1006 O.2     1  UNL1       -0.4472
     24 C           5.0764   -2.9823   20.4960 C.ar    1  UNL1        0.1827
     25 C          -3.9330    3.3849   20.8776 C.3     1  UNL1        0.1170
     26 C          -4.3335    4.6403   20.1611 C.ar    1  UNL1        0.0842
     27 C          -4.1955    6.0382   20.6874 C.ar    1  UNL1        0.0533
     28 S          -4.7191    6.9801   19.6440 S.2     1  UNL1       -0.0642
     29 C          -5.1807    6.1644   18.4729 C.ar    1  UNL1        0.1342
     30 N          -4.9424    4.7183   18.7924 N.ar    1  UNL1       -0.2389
     31 C          -4.7757    2.8625   22.0033 C.3     1  UNL1        0.0537
     32 C          -4.7202    3.5210   23.3499 C.2     1  UNL1        0.0002
     33 C          -3.5695    3.4677   24.3107 C.2     1  UNL1        0.0943
     34 N          -3.9439    4.2622   25.5267 N.2     1  UNL1       -0.2482
     35 C          -5.3259    4.8065   25.3174 C.2     1  UNL1        0.0633
     36 C          -6.2095    5.6600   26.1781 C.3     1  UNL1        0.0749
     37 C          -7.5728    6.0555   25.6934 C.2     1  UNL1        0.0168
     38 C          -8.0526    5.5973   24.3481 C.2     1  UNL1        0.1298
     39 O          -9.4160    5.9928   23.8634 O.2     1  UNL1       -0.5058
     40 C          -7.1690    4.7438   23.4874 C.2     1  UNL1        0.0372
     41 C          -5.8057    4.3484   23.9721 C.2     1  UNL1        0.0145
     42 H          -9.9679    6.5260   24.4010 H       1  UNL1        0.2922
@<TRIPOS>BOND
     1     1     2    2
     2     2     3   am
     3     3    25    1
     4    25    31    1
     5    31    32    1
     6    32    33    2
     7    33    34    1
     8    34    35    2
     9    35    36    1
    10    36    37    1
    11    37    38    2
    12    38    39    1
    13    38    40    1
    14    40    41    2
    15    25    26    1
    16    26    27   ar
    17    27    28   ar
    18    28    29   ar
    19    29    30   ar
    20     2     5    1
    21     5     6   ar
    22     6     7   ar
    23     7     8   ar
    24     8     9   ar
    25     9    10   ar
    26     9    11   ar
    27    11    12   ar
    28    12    20    1
    29    20    21   ar
    30    21    22   ar
    31    22    23   ar
    32    23    24   ar
    33    12    13   ar
    34    13    14    1
    35    14    15    1
    36    15    16    1
    37    16    17    1
    38    17    18    1
    39    18    19    1
    40    41    32    1
    41    30    26   ar
    42    10     5   ar
    43    24    20   ar
    44    19    14    1
    45    41    35    1
    46    13     8   ar
    47     3     4    1
    48    39    42    1
@<TRIPOS>MOLECULE
*****
 42 48 0 0 0
SMALL
GASTEIGER

@<TRIPOS>ATOM
      1 O          -1.2127    4.3285   21.8191 O.2     1  UNL1       -0.2701
      2 C          -1.2952    3.1592   20.8831 C.2     1  UNL1        0.2461
      3 N          -2.6251    2.7227   20.3439 N.am    1  UNL1       -0.2970
      4 H          -2.6793    1.9553   19.7296 H       1  UNL1        0.1500
      5 C          -0.0479    2.4267   20.4863 C.ar    1  UNL1        0.0550
      6 C           1.0850    3.1690   19.8417 C.ar    1  UNL1        0.0061
      7 C           2.3323    2.4365   19.4449 C.ar    1  UNL1        0.0189
      8 C           2.4468    0.9615   19.6927 C.ar    1  UNL1        0.0788
      9 C           1.3138    0.2191   20.3372 C.ar    1  UNL1        0.0988
     10 C           0.0665    0.9517   20.7340 C.ar    1  UNL1        0.0251
     11 N           1.7115   -1.2224   20.4545 N.ar    1  UNL1       -0.2267
     12 C           3.0902   -1.3709   19.8825 C.ar    1  UNL1        0.1469
     13 N           3.5446   -0.0212   19.4116 N.ar    1  UNL1       -0.3133
     14 C           4.8650    0.2910   18.7720 C.3     1  UNL1        0.0869
     15 C           6.0287    0.7107   19.6203 C.3     1  UNL1        0.0226
     16 C           7.3491    1.0229   18.9808 C.3     1  UNL1        0.0019
     17 C           7.5058    0.9154   17.4929 C.3     1  UNL1        0.0001
     18 C           6.3421    0.4957   16.6446 C.3     1  UNL1        0.0019
     19 C           5.0217    0.1835   17.2842 C.3     1  UNL1        0.0226
     20 C           3.8764   -2.6455   19.7964 C.ar    1  UNL1        0.0748
     21 C           3.6405   -3.7630   18.8240 C.ar    1  UNL1        0.0468
     22 C           4.6548   -4.8344   19.0942 C.ar    1  UNL1        0.1799
     23 O           5.5177   -4.3792   20.2336 O.2     1  UNL1       -0.4472
     24 C           5.0366   -3.0263   20.6675 C.ar    1  UNL1        0.1827
     25 C          -3.8725    3.4553   20.7407 C.3     1  UNL1        0.1170
     26 C          -4.1164    4.8476   20.2386 C.ar    1  UNL1        0.0842
     27 C          -4.5323    5.2228   18.8471 C.ar    1  UNL1        0.0533
     28 S          -4.6602    6.7161   18.7884 S.2     1  UNL1       -0.0642
     29 C          -4.3234    7.2638   20.1436 C.ar    1  UNL1        0.1342
     30 N          -3.9873    6.1090   21.0399 N.ar    1  UNL1       -0.2389
     31 C          -4.8759    2.7955   21.6396 C.3     1  UNL1        0.0537
     32 C          -5.4845    3.5634   22.7755 C.2     1  UNL1        0.0002
     33 C          -6.8366    4.2129   22.7764 C.2     1  UNL1        0.0943
     34 N          -7.0354    4.8674   24.1113 N.2     1  UNL1       -0.2482
     35 C          -5.8062    4.6226   24.9354 C.2     1  UNL1        0.0633
     36 C          -5.4359    5.0293   26.3308 C.3     1  UNL1        0.0749
     37 C          -4.1070    4.6302   26.9007 C.2     1  UNL1        0.0168
     38 C          -3.1485    3.8242   26.0751 C.2     1  UNL1        0.1298
     39 O          -1.8196    3.4250   26.6450 O.2     1  UNL1       -0.5058
     40 C          -3.5188    3.4174   24.6796 C.2     1  UNL1        0.0372
     41 C          -4.8476    3.8166   24.1098 C.2     1  UNL1        0.0145
     42 H          -1.5883    3.6791   27.5167 H       1  UNL1        0.2922
@<TRIPOS>BOND
     1     1     2    2
     2     2     3   am
     3     3    25    1
     4    25    31    1
     5    31    32    1
     6    32    33    2
     7    33    34    1
     8    34    35    2
     9    35    36    1
    10    36    37    1
    11    37    38    2
    12    38    39    1
    13    38    40    1
    14    40    41    2
    15    25    26    1
    16    26    27   ar
    17    27    28   ar
    18    28    29   ar
    19    29    30   ar
    20     2     5    1
    21     5     6   ar
    22     6     7   ar
    23     7     8   ar
    24     8     9   ar
    25     9    10   ar
    26     9    11   ar
    27    11    12   ar
    28    12    20    1
    29    20    21   ar
    30    21    22   ar
    31    22    23   ar
    32    23    24   ar
    33    12    13   ar
    34    13    14    1
    35    14    15    1
    36    15    16    1
    37    16    17    1
    38    17    18    1
    39    18    19    1
    40    41    32    1
    41    30    26   ar
    42    10     5   ar
    43    24    20   ar
    44    19    14    1
    45    41    35    1
    46    13     8   ar
    47     3     4    1
    48    39    42    1
@<TRIPOS>MOLECULE
*****
 42 48 0 0 0
SMALL
GASTEIGER

@<TRIPOS>ATOM
      1 O           4.2642    1.0022   22.1884 O.2     1  UNL1       -0.2701
      2 C           3.6635   -0.3132   22.5873 C.2     1  UNL1        0.2461
      3 N           2.2681   -0.6605   22.1606 N.am    1  UNL1       -0.2970
      4 H           1.8738   -1.5238   22.4224 H       1  UNL1        0.1500
      5 C           4.4583   -1.2811   23.4127 C.ar    1  UNL1        0.0550
      6 C           4.9209   -2.5755   22.8124 C.ar    1  UNL1        0.0061
      7 C           5.7157   -3.5435   23.6379 C.ar    1  UNL1        0.0189
      8 C           6.0478   -3.2170   25.0637 C.ar    1  UNL1        0.0788
      9 C           5.5851   -1.9226   25.6641 C.ar    1  UNL1        0.0988
     10 C           4.7904   -0.9546   24.8386 C.ar    1  UNL1        0.0251
     11 N           6.0609   -1.8748   27.0858 N.ar    1  UNL1       -0.2267
     12 C           6.8176   -3.1397   27.3641 C.ar    1  UNL1        0.1469
     13 N           6.8095   -3.9692   26.1144 N.ar    1  UNL1       -0.3133
     14 C           7.4506   -5.3148   25.9450 C.3     1  UNL1        0.0869
     15 C           8.7012   -5.4522   25.1284 C.3     1  UNL1        0.0226
     16 C           9.3423   -6.7977   24.9590 C.3     1  UNL1        0.0019
     17 C           8.7327   -8.0058   25.6063 C.3     1  UNL1        0.0001
     18 C           7.4820   -7.8683   26.4230 C.3     1  UNL1        0.0019
     19 C           6.8410   -6.5228   26.5923 C.3     1  UNL1        0.0226
     20 C           7.4682   -3.5101   28.6639 C.ar    1  UNL1        0.0748
     21 C           6.7782   -4.0971   29.8595 C.ar    1  UNL1        0.0468
     22 C           7.8065   -4.3082   30.9309 C.ar    1  UNL1        0.1799
     23 O           9.1321   -3.8518   30.3975 O.2     1  UNL1       -0.4472
     24 C           8.9229   -3.3585   28.9965 C.ar    1  UNL1        0.1827
     25 C           1.4733    0.3075   21.3351 C.3     1  UNL1        0.1170
     26 C           0.6810    1.3906   22.0052 C.ar    1  UNL1        0.0842
     27 C          -0.1530    2.4287   21.3146 C.ar    1  UNL1        0.0533
     28 S          -0.7660    3.3055   22.3660 S.2     1  UNL1       -0.0642
     29 C          -0.3108    2.8092   23.7064 C.ar    1  UNL1        0.1342
     30 N           0.5835    1.6258   23.4834 N.ar    1  UNL1       -0.2389
     31 C           1.4709    0.1923   19.8395 C.3     1  UNL1        0.0537
     32 C           2.7485   -0.0934   19.1072 C.2     1  UNL1        0.0002
     33 C           3.5468    0.8941   18.3087 C.2     1  UNL1        0.0943
     34 N           4.7437    0.1810   17.7529 N.2     1  UNL1       -0.2482
     35 C           4.6852   -1.2471   18.2079 C.2     1  UNL1        0.0633
     36 C           5.5954   -2.4150   17.9682 C.3     1  UNL1        0.0749
     37 C           5.2725   -3.7525   18.5655 C.2     1  UNL1        0.0168
     38 C           4.0394   -3.9221   19.4025 C.2     1  UNL1        0.1298
     39 O           3.7165   -5.2596   19.9999 O.2     1  UNL1       -0.5058
     40 C           3.1291   -2.7542   19.6422 C.2     1  UNL1        0.0372
     41 C           3.4520   -1.4167   19.0449 C.2     1  UNL1        0.0145
     42 H           4.2851   -5.9892   19.8501 H       1  UNL1        0.2922
@<TRIPOS>BOND
     1     1     2    2
     2     2     3   am
     3     3    25    1
     4    25    31    1
     5    31    32    1
     6    32    33    2
     7    33    34    1
     8    34    35    2
     9    35    36    1
    10    36    37    1
    11    37    38    2
    12    38    39    1
    13    38    40    1
    14    40    41    2
    15    25    26    1
    16    26    27   ar
    17    27    28   ar
    18    28    29   ar
    19    29    30   ar
    20     2     5    1
    21     5     6   ar
    22     6     7   ar
    23     7     8   ar
    24     8     9   ar
    25     9    10   ar
    26     9    11   ar
    27    11    12   ar
    28    12    20    1
    29    20    21   ar
    30    21    22   ar
    31    22    23   ar
    32    23    24   ar
    33    12    13   ar
    34    13    14    1
    35    14    15    1
    36    15    16    1
    37    16    17    1
    38    17    18    1
    39    18    19    1
    40    41    32    1
    41    30    26   ar
    42    10     5   ar
    43    24    20   ar
    44    19    14    1
    45    41    35    1
    46    13     8   ar
    47     3     4    1
    48    39    42    1
@<TRIPOS>MOLECULE
*****
 42 48 0 0 0
SMALL
GASTEIGER

@<TRIPOS>ATOM
      1 O           2.7998   -1.0948   28.6958 O.2     1  UNL1       -0.2701
      2 C           3.8194   -0.4675   27.7919 C.2     1  UNL1        0.2461
      3 N           4.9858    0.2725   28.3767 N.am    1  UNL1       -0.2970
      4 H           5.6550    0.6842   27.7835 H       1  UNL1        0.1500
      5 C           3.6726   -0.5803   26.3034 C.ar    1  UNL1        0.0550
      6 C           2.8860    0.4490   25.5472 C.ar    1  UNL1        0.0061
      7 C           2.7393    0.3362   24.0586 C.ar    1  UNL1        0.0189
      8 C           3.3791   -0.8058   23.3263 C.ar    1  UNL1        0.0788
      9 C           4.1656   -1.8351   24.0825 C.ar    1  UNL1        0.0988
     10 C           4.3124   -1.7224   25.5711 C.ar    1  UNL1        0.0251
     11 N           4.6794   -2.8422   23.0967 N.ar    1  UNL1       -0.2267
     12 C           4.2103   -2.4353   21.7313 C.ar    1  UNL1        0.1469
     13 N           3.4067   -1.1767   21.8732 N.ar    1  UNL1       -0.3133
     14 C           2.7466   -0.4217   20.7578 C.3     1  UNL1        0.0869
     15 C           3.5823    0.3106   19.7502 C.3     1  UNL1        0.0226
     16 C           2.9222    1.0656   18.6348 C.3     1  UNL1        0.0019
     17 C           1.4263    1.0884   18.5270 C.3     1  UNL1        0.0001
     18 C           0.5905    0.3562   19.5345 C.3     1  UNL1        0.0019
     19 C           1.2506   -0.3989   20.6499 C.3     1  UNL1        0.0226
     20 C           4.4950   -3.1598   20.4491 C.ar    1  UNL1        0.0748
     21 C           3.8907   -4.4641   20.0205 C.ar    1  UNL1        0.0468
     22 C           4.4561   -4.8176   18.6769 C.ar    1  UNL1        0.1799
     23 O           5.4099   -3.7318   18.2750 O.2     1  UNL1       -0.4472
     24 C           5.4338   -2.7073   19.3704 C.ar    1  UNL1        0.1827
     25 C           5.1325    0.3853   29.8652 C.3     1  UNL1        0.1170
     26 C           4.0358    1.0010   30.6825 C.ar    1  UNL1        0.0842
     27 C           3.4768    0.4541   31.9625 C.ar    1  UNL1        0.0533
     28 S           2.4010    1.3869   32.4344 S.2     1  UNL1       -0.0642
     29 C           2.2952    2.5102   31.4460 C.ar    1  UNL1        0.1342
     30 N           3.3055    2.2718   30.3632 N.ar    1  UNL1       -0.2389
     31 C           6.3761   -0.1178   30.5365 C.3     1  UNL1        0.0537
     32 C           6.4793   -1.5582   30.9419 C.2     1  UNL1        0.0002
     33 C           6.5632   -2.0747   32.3477 C.2     1  UNL1        0.0943
     34 N           6.6524   -3.5708   32.2873 N.2     1  UNL1       -0.2482
     35 C           6.6237   -3.9790   30.8442 C.2     1  UNL1        0.0633
     36 C           6.6811   -5.3226   30.1799 C.3     1  UNL1        0.0749
     37 C           6.6316   -5.4224   28.6840 C.2     1  UNL1        0.0168
     38 C           6.5246   -4.1785   27.8525 C.2     1  UNL1        0.1298
     39 O           6.4751   -4.2783   26.3566 O.2     1  UNL1       -0.5058
     40 C           6.4672   -2.8349   28.5168 C.2     1  UNL1        0.0372
     41 C           6.5167   -2.7352   30.0127 C.2     1  UNL1        0.0145
     42 H           6.5110   -5.1177   25.9416 H       1  UNL1        0.2922
@<TRIPOS>BOND
     1     1     2    2
     2     2     3   am
     3     3    25    1
     4    25    31    1
     5    31    32    1
     6    32    33    2
     7    33    34    1
     8    34    35    2
     9    35    36    1
    10    36    37    1
    11    37    38    2
    12    38    39    1
    13    38    40    1
    14    40    41    2
    15    25    26    1
    16    26    27   ar
    17    27    28   ar
    18    28    29   ar
    19    29    30   ar
    20     2     5    1
    21     5     6   ar
    22     6     7   ar
    23     7     8   ar
    24     8     9   ar
    25     9    10   ar
    26     9    11   ar
    27    11    12   ar
    28    12    20    1
    29    20    21   ar
    30    21    22   ar
    31    22    23   ar
    32    23    24   ar
    33    12    13   ar
    34    13    14    1
    35    14    15    1
    36    15    16    1
    37    16    17    1
    38    17    18    1
    39    18    19    1
    40    41    32    1
    41    30    26   ar
    42    10     5   ar
    43    24    20   ar
    44    19    14    1
    45    41    35    1
    46    13     8   ar
    47     3     4    1
    48    39    42    1
@<TRIPOS>MOLECULE
*****
 42 48 0 0 0
SMALL
GASTEIGER

@<TRIPOS>ATOM
      1 O           4.4232    1.2441   28.4994 O.2     1  UNL1       -0.2701
      2 C           3.4835    0.2029   27.9678 C.2     1  UNL1        0.2461
      3 N           2.5963   -0.5571   28.9086 N.am    1  UNL1       -0.2970
      4 H           1.9795   -1.2405   28.5597 H       1  UNL1        0.1500
      5 C           3.4310   -0.0784   26.4953 C.ar    1  UNL1        0.0550
      6 C           2.7225    0.8711   25.5752 C.ar    1  UNL1        0.0061
      7 C           2.6700    0.5898   24.1028 C.ar    1  UNL1        0.0189
      8 C           3.3260   -0.6408   23.5504 C.ar    1  UNL1        0.0788
      9 C           4.0345   -1.5903   24.4705 C.ar    1  UNL1        0.0988
     10 C           4.0870   -1.3090   25.9430 C.ar    1  UNL1        0.0251
     11 N           4.5849   -2.7138   23.6430 N.ar    1  UNL1       -0.2267
     12 C           4.2164   -2.4588   22.2115 C.ar    1  UNL1        0.1469
     13 N           3.4384   -1.1776   22.1543 N.ar    1  UNL1       -0.3133
     14 C           2.8723   -0.5443   20.9180 C.3     1  UNL1        0.0869
     15 C           1.3865   -0.4737   20.7246 C.3     1  UNL1        0.0226
     16 C           0.8203    0.1595   19.4882 C.3     1  UNL1        0.0019
     17 C           1.7399    0.7221   18.4453 C.3     1  UNL1        0.0001
     18 C           3.2257    0.6515   18.6387 C.3     1  UNL1        0.0019
     19 C           3.7919    0.0183   19.8750 C.3     1  UNL1        0.0226
     20 C           4.5649   -3.3317   21.0425 C.ar    1  UNL1        0.0748
     21 C           3.6158   -3.8049   19.9817 C.ar    1  UNL1        0.0468
     22 C           4.3879   -4.6503   19.0126 C.ar    1  UNL1        0.1799
     23 O           5.8142   -4.6996   19.4744 O.2     1  UNL1       -0.4472
     24 C           5.9235   -3.8846   20.7290 C.ar    1  UNL1        0.1827
     25 C           2.6488   -0.2759   30.3811 C.3     1  UNL1        0.1170
     26 C           2.0352    0.9792   30.9273 C.ar    1  UNL1        0.0842
     27 C           2.7665    2.0849   31.6293 C.ar    1  UNL1        0.0533
     28 S           1.7659    3.1380   32.0033 S.2     1  UNL1       -0.0642
     29 C           0.4163    2.6831   31.5324 C.ar    1  UNL1        0.1342
     30 N           0.5828    1.3489   30.8674 N.ar    1  UNL1       -0.2389
     31 C           3.3149   -1.2498   31.3074 C.3     1  UNL1        0.0537
     32 C           4.7257   -1.0115   31.7580 C.2     1  UNL1        0.0002
     33 C           5.9438   -1.0186   30.8829 C.2     1  UNL1        0.0943
     34 N           7.1369   -0.7357   31.7469 N.2     1  UNL1       -0.2482
     35 C           6.6561   -0.5539   33.1561 C.2     1  UNL1        0.0633
     36 C           7.3827   -0.2552   34.4339 C.3     1  UNL1        0.0749
     37 C           6.6191   -0.1268   35.7185 C.2     1  UNL1        0.0168
     38 C           5.1288   -0.2973   35.7254 C.2     1  UNL1        0.1298
     39 O           4.3651   -0.1690   37.0101 O.2     1  UNL1       -0.5058
     40 C           4.4022   -0.5960   34.4476 C.2     1  UNL1        0.0372
     41 C           5.1658   -0.7243   33.1630 C.2     1  UNL1        0.0145
     42 H           4.8191    0.0177   37.8083 H       1  UNL1        0.2922
@<TRIPOS>BOND
     1     1     2    2
     2     2     3   am
     3     3    25    1
     4    25    31    1
     5    31    32    1
     6    32    33    2
     7    33    34    1
     8    34    35    2
     9    35    36    1
    10    36    37    1
    11    37    38    2
    12    38    39    1
    13    38    40    1
    14    40    41    2
    15    25    26    1
    16    26    27   ar
    17    27    28   ar
    18    28    29   ar
    19    29    30   ar
    20     2     5    1
    21     5     6   ar
    22     6     7   ar
    23     7     8   ar
    24     8     9   ar
    25     9    10   ar
    26     9    11   ar
    27    11    12   ar
    28    12    20    1
    29    20    21   ar
    30    21    22   ar
    31    22    23   ar
    32    23    24   ar
    33    12    13   ar
    34    13    14    1
    35    14    15    1
    36    15    16    1
    37    16    17    1
    38    17    18    1
    39    18    19    1
    40    41    32    1
    41    30    26   ar
    42    10     5   ar
    43    24    20   ar
    44    19    14    1
    45    41    35    1
    46    13     8   ar
    47     3     4    1
    48    39    42    1
@<TRIPOS>MOLECULE
*****
 42 48 0 0 0
SMALL
GASTEIGER

@<TRIPOS>ATOM
      1 O           5.2456   -0.7135   22.3060 O.2     1  UNL1       -0.2701
      2 C           5.0220   -1.7270   23.3890 C.2     1  UNL1        0.2461
      3 N           5.1872   -3.1884   23.0941 N.am    1  UNL1       -0.2970
      4 H           5.0405   -3.8536   23.8049 H       1  UNL1        0.1500
      5 C           4.6333   -1.2790   24.7667 C.ar    1  UNL1        0.0550
      6 C           3.5013   -0.3120   24.9495 C.ar    1  UNL1        0.0061
      7 C           3.1126    0.1360   26.3272 C.ar    1  UNL1        0.0189
      8 C           3.8558   -0.3831   27.5222 C.ar    1  UNL1        0.0788
      9 C           4.9878   -1.3502   27.3395 C.ar    1  UNL1        0.0988
     10 C           5.3765   -1.7982   25.9617 C.ar    1  UNL1        0.0251
     11 N           5.5323   -1.6881   28.6957 N.ar    1  UNL1       -0.2267
     12 C           4.7367   -0.9299   29.7166 C.ar    1  UNL1        0.1469
     13 N           3.7006   -0.1234   28.9914 N.ar    1  UNL1       -0.3133
     14 C           2.6873    0.7837   29.6242 C.3     1  UNL1        0.0869
     15 C           1.2244    0.4768   29.4992 C.3     1  UNL1        0.0226
     16 C           0.2110    1.3838   30.1320 C.3     1  UNL1        0.0019
     17 C           0.6606    2.5978   30.8898 C.3     1  UNL1        0.0001
     18 C           2.1235    2.9046   31.0147 C.3     1  UNL1        0.0019
     19 C           3.1369    1.9976   30.3819 C.3     1  UNL1        0.0226
     20 C           4.9414   -0.9710   31.2021 C.ar    1  UNL1        0.0748
     21 C           4.0540   -1.6605   32.1956 C.ar    1  UNL1        0.0468
     22 C           4.6335   -1.4455   33.5623 C.ar    1  UNL1        0.1799
     23 O           5.8792   -0.6231   33.4135 O.2     1  UNL1       -0.4472
     24 C           6.0694   -0.3299   31.9547 C.ar    1  UNL1        0.1827
     25 C           5.5759   -3.6363   21.7164 C.3     1  UNL1        0.1170
     26 C           7.0169   -3.8972   21.3912 C.ar    1  UNL1        0.0842
     27 C           8.0056   -2.8848   20.8937 C.ar    1  UNL1        0.0533
     28 S           9.3218   -3.5781   20.7015 S.2     1  UNL1       -0.0642
     29 C           9.1465   -5.0189   21.0801 C.ar    1  UNL1        0.1342
     30 N           7.7219   -5.2161   21.5064 N.ar    1  UNL1       -0.2389
     31 C           4.5237   -3.8234   20.6637 C.3     1  UNL1        0.0537
     32 C           4.4063   -2.8398   19.5374 C.2     1  UNL1        0.0002
     33 C           5.3086   -2.7564   18.3421 C.2     1  UNL1        0.0943
     34 N           4.8260   -1.6318   17.4746 N.2     1  UNL1       -0.2482
     35 C           3.6254   -1.0202   18.1338 C.2     1  UNL1        0.0633
     36 C           2.7349    0.1200   17.7379 C.3     1  UNL1        0.0749
     37 C           1.5850    0.5137   18.6170 C.2     1  UNL1        0.0168
     38 C           1.3256   -0.2329   19.8919 C.2     1  UNL1        0.1298
     39 O           0.1756    0.1608   20.7709 O.2     1  UNL1       -0.5058
     40 C           2.2162   -1.3731   20.2878 C.2     1  UNL1        0.0372
     41 C           3.3661   -1.7668   19.4088 C.2     1  UNL1        0.0145
     42 H          -0.3807    0.8731   20.5236 H       1  UNL1        0.2922
@<TRIPOS>BOND
     1     1     2    2
     2     2     3   am
     3     3    25    1
     4    25    31    1
     5    31    32    1
     6    32    33    2
     7    33    34    1
     8    34    35    2
     9    35    36    1
    10    36    37    1
    11    37    38    2
    12    38    39    1
    13    38    40    1
    14    40    41    2
    15    25    26    1
    16    26    27   ar
    17    27    28   ar
    18    28    29   ar
    19    29    30   ar
    20     2     5    1
    21     5     6   ar
    22     6     7   ar
    23     7     8   ar
    24     8     9   ar
    25     9    10   ar
    26     9    11   ar
    27    11    12   ar
    28    12    20    1
    29    20    21   ar
    30    21    22   ar
    31    22    23   ar
    32    23    24   ar
    33    12    13   ar
    34    13    14    1
    35    14    15    1
    36    15    16    1
    37    16    17    1
    38    17    18    1
    39    18    19    1
    40    41    32    1
    41    30    26   ar
    42    10     5   ar
    43    24    20   ar
    44    19    14    1
    45    41    35    1
    46    13     8   ar
    47     3     4    1
    48    39    42    1
@<TRIPOS>MOLECULE
*****
 42 48 0 0 0
SMALL
GASTEIGER

@<TRIPOS>ATOM
      1 O           4.2827   -3.6221   23.2433 O.2     1  UNL1       -0.2701
      2 C           4.7369   -2.2108   23.4713 C.2     1  UNL1        0.2461
      3 N           5.9774   -1.7042   22.7974 N.am    1  UNL1       -0.2970
      4 H           6.2756   -0.7779   22.9470 H       1  UNL1        0.1500
      5 C           3.9505   -1.3063   24.3732 C.ar    1  UNL1        0.0550
      6 C           2.9733   -0.3297   23.7890 C.ar    1  UNL1        0.0061
      7 C           2.1869    0.5749   24.6909 C.ar    1  UNL1        0.0189
      8 C           2.3777    0.5028   26.1769 C.ar    1  UNL1        0.0788
      9 C           3.3549   -0.4739   26.7611 C.ar    1  UNL1        0.0988
     10 C           4.1413   -1.3784   25.8592 C.ar    1  UNL1        0.0251
     11 N           3.3298   -0.3185   28.2528 N.ar    1  UNL1       -0.2267
     12 C           2.3371    0.7541   28.5905 C.ar    1  UNL1        0.1469
     13 N           1.7486    1.2617   27.3076 N.ar    1  UNL1       -0.3133
     14 C           0.7130    2.3390   27.1780 C.3     1  UNL1        0.0869
     15 C          -0.7167    1.9762   26.9054 C.3     1  UNL1        0.0226
     16 C          -1.7523    3.0535   26.7758 C.3     1  UNL1        0.0019
     17 C          -1.3583    4.4937   26.9188 C.3     1  UNL1        0.0001
     18 C           0.0714    4.8566   27.1914 C.3     1  UNL1        0.0019
     19 C           1.1070    3.7792   27.3210 C.3     1  UNL1        0.0226
     20 C           1.9932    1.2347   29.9692 C.ar    1  UNL1        0.0748
     21 C           0.6752    1.8066   30.4004 C.ar    1  UNL1        0.0468
     22 C           0.7744    2.1531   31.8564 C.ar    1  UNL1        0.1799
     23 O           2.1536    1.7954   32.3252 O.2     1  UNL1       -0.4472
     24 C           2.9068    1.2278   31.1588 C.ar    1  UNL1        0.1827
     25 C           6.7638   -2.6087   21.8955 C.3     1  UNL1        0.1170
     26 C           6.2198   -2.9824   20.5486 C.ar    1  UNL1        0.0842
     27 C           6.2302   -2.1180   19.3227 C.ar    1  UNL1        0.0533
     28 S           5.5867   -2.8875   18.2075 S.2     1  UNL1       -0.0642
     29 C           5.1786   -4.2274   18.7441 C.ar    1  UNL1        0.1342
     30 N           5.5698   -4.2861   20.1910 N.ar    1  UNL1       -0.2389
     31 C           8.0944   -3.1395   22.3407 C.3     1  UNL1        0.0537
     32 C           8.2330   -4.5799   22.7359 C.2     1  UNL1        0.0002
     33 C           8.8543   -5.6655   21.9080 C.2     1  UNL1        0.0943
     34 N           8.7800   -6.9440   22.6889 N.2     1  UNL1       -0.2482
     35 C           8.1128   -6.6486   23.9995 C.2     1  UNL1        0.0633
     36 C           7.7694   -7.5213   25.1701 C.3     1  UNL1        0.0749
     37 C           7.0879   -6.9328   26.3698 C.2     1  UNL1        0.0168
     38 C           6.7499   -5.4717   26.3989 C.2     1  UNL1        0.1298
     39 O           6.0684   -4.8833   27.5987 O.2     1  UNL1       -0.5058
     40 C           7.0933   -4.5990   25.2282 C.2     1  UNL1        0.0372
     41 C           7.7747   -5.1874   24.0285 C.2     1  UNL1        0.0145
     42 H           5.8539   -5.4284   28.3299 H       1  UNL1        0.2922
@<TRIPOS>BOND
     1     1     2    2
     2     2     3   am
     3     3    25    1
     4    25    31    1
     5    31    32    1
     6    32    33    2
     7    33    34    1
     8    34    35    2
     9    35    36    1
    10    36    37    1
    11    37    38    2
    12    38    39    1
    13    38    40    1
    14    40    41    2
    15    25    26    1
    16    26    27   ar
    17    27    28   ar
    18    28    29   ar
    19    29    30   ar
    20     2     5    1
    21     5     6   ar
    22     6     7   ar
    23     7     8   ar
    24     8     9   ar
    25     9    10   ar
    26     9    11   ar
    27    11    12   ar
    28    12    20    1
    29    20    21   ar
    30    21    22   ar
    31    22    23   ar
    32    23    24   ar
    33    12    13   ar
    34    13    14    1
    35    14    15    1
    36    15    16    1
    37    16    17    1
    38    17    18    1
    39    18    19    1
    40    41    32    1
    41    30    26   ar
    42    10     5   ar
    43    24    20   ar
    44    19    14    1
    45    41    35    1
    46    13     8   ar
    47     3     4    1
    48    39    42    1
