@<TRIPOS>MOLECULE
*****
 20 21 0 0 0
SMALL
GASTEIGER

@<TRIPOS>ATOM
      1 C          -9.6470  -18.4214   23.5796 C.ar    1  UNL1        0.1385
      2 C          -9.1292  -19.8047   23.3178 C.ar    1  UNL1        0.0366
      3 C          -7.9662  -20.0075   22.3925 C.ar    1  UNL1        0.0002
      4 C          -7.3209  -18.8272   21.7290 C.ar    1  UNL1       -0.0059
      5 C          -7.8387  -17.4440   21.9907 C.ar    1  UNL1        0.0002
      6 C          -9.0017  -17.2411   22.9161 C.ar    1  UNL1        0.0366
      7 O         -10.8100  -18.2186   24.5050 O.3     1  UNL1       -0.4754
      8 C         -12.2118  -18.3442   23.9864 C.3     1  UNL1        0.2068
      9 C         -12.7060  -17.4059   22.9256 C.3     1  UNL1        0.0646
     10 C         -12.7963  -17.8655   21.5005 C.3     1  UNL1        0.0760
     11 C         -11.4888  -16.0970   20.1174 C.3     1  UNL1        0.0897
     12 N         -11.7041  -17.5226   20.5313 N.3     1  UNL1       -0.2702
     13 C         -10.8271  -18.6054   19.9758 C.3     1  UNL1        0.0897
     14 C          -6.1579  -19.0301   20.8036 C.3     1  UNL1        0.0991
     15 N          -4.7601  -18.7913   21.2924 N.3     1  UNL1       -0.2690
     16 C          -4.5293  -18.2730   22.6810 C.3     1  UNL1        0.0724
     17 C          -3.1315  -18.0342   23.1698 C.3     1  UNL1        0.0174
     18 C          -1.9643  -18.3138   22.2701 C.3     1  UNL1        0.0029
     19 C          -2.1950  -18.8321   20.8815 C.3     1  UNL1        0.0174
     20 C          -3.5929  -19.0708   20.3927 C.3     1  UNL1        0.0724
@<TRIPOS>BOND
     1    11    12    1
     2    12    13    1
     3    12    10    1
     4    10     9    1
     5     9     8    1
     6     8     7    1
     7     7     1    1
     8     1     2   ar
     9     2     3   ar
    10     3     4   ar
    11     4    14    1
    12    14    15    1
    13    15    16    1
    14    16    17    1
    15    17    18    1
    16    18    19    1
    17    19    20    1
    18     4     5   ar
    19     5     6   ar
    20     6     1   ar
    21    20    15    1
@<TRIPOS>MOLECULE
*****
 20 21 0 0 0
SMALL
GASTEIGER

@<TRIPOS>ATOM
      1 C          -4.9571  -18.7657   22.4551 C.ar    1  UNL1        0.1385
      2 C          -4.8246  -17.4728   23.2039 C.ar    1  UNL1        0.0366
      3 C          -6.0361  -16.6253   23.4574 C.ar    1  UNL1        0.0002
      4 C          -7.3800  -17.0708   22.9619 C.ar    1  UNL1       -0.0059
      5 C          -7.5124  -18.3637   22.2130 C.ar    1  UNL1        0.0002
      6 C          -6.3010  -19.2111   21.9596 C.ar    1  UNL1        0.0366
      7 O          -3.7456  -19.6131   22.2016 O.3     1  UNL1       -0.4754
      8 C          -3.2468  -19.8086   20.8006 C.3     1  UNL1        0.2068
      9 C          -3.6165  -18.8263   19.7289 C.3     1  UNL1        0.0646
     10 C          -2.6098  -17.8212   19.2531 C.3     1  UNL1        0.0760
     11 C          -1.8904  -16.4404   21.3330 C.3     1  UNL1        0.0897
     12 N          -1.5372  -17.3361   20.1828 N.3     1  UNL1       -0.2702
     13 C          -0.1114  -17.7469   19.9624 C.3     1  UNL1        0.0897
     14 C          -8.5914  -16.2233   23.2154 C.3     1  UNL1        0.0991
     15 N          -9.9494  -16.7163   22.8118 N.3     1  UNL1       -0.2690
     16 C         -10.5314  -16.3127   21.4895 C.3     1  UNL1        0.0724
     17 C         -11.8894  -16.8057   21.0860 C.3     1  UNL1        0.0174
     18 C         -12.6653  -17.7023   22.0047 C.3     1  UNL1        0.0029
     19 C         -12.0833  -18.1060   23.3269 C.3     1  UNL1        0.0174
     20 C         -10.7253  -17.6129   23.7305 C.3     1  UNL1        0.0724
@<TRIPOS>BOND
     1    11    12    1
     2    12    13    1
     3    12    10    1
     4    10     9    1
     5     9     8    1
     6     8     7    1
     7     7     1    1
     8     1     2   ar
     9     2     3   ar
    10     3     4   ar
    11     4    14    1
    12    14    15    1
    13    15    16    1
    14    16    17    1
    15    17    18    1
    16    18    19    1
    17    19    20    1
    18     4     5   ar
    19     5     6   ar
    20     6     1   ar
    21    20    15    1
@<TRIPOS>MOLECULE
*****
 20 21 0 0 0
SMALL
GASTEIGER

@<TRIPOS>ATOM
      1 C          -8.4159  -18.8637   20.8563 C.ar    1  UNL1        0.1385
      2 C          -7.8638  -18.0845   22.0130 C.ar    1  UNL1        0.0366
      3 C          -6.4381  -18.2797   22.4365 C.ar    1  UNL1        0.0002
      4 C          -5.5646  -19.2540   21.7033 C.ar    1  UNL1       -0.0059
      5 C          -6.1167  -20.0331   20.5466 C.ar    1  UNL1        0.0002
      6 C          -7.5424  -19.8380   20.1231 C.ar    1  UNL1        0.0366
      7 O          -9.8416  -18.6685   20.4328 O.3     1  UNL1       -0.4754
      8 C         -10.9031  -19.6123   20.9150 C.3     1  UNL1        0.2068
      9 C         -10.8970  -20.0837   22.3390 C.3     1  UNL1        0.0646
     10 C         -11.0367  -19.0937   23.4573 C.3     1  UNL1        0.0760
     11 C         -11.1960  -16.5624   22.8944 C.3     1  UNL1        0.0897
     12 N         -11.8607  -17.8553   23.2641 N.3     1  UNL1       -0.2702
     13 C         -13.3493  -17.9097   23.4405 C.3     1  UNL1        0.0897
     14 C          -4.1389  -19.4491   22.1268 C.3     1  UNL1        0.0991
     15 N          -3.0583  -18.5886   21.5421 N.3     1  UNL1       -0.2690
     16 C          -2.8147  -17.2141   22.0911 C.3     1  UNL1        0.0724
     17 C          -1.7342  -16.3536   21.5064 C.3     1  UNL1        0.0174
     18 C          -0.8972  -16.8675   20.3728 C.3     1  UNL1        0.0029
     19 C          -1.1407  -18.2420   19.8238 C.3     1  UNL1        0.0174
     20 C          -2.2213  -19.1026   20.4084 C.3     1  UNL1        0.0724
@<TRIPOS>BOND
     1    11    12    1
     2    12    13    1
     3    12    10    1
     4    10     9    1
     5     9     8    1
     6     8     7    1
     7     7     1    1
     8     1     2   ar
     9     2     3   ar
    10     3     4   ar
    11     4    14    1
    12    14    15    1
    13    15    16    1
    14    16    17    1
    15    17    18    1
    16    18    19    1
    17    19    20    1
    18     4     5   ar
    19     5     6   ar
    20     6     1   ar
    21    20    15    1
@<TRIPOS>MOLECULE
*****
 20 21 0 0 0
SMALL
GASTEIGER

@<TRIPOS>ATOM
      1 C          -5.5582  -19.1127   21.3614 C.ar    1  UNL1        0.1385
      2 C          -6.0367  -19.8789   20.1639 C.ar    1  UNL1        0.0366
      3 C          -7.5004  -19.9259   19.8393 C.ar    1  UNL1        0.0002
      4 C          -8.4856  -19.2067   20.7122 C.ar    1  UNL1       -0.0059
      5 C          -8.0072  -18.4405   21.9096 C.ar    1  UNL1        0.0002
      6 C          -6.5435  -18.3935   22.2342 C.ar    1  UNL1        0.0366
      7 O          -4.0945  -19.0657   21.6860 O.3     1  UNL1       -0.4754
      8 C          -3.5933  -18.1444   22.7583 C.3     1  UNL1        0.2068
      9 C          -2.2844  -17.4328   22.5843 C.3     1  UNL1        0.0646
     10 C          -2.0301  -16.6218   21.3483 C.3     1  UNL1        0.0760
     11 C          -0.1192  -17.7134   19.9675 C.3     1  UNL1        0.0897
     12 N          -1.5537  -17.2941   20.0949 N.3     1  UNL1       -0.2702
     13 C          -2.5120  -17.5472   18.9688 C.3     1  UNL1        0.0897
     14 C          -9.9493  -19.2537   20.3876 C.3     1  UNL1        0.0991
     15 N         -10.9273  -18.4781   21.2194 N.3     1  UNL1       -0.2690
     16 C         -11.3943  -17.1275   20.7635 C.3     1  UNL1        0.0724
     17 C         -12.3723  -16.3519   21.5953 C.3     1  UNL1        0.0174
     18 C         -12.8833  -16.9269   22.8831 C.3     1  UNL1        0.0029
     19 C         -12.4164  -18.2775   23.3390 C.3     1  UNL1        0.0174
     20 C         -11.4383  -19.0531   22.5071 C.3     1  UNL1        0.0724
@<TRIPOS>BOND
     1    11    12    1
     2    12    13    1
     3    12    10    1
     4    10     9    1
     5     9     8    1
     6     8     7    1
     7     7     1    1
     8     1     2   ar
     9     2     3   ar
    10     3     4   ar
    11     4    14    1
    12    14    15    1
    13    15    16    1
    14    16    17    1
    15    17    18    1
    16    18    19    1
    17    19    20    1
    18     4     5   ar
    19     5     6   ar
    20     6     1   ar
    21    20    15    1
@<TRIPOS>MOLECULE
*****
 20 21 0 0 0
SMALL
GASTEIGER

@<TRIPOS>ATOM
      1 C          -9.1367  -18.8920   20.5063 C.ar    1  UNL1        0.1385
      2 C          -8.1599  -19.6403   19.6485 C.ar    1  UNL1        0.0366
      3 C          -6.7544  -19.8562   20.1258 C.ar    1  UNL1        0.0002
      4 C          -6.3256  -19.3237   21.4609 C.ar    1  UNL1       -0.0059
      5 C          -7.3024  -18.5753   22.3187 C.ar    1  UNL1        0.0002
      6 C          -8.7080  -18.3595   21.8414 C.ar    1  UNL1        0.0366
      7 O         -10.5423  -18.6762   20.0290 O.3     1  UNL1       -0.4754
      8 C         -11.1338  -17.2978   20.0370 C.3     1  UNL1        0.2068
      9 C         -12.0232  -16.8699   21.1666 C.3     1  UNL1        0.0646
     10 C         -12.9176  -17.8701   21.8372 C.3     1  UNL1        0.0760
     11 C         -14.0933  -18.0734   24.1451 C.3     1  UNL1        0.0897
     12 N         -12.8394  -18.0694   23.3218 N.3     1  UNL1       -0.2702
     13 C         -11.5073  -18.2647   23.9832 C.3     1  UNL1        0.0897
     14 C          -4.9201  -19.5395   21.9382 C.3     1  UNL1        0.0991
     15 N          -3.8417  -18.5682   21.5590 N.3     1  UNL1       -0.2690
     16 C          -3.2603  -18.5952   20.1765 C.3     1  UNL1        0.0724
     17 C          -2.1820  -17.6239   19.7973 C.3     1  UNL1        0.0174
     18 C          -1.6851  -16.6256   20.8005 C.3     1  UNL1        0.0029
     19 C          -2.2665  -16.5986   22.1830 C.3     1  UNL1        0.0174
     20 C          -3.3448  -17.5699   22.5623 C.3     1  UNL1        0.0724
@<TRIPOS>BOND
     1    11    12    1
     2    12    13    1
     3    12    10    1
     4    10     9    1
     5     9     8    1
     6     8     7    1
     7     7     1    1
     8     1     2   ar
     9     2     3   ar
    10     3     4   ar
    11     4    14    1
    12    14    15    1
    13    15    16    1
    14    16    17    1
    15    17    18    1
    16    18    19    1
    17    19    20    1
    18     4     5   ar
    19     5     6   ar
    20     6     1   ar
    21    20    15    1
@<TRIPOS>MOLECULE
*****
 20 21 0 0 0
SMALL
GASTEIGER

@<TRIPOS>ATOM
      1 C          -8.1228  -16.5039   23.2973 C.ar    1  UNL1        0.1385
      2 C          -7.8397  -17.7793   22.5604 C.ar    1  UNL1        0.0366
      3 C          -6.4337  -18.2926   22.4623 C.ar    1  UNL1        0.0002
      4 C          -5.3107  -17.5305   23.1012 C.ar    1  UNL1       -0.0059
      5 C          -5.5938  -16.2551   23.8381 C.ar    1  UNL1        0.0002
      6 C          -6.9998  -15.7418   23.9362 C.ar    1  UNL1        0.0366
      7 O          -9.5288  -15.9905   23.3954 O.3     1  UNL1       -0.4754
      8 C         -10.6841  -16.9377   23.2611 C.3     1  UNL1        0.2068
      9 C         -11.9764  -16.4645   22.6643 C.3     1  UNL1        0.0646
     10 C         -12.4979  -17.0963   21.4077 C.3     1  UNL1        0.0760
     11 C         -10.8824  -18.2070   19.7029 C.3     1  UNL1        0.0897
     12 N         -11.6944  -17.0251   20.1431 N.3     1  UNL1       -0.2702
     13 C         -11.7028  -15.7719   19.3187 C.3     1  UNL1        0.0897
     14 C          -3.9047  -18.0439   23.0031 C.3     1  UNL1        0.0991
     15 N          -3.1567  -17.9391   21.7072 N.3     1  UNL1       -0.2690
     16 C          -2.0610  -16.9262   21.5534 C.3     1  UNL1        0.0724
     17 C          -1.3130  -16.8214   20.2575 C.3     1  UNL1        0.0174
     18 C          -1.6607  -17.7295   19.1153 C.3     1  UNL1        0.0029
     19 C          -2.7563  -18.7423   19.2690 C.3     1  UNL1        0.0174
     20 C          -3.5044  -18.8471   20.5650 C.3     1  UNL1        0.0724
@<TRIPOS>BOND
     1    11    12    1
     2    12    13    1
     3    12    10    1
     4    10     9    1
     5     9     8    1
     6     8     7    1
     7     7     1    1
     8     1     2   ar
     9     2     3   ar
    10     3     4   ar
    11     4    14    1
    12    14    15    1
    13    15    16    1
    14    16    17    1
    15    17    18    1
    16    18    19    1
    17    19    20    1
    18     4     5   ar
    19     5     6   ar
    20     6     1   ar
    21    20    15    1
@<TRIPOS>MOLECULE
*****
 20 21 0 0 0
SMALL
GASTEIGER

@<TRIPOS>ATOM
      1 C          -6.1827  -19.7568   20.9157 C.ar    1  UNL1        0.1385
      2 C          -7.5629  -19.6140   20.3459 C.ar    1  UNL1        0.0366
      3 C          -8.5144  -18.6108   20.9276 C.ar    1  UNL1        0.0002
      4 C          -8.0857  -17.7504   22.0791 C.ar    1  UNL1       -0.0059
      5 C          -6.7055  -17.8932   22.6489 C.ar    1  UNL1        0.0002
      6 C          -5.7540  -18.8964   22.0672 C.ar    1  UNL1        0.0366
      7 O          -5.2313  -20.7600   20.3340 O.3     1  UNL1       -0.4754
      8 C          -3.8654  -20.3281   19.8894 C.3     1  UNL1        0.2068
      9 C          -2.8207  -19.9788   20.9075 C.3     1  UNL1        0.0646
     10 C          -1.7372  -18.9997   20.5648 C.3     1  UNL1        0.0760
     11 C          -2.5167  -17.2343   18.8255 C.3     1  UNL1        0.0897
     12 N          -2.0883  -17.5827   20.2201 N.3     1  UNL1       -0.2702
     13 C          -2.0111  -16.5142   21.2700 C.3     1  UNL1        0.0897
     14 C          -9.0371  -16.7472   22.6607 C.3     1  UNL1        0.0991
     15 N         -10.4331  -17.1597   23.0228 N.3     1  UNL1       -0.2690
     16 C         -10.6565  -18.2273   24.0526 C.3     1  UNL1        0.0724
     17 C         -12.0524  -18.6398   24.4146 C.3     1  UNL1        0.0174
     18 C         -13.2250  -17.9847   23.7469 C.3     1  UNL1        0.0029
     19 C         -13.0017  -16.9172   22.7172 C.3     1  UNL1        0.0174
     20 C         -11.6057  -16.5047   22.3551 C.3     1  UNL1        0.0724
@<TRIPOS>BOND
     1    11    12    1
     2    12    13    1
     3    12    10    1
     4    10     9    1
     5     9     8    1
     6     8     7    1
     7     7     1    1
     8     1     2   ar
     9     2     3   ar
    10     3     4   ar
    11     4    14    1
    12    14    15    1
    13    15    16    1
    14    16    17    1
    15    17    18    1
    16    18    19    1
    17    19    20    1
    18     4     5   ar
    19     5     6   ar
    20     6     1   ar
    21    20    15    1
@<TRIPOS>MOLECULE
*****
 20 21 0 0 0
SMALL
GASTEIGER

@<TRIPOS>ATOM
      1 C          -5.6107  -19.9895   20.5159 C.ar    1  UNL1        0.1385
      2 C          -6.6206  -18.9543   20.1182 C.ar    1  UNL1        0.0366
      3 C          -7.8388  -18.7309   20.9644 C.ar    1  UNL1        0.0002
      4 C          -8.0471  -19.5428   22.2083 C.ar    1  UNL1       -0.0059
      5 C          -7.0372  -20.5781   22.6061 C.ar    1  UNL1        0.0002
      6 C          -5.8190  -20.8014   21.7599 C.ar    1  UNL1        0.0366
      7 O          -4.3925  -20.2129   19.6697 O.3     1  UNL1       -0.4754
      8 C          -3.4103  -19.0987   19.4601 C.3     1  UNL1        0.2068
      9 C          -2.1550  -19.0414   20.2793 C.3     1  UNL1        0.0646
     10 C          -2.2379  -18.8783   21.7682 C.3     1  UNL1        0.0760
     11 C          -3.9803  -17.7302   23.3160 C.3     1  UNL1        0.0897
     12 N          -2.8334  -17.6325   22.3542 N.3     1  UNL1       -0.2702
     13 C          -2.2820  -16.2891   21.9784 C.3     1  UNL1        0.0897
     14 C          -9.2653  -19.3195   23.0545 C.3     1  UNL1        0.0991
     15 N         -10.3298  -18.3655   22.5998 N.3     1  UNL1       -0.2690
     16 C         -10.3346  -16.9521   23.1023 C.3     1  UNL1        0.0724
     17 C         -11.3991  -15.9981   22.6476 C.3     1  UNL1        0.0174
     18 C         -12.4587  -16.4574   21.6903 C.3     1  UNL1        0.0029
     19 C         -12.4539  -17.8707   21.1879 C.3     1  UNL1        0.0174
     20 C         -11.3894  -18.8248   21.6426 C.3     1  UNL1        0.0724
@<TRIPOS>BOND
     1    11    12    1
     2    12    13    1
     3    12    10    1
     4    10     9    1
     5     9     8    1
     6     8     7    1
     7     7     1    1
     8     1     2   ar
     9     2     3   ar
    10     3     4   ar
    11     4    14    1
    12    14    15    1
    13    15    16    1
    14    16    17    1
    15    17    18    1
    16    18    19    1
    17    19    20    1
    18     4     5   ar
    19     5     6   ar
    20     6     1   ar
    21    20    15    1
@<TRIPOS>MOLECULE
*****
 20 21 0 0 0
SMALL
GASTEIGER

@<TRIPOS>ATOM
      1 C          -7.8526  -17.6956   22.8659 C.ar    1  UNL1        0.1385
      2 C          -7.7976  -19.0559   22.2363 C.ar    1  UNL1        0.0366
      3 C          -6.4720  -19.7004   21.9579 C.ar    1  UNL1        0.0002
      4 C          -5.2015  -18.9846   22.3091 C.ar    1  UNL1       -0.0059
      5 C          -5.2566  -17.6242   22.9386 C.ar    1  UNL1        0.0002
      6 C          -6.5821  -16.9797   23.2170 C.ar    1  UNL1        0.0366
      7 O          -9.1782  -17.0510   23.1442 O.3     1  UNL1       -0.4754
      8 C          -9.8681  -17.2904   24.4544 C.3     1  UNL1        0.2068
      9 C         -10.5522  -18.5999   24.7136 C.3     1  UNL1        0.0646
     10 C         -11.5266  -19.1479   23.7135 C.3     1  UNL1        0.0760
     11 C         -12.5083  -17.6339   21.8442 C.3     1  UNL1        0.0897
     12 N         -12.6336  -18.2804   23.1919 N.3     1  UNL1       -0.2702
     13 C         -13.8660  -18.0595   24.0180 C.3     1  UNL1        0.0897
     14 C          -3.8759  -19.6291   22.0307 C.3     1  UNL1        0.0991
     15 N          -2.9326  -19.0081   21.0436 N.3     1  UNL1       -0.2690
     16 C          -1.6566  -18.3789   21.5191 C.3     1  UNL1        0.0724
     17 C          -0.7133  -17.7579   20.5320 C.3     1  UNL1        0.0174
     18 C          -1.0458  -17.7661   19.0694 C.3     1  UNL1        0.0029
     19 C          -2.3217  -18.3952   18.5938 C.3     1  UNL1        0.0174
     20 C          -3.2652  -19.0163   19.5809 C.3     1  UNL1        0.0724
@<TRIPOS>BOND
     1    11    12    1
     2    12    13    1
     3    12    10    1
     4    10     9    1
     5     9     8    1
     6     8     7    1
     7     7     1    1
     8     1     2   ar
     9     2     3   ar
    10     3     4   ar
    11     4    14    1
    12    14    15    1
    13    15    16    1
    14    16    17    1
    15    17    18    1
    16    18    19    1
    17    19    20    1
    18     4     5   ar
    19     5     6   ar
    20     6     1   ar
    21    20    15    1
