@<TRIPOS>MOLECULE
*****
 23 25 0 0 0
SMALL
GASTEIGER

@<TRIPOS>ATOM
      1 N          -5.3382  -18.9132   22.0560 N.ar    1  UNL1       -0.2432
      2 C          -6.7878  -19.2985   22.0730 C.ar    1  UNL1        0.0971
      3 C          -7.5510  -18.2016   22.7543 C.ar    1  UNL1        0.0396
      4 C          -6.5731  -17.1384   23.1584 C.ar    1  UNL1        0.1216
      5 N          -5.2055  -17.5781   22.7269 N.ar    1  UNL1       -0.1673
      6 C          -9.0321  -18.1729   22.9901 C.ar    1  UNL1        0.0030
      7 C          -9.6211  -18.9163   24.1521 C.ar    1  UNL1        0.0010
      8 C         -11.1021  -18.8875   24.3879 C.ar    1  UNL1        0.0113
      9 C         -11.9942  -18.1155   23.4616 C.ar    1  UNL1        0.0616
     10 CL        -13.4754  -18.0868   23.6974 Cl      1  UNL1       -0.0823
     11 C         -11.4052  -17.3721   22.2995 C.ar    1  UNL1        0.0820
     12 C          -9.9242  -17.4008   22.0637 C.ar    1  UNL1        0.0048
     13 C         -12.2973  -16.6000   21.3732 C.3     1  UNL1        0.4194
     14 F         -13.1894  -15.8279   20.4468 F       1  UNL1       -0.1658
     15 F         -12.2067  -17.7060   20.3640 F       1  UNL1       -0.1658
     16 F         -12.3880  -15.4940   22.3823 F       1  UNL1       -0.1658
     17 C          -4.2179  -19.7211   21.4709 C.3     1  UNL1        0.1746
     18 C           0.4421  -17.7165   20.0058 C.3     1  UNL1        0.1537
     19 N          -1.0016  -18.1237   19.9983 N.ar    1  UNL1       -0.2476
     20 C          -1.9790  -17.8860   18.8855 C.ar    1  UNL1        0.0964
     21 C          -3.3027  -18.4555   19.3017 C.ar    1  UNL1        0.0387
     22 C          -3.1436  -19.0451   20.6717 C.ar    1  UNL1        0.1047
     23 N          -1.7214  -18.8401   21.1023 N.ar    1  UNL1       -0.1716
@<TRIPOS>BOND
     1    18    19    1
     2    19    20   ar
     3    20    21   ar
     4    21    22   ar
     5    22    17    1
     6    17     1    1
     7     1     2   ar
     8     2     3   ar
     9     3     6    1
    10     6     7   ar
    11     7     8   ar
    12     8     9   ar
    13     9    10    1
    14     9    11   ar
    15    11    13    1
    16    13    14    1
    17    13    15    1
    18    13    16    1
    19    11    12   ar
    20     3     4   ar
    21     4     5   ar
    22    22    23   ar
    23    23    19   ar
    24     5     1   ar
    25    12     6   ar
@<TRIPOS>MOLECULE
*****
 23 25 0 0 0
SMALL
GASTEIGER

@<TRIPOS>ATOM
      1 N          -4.9214  -16.8171   23.6007 N.ar    1  UNL1       -0.2432
      2 C          -6.1206  -17.4637   22.9733 C.ar    1  UNL1        0.0971
      3 C          -7.3284  -16.6519   23.3370 C.ar    1  UNL1        0.0396
      4 C          -6.8755  -15.5035   24.1892 C.ar    1  UNL1        0.1216
      5 N          -5.3879  -15.6056   24.3522 N.ar    1  UNL1       -0.1673
      6 C          -8.7410  -16.9381   22.9214 C.ar    1  UNL1        0.0030
      7 C          -9.8836  -16.4462   23.7595 C.ar    1  UNL1        0.0010
      8 C         -11.2961  -16.7325   23.3439 C.ar    1  UNL1        0.0113
      9 C         -11.5661  -17.5106   22.0903 C.ar    1  UNL1        0.0616
     10 CL        -12.9787  -17.7969   21.6747 Cl      1  UNL1       -0.0823
     11 C         -10.4235  -18.0026   21.2522 C.ar    1  UNL1        0.0820
     12 C          -9.0109  -17.7163   21.6678 C.ar    1  UNL1        0.0048
     13 C         -10.6934  -18.7807   19.9986 C.3     1  UNL1        0.4194
     14 F         -10.9633  -19.5589   18.7450 F       1  UNL1       -0.1658
     15 F         -10.4949  -20.0627   20.7516 F       1  UNL1       -0.1658
     16 F         -10.8919  -17.4987   19.2456 F       1  UNL1       -0.1658
     17 C          -3.5043  -17.2976   23.4952 C.3     1  UNL1        0.1746
     18 C          -1.7419  -17.7673   18.5400 C.3     1  UNL1        0.1537
     19 N          -2.1951  -18.1005   19.9305 N.ar    1  UNL1       -0.2476
     20 C          -2.2794  -19.4751   20.5248 C.ar    1  UNL1        0.0964
     21 C          -2.7801  -19.3417   21.9324 C.ar    1  UNL1        0.0387
     22 C          -3.0053  -17.8846   22.2082 C.ar    1  UNL1        0.1047
     23 N          -2.6438  -17.1174   20.9709 N.ar    1  UNL1       -0.1716
@<TRIPOS>BOND
     1    18    19    1
     2    19    20   ar
     3    20    21   ar
     4    21    22   ar
     5    22    17    1
     6    17     1    1
     7     1     2   ar
     8     2     3   ar
     9     3     6    1
    10     6     7   ar
    11     7     8   ar
    12     8     9   ar
    13     9    10    1
    14     9    11   ar
    15    11    13    1
    16    13    14    1
    17    13    15    1
    18    13    16    1
    19    11    12   ar
    20     3     4   ar
    21     4     5   ar
    22    22    23   ar
    23    23    19   ar
    24     5     1   ar
    25    12     6   ar
@<TRIPOS>MOLECULE
*****
 23 25 0 0 0
SMALL
GASTEIGER

@<TRIPOS>ATOM
      1 N          -4.8533  -19.9329   21.2155 N.ar    1  UNL1       -0.2432
      2 C          -6.0773  -19.1699   21.6273 C.ar    1  UNL1        0.0971
      3 C          -7.2500  -19.7395   20.8854 C.ar    1  UNL1        0.0396
      4 C          -6.7507  -20.8545   20.0151 C.ar    1  UNL1        0.1216
      5 N          -5.2694  -20.9741   20.2191 N.ar    1  UNL1       -0.1673
      6 C          -8.6723  -19.2755   20.9946 C.ar    1  UNL1        0.0030
      7 C          -9.4341  -18.8954   19.7597 C.ar    1  UNL1        0.0010
      8 C         -10.8563  -18.4314   19.8690 C.ar    1  UNL1        0.0113
      9 C         -11.5167  -18.3476   21.2131 C.ar    1  UNL1        0.0616
     10 CL        -12.9390  -17.8836   21.3224 Cl      1  UNL1       -0.0823
     11 C         -10.7549  -18.7277   22.4481 C.ar    1  UNL1        0.0820
     12 C          -9.3327  -19.1917   22.3388 C.ar    1  UNL1        0.0048
     13 C         -11.4153  -18.6439   23.7923 C.3     1  UNL1        0.4194
     14 F         -12.0757  -18.5601   25.1364 F       1  UNL1       -0.1658
     15 F         -11.6229  -20.1294   23.7829 F       1  UNL1       -0.1658
     16 F         -11.2077  -17.1584   23.8016 F       1  UNL1       -0.1658
     17 C          -3.4580  -19.6963   21.7128 C.3     1  UNL1        0.1746
     18 C           0.9621  -17.3499   20.0283 C.3     1  UNL1        0.1537
     19 N          -0.4388  -17.8833   20.0809 N.ar    1  UNL1       -0.2476
     20 C          -1.4633  -17.7799   18.9901 C.ar    1  UNL1        0.0964
     21 C          -2.7189  -18.4464   19.4686 C.ar    1  UNL1        0.0387
     22 C          -2.4706  -18.9618   20.8552 C.ar    1  UNL1        0.1047
     23 N          -1.0615  -18.6138   21.2336 N.ar    1  UNL1       -0.1716
@<TRIPOS>BOND
     1    18    19    1
     2    19    20   ar
     3    20    21   ar
     4    21    22   ar
     5    22    17    1
     6    17     1    1
     7     1     2   ar
     8     2     3   ar
     9     3     6    1
    10     6     7   ar
    11     7     8   ar
    12     8     9   ar
    13     9    10    1
    14     9    11   ar
    15    11    13    1
    16    13    14    1
    17    13    15    1
    18    13    16    1
    19    11    12   ar
    20     3     4   ar
    21     4     5   ar
    22    22    23   ar
    23    23    19   ar
    24     5     1   ar
    25    12     6   ar
@<TRIPOS>MOLECULE
*****
 23 25 0 0 0
SMALL
GASTEIGER

@<TRIPOS>ATOM
      1 N          -5.8430  -20.0637   20.5187 N.ar    1  UNL1       -0.2432
      2 C          -6.6702  -19.9369   21.7636 C.ar    1  UNL1        0.0971
      3 C          -8.0663  -19.5687   21.3570 C.ar    1  UNL1        0.0396
      4 C          -8.1019  -19.4679   19.8608 C.ar    1  UNL1        0.1216
      5 N          -6.7279  -19.7738   19.3427 N.ar    1  UNL1       -0.1673
      6 C          -9.2236  -19.3413   22.2838 C.ar    1  UNL1        0.0030
      7 C          -9.4355  -20.2521   23.4565 C.ar    1  UNL1        0.0010
      8 C         -10.5928  -20.0246   24.3833 C.ar    1  UNL1        0.0113
      9 C         -11.5381  -18.8863   24.1373 C.ar    1  UNL1        0.0616
     10 CL        -12.6954  -18.6588   25.0642 Cl      1  UNL1       -0.0823
     11 C         -11.3262  -17.9754   22.9646 C.ar    1  UNL1        0.0820
     12 C         -10.1689  -18.2029   22.0378 C.ar    1  UNL1        0.0048
     13 C         -12.2715  -16.8371   22.7186 C.3     1  UNL1        0.4194
     14 F         -13.2169  -15.6987   22.4726 F       1  UNL1       -0.1658
     15 F         -11.2535  -15.8755   23.2563 F       1  UNL1       -0.1658
     16 F         -13.2895  -17.7986   22.1810 F       1  UNL1       -0.1658
     17 C          -4.3866  -20.4181   20.4601 C.3     1  UNL1        0.1746
     18 C          -2.0248  -15.8986   21.8302 C.3     1  UNL1        0.1537
     19 N          -2.2618  -17.2776   21.2897 N.ar    1  UNL1       -0.2476
     20 C          -1.2348  -18.1606   20.6450 C.ar    1  UNL1        0.0964
     21 C          -1.9057  -19.4444   20.2558 C.ar    1  UNL1        0.0387
     22 C          -3.3474  -19.3550   20.6599 C.ar    1  UNL1        0.1047
     23 N          -3.5676  -18.0159   21.2989 N.ar    1  UNL1       -0.1716
@<TRIPOS>BOND
     1    18    19    1
     2    19    20   ar
     3    20    21   ar
     4    21    22   ar
     5    22    17    1
     6    17     1    1
     7     1     2   ar
     8     2     3   ar
     9     3     6    1
    10     6     7   ar
    11     7     8   ar
    12     8     9   ar
    13     9    10    1
    14     9    11   ar
    15    11    13    1
    16    13    14    1
    17    13    15    1
    18    13    16    1
    19    11    12   ar
    20     3     4   ar
    21     4     5   ar
    22    22    23   ar
    23    23    19   ar
    24     5     1   ar
    25    12     6   ar
@<TRIPOS>MOLECULE
*****
 23 25 0 0 0
SMALL
GASTEIGER

@<TRIPOS>ATOM
      1 N          -7.4414  -15.8821   24.7317 N.ar    1  UNL1       -0.2432
      2 C          -6.7365  -16.4322   23.5273 C.ar    1  UNL1        0.0971
      3 C          -5.2602  -16.3684   23.7849 C.ar    1  UNL1        0.0396
      4 C          -5.0526  -15.7789   25.1485 C.ar    1  UNL1        0.1216
      5 N          -6.4006  -15.4783   25.7337 N.ar    1  UNL1       -0.1673
      6 C          -4.1809  -16.8156   22.8440 C.ar    1  UNL1        0.0030
      7 C          -3.0251  -15.9082   22.5428 C.ar    1  UNL1        0.0010
      8 C          -1.9458  -16.3555   21.6020 C.ar    1  UNL1        0.0113
      9 C          -2.0224  -17.7101   20.9624 C.ar    1  UNL1        0.0616
     10 CL         -0.9430  -18.1574   20.0216 Cl      1  UNL1       -0.0823
     11 C          -3.1781  -18.6175   21.2636 C.ar    1  UNL1        0.0820
     12 C          -4.2574  -18.1703   22.2044 C.ar    1  UNL1        0.0048
     13 C          -3.2547  -19.9722   20.6240 C.3     1  UNL1        0.4194
     14 F          -3.3312  -21.3268   19.9844 F       1  UNL1       -0.1658
     15 F          -4.2394  -19.4441   19.6233 F       1  UNL1       -0.1658
     16 F          -2.2699  -20.5003   21.6247 F       1  UNL1       -0.1658
     17 C          -8.9263  -15.7577   24.9039 C.3     1  UNL1        0.1746
     18 C         -12.4713  -17.7792   21.5533 C.3     1  UNL1        0.1537
     19 N         -11.4746  -17.6456   22.6663 N.ar    1  UNL1       -0.2476
     20 C         -11.0438  -18.7377   23.6000 C.ar    1  UNL1        0.0964
     21 C         -10.0368  -18.1634   24.5517 C.ar    1  UNL1        0.0387
     22 C          -9.8452  -16.7164   24.2064 C.ar    1  UNL1        0.1047
     23 N         -10.7338  -16.3963   23.0412 N.ar    1  UNL1       -0.1716
@<TRIPOS>BOND
     1    18    19    1
     2    19    20   ar
     3    20    21   ar
     4    21    22   ar
     5    22    17    1
     6    17     1    1
     7     1     2   ar
     8     2     3   ar
     9     3     6    1
    10     6     7   ar
    11     7     8   ar
    12     8     9   ar
    13     9    10    1
    14     9    11   ar
    15    11    13    1
    16    13    14    1
    17    13    15    1
    18    13    16    1
    19    11    12   ar
    20     3     4   ar
    21     4     5   ar
    22    22    23   ar
    23    23    19   ar
    24     5     1   ar
    25    12     6   ar
@<TRIPOS>MOLECULE
*****
 23 25 0 0 0
SMALL
GASTEIGER

@<TRIPOS>ATOM
      1 N          -9.9277  -18.7422   20.3963 N.ar    1  UNL1       -0.2432
      2 C          -8.6456  -18.4179   21.1041 C.ar    1  UNL1        0.0971
      3 C          -7.5354  -19.1513   20.4117 C.ar    1  UNL1        0.0396
      4 C          -8.1314  -19.9290   19.2758 C.ar    1  UNL1        0.1216
      5 N          -9.6099  -19.6762   19.2663 N.ar    1  UNL1       -0.1673
      6 C          -6.0841  -19.1138   20.7888 C.ar    1  UNL1        0.0030
      7 C          -5.6614  -19.4768   22.1815 C.ar    1  UNL1        0.0010
      8 C          -4.2101  -19.4392   22.5585 C.ar    1  UNL1        0.0113
      9 C          -3.1814  -19.0386   21.5430 C.ar    1  UNL1        0.0616
     10 CL         -1.7301  -19.0010   21.9201 Cl      1  UNL1       -0.0823
     11 C          -3.6041  -18.6756   20.1503 C.ar    1  UNL1        0.0820
     12 C          -5.0554  -18.7131   19.7732 C.ar    1  UNL1        0.0048
     13 C          -2.5754  -18.2749   19.1348 C.3     1  UNL1        0.4194
     14 F          -1.5468  -17.8743   18.1192 F       1  UNL1       -0.1658
     15 F          -2.6856  -19.6251   18.4906 F       1  UNL1       -0.1658
     16 F          -2.4652  -16.9248   19.7790 F       1  UNL1       -0.1658
     17 C         -11.2887  -18.2237   20.7553 C.3     1  UNL1        0.1746
     18 C         -14.4736  -18.1956   24.9668 C.3     1  UNL1        0.1537
     19 N         -13.2644  -18.3556   24.0936 N.ar    1  UNL1       -0.2476
     20 C         -11.9118  -18.8273   24.5385 C.ar    1  UNL1        0.0964
     21 C         -11.0071  -18.8352   23.3421 C.ar    1  UNL1        0.0387
     22 C         -11.8005  -18.3685   22.1578 C.ar    1  UNL1        0.1047
     23 N         -13.1956  -18.0721   22.6222 N.ar    1  UNL1       -0.1716
@<TRIPOS>BOND
     1    18    19    1
     2    19    20   ar
     3    20    21   ar
     4    21    22   ar
     5    22    17    1
     6    17     1    1
     7     1     2   ar
     8     2     3   ar
     9     3     6    1
    10     6     7   ar
    11     7     8   ar
    12     8     9   ar
    13     9    10    1
    14     9    11   ar
    15    11    13    1
    16    13    14    1
    17    13    15    1
    18    13    16    1
    19    11    12   ar
    20     3     4   ar
    21     4     5   ar
    22    22    23   ar
    23    23    19   ar
    24     5     1   ar
    25    12     6   ar
@<TRIPOS>MOLECULE
*****
 23 25 0 0 0
SMALL
GASTEIGER

@<TRIPOS>ATOM
      1 N          -8.0904  -19.0646   22.7244 N.ar    1  UNL1       -0.2432
      2 C          -6.9786  -18.0777   22.5246 C.ar    1  UNL1        0.0971
      3 C          -5.7760  -18.8274   22.0331 C.ar    1  UNL1        0.0396
      4 C          -6.1446  -20.2778   21.9290 C.ar    1  UNL1        0.1216
      5 N          -7.5749  -20.4244   22.3563 N.ar    1  UNL1       -0.1673
      6 C          -4.4395  -18.2315   21.7034 C.ar    1  UNL1        0.0030
      7 C          -3.6323  -17.5612   22.7753 C.ar    1  UNL1        0.0010
      8 C          -2.2958  -16.9653   22.4456 C.ar    1  UNL1        0.0113
      9 C          -1.7666  -17.0398   21.0440 C.ar    1  UNL1        0.0616
     10 CL         -0.4300  -16.4439   20.7143 Cl      1  UNL1       -0.0823
     11 C          -2.5738  -17.7101   19.9722 C.ar    1  UNL1        0.0820
     12 C          -3.9103  -18.3060   20.3018 C.ar    1  UNL1        0.0048
     13 C          -2.0446  -17.7846   18.5706 C.3     1  UNL1        0.4194
     14 F          -1.5154  -17.8591   17.1690 F       1  UNL1       -0.1658
     15 F          -0.9754  -18.7336   19.0247 F       1  UNL1       -0.1658
     16 F          -3.1138  -16.8356   18.1164 F       1  UNL1       -0.1658
     17 C          -9.4747  -18.7475   23.2075 C.3     1  UNL1        0.1746
     18 C         -11.5067  -15.7391   19.3733 C.3     1  UNL1        0.1537
     19 N         -11.3847  -16.6849   20.5311 N.ar    1  UNL1       -0.2476
     20 C         -12.5203  -17.3585   21.2429 C.ar    1  UNL1        0.0964
     21 C         -11.9431  -18.2131   22.3320 C.ar    1  UNL1        0.0387
     22 C         -10.4506  -18.0678   22.2935 C.ar    1  UNL1        0.1047
     23 N         -10.1055  -17.1233   21.1804 N.ar    1  UNL1       -0.1716
@<TRIPOS>BOND
     1    18    19    1
     2    19    20   ar
     3    20    21   ar
     4    21    22   ar
     5    22    17    1
     6    17     1    1
     7     1     2   ar
     8     2     3   ar
     9     3     6    1
    10     6     7   ar
    11     7     8   ar
    12     8     9   ar
    13     9    10    1
    14     9    11   ar
    15    11    13    1
    16    13    14    1
    17    13    15    1
    18    13    16    1
    19    11    12   ar
    20     3     4   ar
    21     4     5   ar
    22    22    23   ar
    23    23    19   ar
    24     5     1   ar
    25    12     6   ar
@<TRIPOS>MOLECULE
*****
 23 25 0 0 0
SMALL
GASTEIGER

@<TRIPOS>ATOM
      1 N          -8.9416  -18.7909   23.1229 N.ar    1  UNL1       -0.2432
      2 C          -7.6938  -18.2441   22.4953 C.ar    1  UNL1        0.0971
      3 C          -6.7618  -19.3915   22.2409 C.ar    1  UNL1        0.0396
      4 C          -7.4335  -20.6475   22.7113 C.ar    1  UNL1        0.1216
      5 N          -8.7808  -20.2763   23.2565 N.ar    1  UNL1       -0.1673
      6 C          -5.3974  -19.2992   21.6243 C.ar    1  UNL1        0.0030
      7 C          -4.9396  -20.3488   20.6555 C.ar    1  UNL1        0.0010
      8 C          -3.5753  -20.2564   20.0390 C.ar    1  UNL1        0.0113
      9 C          -2.6689  -19.1144   20.3912 C.ar    1  UNL1        0.0616
     10 CL         -1.3045  -19.0221   19.7747 Cl      1  UNL1       -0.0823
     11 C          -3.1266  -18.0648   21.3601 C.ar    1  UNL1        0.0820
     12 C          -4.4909  -18.1572   21.9766 C.ar    1  UNL1        0.0048
     13 C          -2.2202  -16.9228   21.7124 C.3     1  UNL1        0.4194
     14 F          -1.3137  -15.7808   22.0646 F       1  UNL1       -0.1658
     15 F          -2.4227  -16.3402   20.3450 F       1  UNL1       -0.1658
     16 F          -2.0177  -17.5053   23.0797 F       1  UNL1       -0.1658
     17 C         -10.1400  -17.9926   23.5432 C.3     1  UNL1        0.1746
     18 C         -11.7797  -15.5884   19.1373 C.3     1  UNL1        0.1537
     19 N         -11.7736  -16.2535   20.4818 N.ar    1  UNL1       -0.2476
     20 C         -12.9742  -16.5124   21.3430 C.ar    1  UNL1        0.0964
     21 C         -12.5084  -17.1954   22.5945 C.ar    1  UNL1        0.0387
     22 C         -11.0199  -17.3586   22.5070 C.ar    1  UNL1        0.1047
     23 N         -10.5657  -16.7765   21.2013 N.ar    1  UNL1       -0.1716
@<TRIPOS>BOND
     1    18    19    1
     2    19    20   ar
     3    20    21   ar
     4    21    22   ar
     5    22    17    1
     6    17     1    1
     7     1     2   ar
     8     2     3   ar
     9     3     6    1
    10     6     7   ar
    11     7     8   ar
    12     8     9   ar
    13     9    10    1
    14     9    11   ar
    15    11    13    1
    16    13    14    1
    17    13    15    1
    18    13    16    1
    19    11    12   ar
    20     3     4   ar
    21     4     5   ar
    22    22    23   ar
    23    23    19   ar
    24     5     1   ar
    25    12     6   ar
@<TRIPOS>MOLECULE
*****
 23 25 0 0 0
SMALL
GASTEIGER

@<TRIPOS>ATOM
      1 N          -8.3447  -19.5696   20.7928 N.ar    1  UNL1       -0.2432
      2 C          -7.0857  -19.0281   20.1830 C.ar    1  UNL1        0.0971
      3 C          -5.9612  -19.2762   21.1441 C.ar    1  UNL1        0.0396
      4 C          -6.5251  -19.9711   22.3480 C.ar    1  UNL1        0.1216
      5 N          -7.9981  -20.1525   22.1309 N.ar    1  UNL1       -0.1673
      6 C          -4.5248  -18.8962   20.9377 C.ar    1  UNL1        0.0030
      7 C          -3.5511  -18.9987   22.0741 C.ar    1  UNL1        0.0010
      8 C          -2.1149  -18.6187   21.8676 C.ar    1  UNL1        0.0113
      9 C          -1.6523  -18.1362   20.5248 C.ar    1  UNL1        0.0616
     10 CL         -0.2159  -17.7561   20.3183 Cl      1  UNL1       -0.0823
     11 C          -2.6260  -18.0337   19.3884 C.ar    1  UNL1        0.0820
     12 C          -4.0622  -18.4137   19.5949 C.ar    1  UNL1        0.0048
     13 C          -2.1634  -17.5511   18.0456 C.3     1  UNL1        0.4194
     14 F          -1.7008  -17.0686   16.7027 F       1  UNL1       -0.1658
     15 F          -3.3103  -16.5855   17.9975 F       1  UNL1       -0.1658
     16 F          -1.0166  -18.5168   18.0936 F       1  UNL1       -0.1658
     17 C          -9.7103  -19.5345   20.1734 C.3     1  UNL1        0.1746
     18 C         -13.3763  -17.8792   23.5941 C.3     1  UNL1        0.1537
     19 N         -12.4899  -17.9736   22.3877 N.ar    1  UNL1       -0.2476
     20 C         -12.4880  -17.0333   21.2191 C.ar    1  UNL1        0.0964
     21 C         -11.4466  -17.5035   20.2474 C.ar    1  UNL1        0.0387
     22 C         -10.8048  -18.7345   20.8154 C.ar    1  UNL1        0.1047
     23 N         -11.4495  -19.0251   22.1382 N.ar    1  UNL1       -0.1716
@<TRIPOS>BOND
     1    18    19    1
     2    19    20   ar
     3    20    21   ar
     4    21    22   ar
     5    22    17    1
     6    17     1    1
     7     1     2   ar
     8     2     3   ar
     9     3     6    1
    10     6     7   ar
    11     7     8   ar
    12     8     9   ar
    13     9    10    1
    14     9    11   ar
    15    11    13    1
    16    13    14    1
    17    13    15    1
    18    13    16    1
    19    11    12   ar
    20     3     4   ar
    21     4     5   ar
    22    22    23   ar
    23    23    19   ar
    24     5     1   ar
    25    12     6   ar
