@<TRIPOS>MOLECULE
*****
 44 48 0 0 0
SMALL
GASTEIGER

@<TRIPOS>ATOM
      1 C           2.8421    0.4986   21.8416 C.3     1  UNL1        0.0777
      2 C           4.2907    0.2059   22.0984 C.3     1  UNL1        0.0412
      3 C           5.0029   -0.8302   21.2803 C.3     1  UNL1        0.0951
      4 N           4.2666   -1.5735   20.2055 N.am    1  UNL1       -0.2794
      5 C           4.9789   -2.6096   19.3874 C.2     1  UNL1        0.2253
      6 O           4.2426   -3.3530   18.3126 O.2     1  UNL1       -0.2749
      7 C           2.8180   -1.2808   19.9488 C.3     1  UNL1        0.0964
      8 C           2.1058   -0.2448   20.7668 C.3     1  UNL1        0.0539
      9 N           1.0115    2.2633   24.8887 N.am    1  UNL1       -0.2485
     10 C           1.7237    1.2273   24.0706 C.2     1  UNL1        0.3058
     11 O           2.0300   -0.1162   24.6634 O.2     1  UNL1       -0.2524
     12 N           2.1298    1.5347   22.6597 N.am    1  UNL1       -0.2901
     13 H           0.8105    3.1450   24.4996 H       1  UNL1        0.1583
     14 H           1.9288    2.4164   22.2706 H       1  UNL1        0.1509
     15 C           0.5453    1.9057   28.7254 C.ar    1  UNL1        0.0803
     16 S           1.2804    2.4593   27.5409 S.2     1  UNL1       -0.0488
     17 C           0.6054    1.9559   26.2996 C.ar    1  UNL1        0.1664
     18 N          -0.5470    1.0911   26.7169 N.ar    1  UNL1       -0.2282
     19 C          -0.5842    1.0601   28.2162 C.ar    1  UNL1        0.0701
     20 C          -1.5765    0.3144   29.0582 C.3     1  UNL1        0.0528
     21 C           0.8149    3.5456   30.7224 C.3     1  UNL1        0.0779
     22 C           0.8806    2.1541   30.1662 C.2     1  UNL1        0.1807
     23 O           1.2817    1.0111   31.0507 O.2     1  UNL1       -0.2908
     24 C           6.4274   -2.9023   19.6442 C.3     1  UNL1        0.0817
     25 C           7.4877   -2.1836   18.8636 C.3     1  UNL1        0.0412
     26 C           8.9363   -2.4763   19.1204 C.3     1  UNL1        0.1427
     27 O           9.3246   -3.4877   20.1578 O.3     1  UNL1       -0.3538
     28 C           8.2644   -4.2065   20.9384 C.3     1  UNL1        0.1427
     29 C           6.8158   -3.9138   20.6816 C.3     1  UNL1        0.0412
     30 C           0.6571    0.0480   20.5101 C.3     1  UNL1        0.0754
     31 N           0.2465    1.3862   19.9712 N.3     1  UNL1       -0.2726
     32 C           0.9479    1.9609   18.7762 C.3     1  UNL1        0.0721
     33 C           0.5372    3.2992   18.2374 C.3     1  UNL1        0.0174
     34 C          -0.5748    4.0628   18.8934 C.3     1  UNL1        0.0031
     35 C          -1.2761    3.4881   20.0883 C.3     1  UNL1        0.0204
     36 C          -0.8655    2.1498   20.6272 C.3     1  UNL1        0.0724
     37 C          -2.3882    4.2517   20.7444 C.3     1  UNL1        0.0277
     38 C          -2.6745    4.0543   22.2036 C.ar    1  UNL1       -0.0220
     39 C          -1.6342    4.4041   23.2261 C.ar    1  UNL1       -0.0020
     40 C          -1.9205    4.2067   24.6852 C.ar    1  UNL1        0.0293
     41 C          -3.2472    3.6595   25.1218 C.ar    1  UNL1        0.1401
     42 F          -3.5335    3.4620   26.5809 F       1  UNL1       -0.2042
     43 C          -4.2874    3.3097   24.0993 C.ar    1  UNL1        0.0293
     44 C          -4.0011    3.5071   22.6402 C.ar    1  UNL1       -0.0020
@<TRIPOS>BOND
     1    21    22    1
     2    22    23    2
     3    22    15    1
     4    15    16   ar
     5    16    17   ar
     6    17     9    1
     7     9    10   am
     8    10    11    2
     9    10    12   am
    10     1    12    1
    11     1     2    1
    12     2     3    1
    13     3     4    1
    14     4     5   am
    15     5     6    2
    16     5    24    1
    17    24    25    1
    18    25    26    1
    19    26    27    1
    20    27    28    1
    21    28    29    1
    22     4     7    1
    23     7     8    1
    24     8    30    1
    25    30    31    1
    26    31    32    1
    27    32    33    1
    28    33    34    1
    29    34    35    1
    30    35    37    1
    31    37    38    1
    32    38    39   ar
    33    39    40   ar
    34    40    41   ar
    35    41    42    1
    36    41    43   ar
    37    43    44   ar
    38    35    36    1
    39    17    18   ar
    40    18    19   ar
    41    19    20    1
    42    19    15   ar
    43     8     1    1
    44    36    31    1
    45    29    24    1
    46    44    38   ar
    47     9    13    1
    48    12    14    1
@<TRIPOS>MOLECULE
*****
 44 48 0 0 0
SMALL
GASTEIGER

@<TRIPOS>ATOM
      1 C           4.5990    0.5237   28.9162 C.3     1  UNL1        0.0777
      2 C           5.7905   -0.3567   28.6812 C.3     1  UNL1        0.0412
      3 C           6.1742   -1.3874   29.7012 C.3     1  UNL1        0.0951
      4 N           5.3664   -1.5377   30.9562 N.am    1  UNL1       -0.2794
      5 C           5.7502   -2.5684   31.9762 C.2     1  UNL1        0.2253
      6 O           4.9424   -2.7187   33.2311 O.2     1  UNL1       -0.2749
      7 C           4.1750   -0.6573   31.1911 C.3     1  UNL1        0.0964
      8 C           3.7913    0.3734   30.1711 C.3     1  UNL1        0.0539
      9 N           3.3261    2.1566   25.5304 N.am    1  UNL1       -0.2485
     10 C           3.7098    1.1260   26.5504 C.2     1  UNL1        0.3058
     11 O           3.5881   -0.3332   26.2247 O.2     1  UNL1       -0.2524
     12 N           4.2153    1.5544   27.8961 N.am    1  UNL1       -0.2901
     13 H           3.4060    3.1143   25.7442 H       1  UNL1        0.1583
     14 H           4.2952    2.5121   28.1099 H       1  UNL1        0.1509
     15 C           1.3787    1.3839   22.2630 C.ar    1  UNL1        0.0803
     16 S           1.4490    1.9861   23.6350 S.2     1  UNL1       -0.0488
     17 C           2.8206    1.7282   24.1847 C.ar    1  UNL1        0.1664
     18 N           3.5980    0.9666   23.1524 N.ar    1  UNL1       -0.2282
     19 C           2.7069    0.7538   21.9647 C.ar    1  UNL1        0.0701
     20 C           3.0786    0.0368   20.7007 C.3     1  UNL1        0.0528
     21 C          -0.5714    2.6837   21.1417 C.3     1  UNL1        0.0779
     22 C           0.1891    1.4076   21.3496 C.2     1  UNL1        0.1807
     23 O          -0.2400    0.1554   20.6442 O.2     1  UNL1       -0.2908
     24 C           6.9416   -3.4488   31.7412 C.3     1  UNL1        0.0817
     25 C           8.3043   -2.9992   32.1783 C.3     1  UNL1        0.0412
     26 C           9.4958   -3.8797   31.9432 C.3     1  UNL1        0.1427
     27 O           9.3246   -5.2098   31.2712 O.3     1  UNL1       -0.3538
     28 C           7.9619   -5.6594   30.8342 C.3     1  UNL1        0.1427
     29 C           6.7705   -4.7790   31.0692 C.3     1  UNL1        0.0412
     30 C           2.5997    1.2539   30.4061 C.3     1  UNL1        0.0754
     31 N           1.4409    1.2173   29.4544 N.3     1  UNL1       -0.2726
     32 C           0.7528   -0.0828   29.1602 C.3     1  UNL1        0.0721
     33 C          -0.4061   -0.1194   28.2085 C.3     1  UNL1        0.0174
     34 C          -0.8769    1.1440   27.5511 C.3     1  UNL1        0.0031
     35 C          -0.1888    2.4440   27.8453 C.3     1  UNL1        0.0204
     36 C           0.9701    2.4806   28.7970 C.3     1  UNL1        0.0724
     37 C          -0.6596    3.7074   27.1878 C.3     1  UNL1        0.0277
     38 C          -1.8861    3.6916   26.3245 C.ar    1  UNL1       -0.0220
     39 C          -3.2378    3.9082   26.9378 C.ar    1  UNL1       -0.0020
     40 C          -4.4643    3.8923   26.0744 C.ar    1  UNL1        0.0293
     41 C          -4.3392    3.6598   24.5978 C.ar    1  UNL1        0.1401
     42 F          -5.5657    3.6440   23.7344 F       1  UNL1       -0.2042
     43 C          -2.9875    3.4432   23.9846 C.ar    1  UNL1        0.0293
     44 C          -1.7610    3.4591   24.8479 C.ar    1  UNL1       -0.0020
@<TRIPOS>BOND
     1    21    22    1
     2    22    23    2
     3    22    15    1
     4    15    16   ar
     5    16    17   ar
     6    17     9    1
     7     9    10   am
     8    10    11    2
     9    10    12   am
    10     1    12    1
    11     1     2    1
    12     2     3    1
    13     3     4    1
    14     4     5   am
    15     5     6    2
    16     5    24    1
    17    24    25    1
    18    25    26    1
    19    26    27    1
    20    27    28    1
    21    28    29    1
    22     4     7    1
    23     7     8    1
    24     8    30    1
    25    30    31    1
    26    31    32    1
    27    32    33    1
    28    33    34    1
    29    34    35    1
    30    35    37    1
    31    37    38    1
    32    38    39   ar
    33    39    40   ar
    34    40    41   ar
    35    41    42    1
    36    41    43   ar
    37    43    44   ar
    38    35    36    1
    39    17    18   ar
    40    18    19   ar
    41    19    20    1
    42    19    15   ar
    43     8     1    1
    44    36    31    1
    45    29    24    1
    46    44    38   ar
    47     9    13    1
    48    12    14    1
@<TRIPOS>MOLECULE
*****
 44 48 0 0 0
SMALL
GASTEIGER

@<TRIPOS>ATOM
      1 C           3.5915    0.9627   24.9999 C.3     1  UNL1        0.0777
      2 C           4.4293    0.5038   23.8434 C.3     1  UNL1        0.0412
      3 C           3.7765    0.1343   22.5445 C.3     1  UNL1        0.0951
      4 N           2.2860    0.2236   22.4020 N.am    1  UNL1       -0.2794
      5 C           1.6332   -0.1460   21.1030 C.2     1  UNL1        0.2253
      6 O           0.1426   -0.0567   20.9606 O.2     1  UNL1       -0.2749
      7 C           1.4482    0.6824   23.5585 C.3     1  UNL1        0.0964
      8 C           2.1009    1.0519   24.8575 C.3     1  UNL1        0.0539
      9 N           5.0240    0.6817   28.6903 N.am    1  UNL1       -0.2485
     10 C           4.3713    0.3122   27.3913 C.2     1  UNL1        0.3058
     11 O           3.8455   -1.0775   27.1847 O.2     1  UNL1       -0.2524
     12 N           4.2443    1.3322   26.2989 N.am    1  UNL1       -0.2901
     13 H           5.3690    1.5937   28.8259 H       1  UNL1        0.1583
     14 H           4.5893    2.2443   26.4345 H       1  UNL1        0.1509
     15 C           4.8782   -1.5081   31.8918 C.ar    1  UNL1        0.0803
     16 S           4.4680   -0.2907   31.1173 S.2     1  UNL1       -0.0488
     17 C           5.1510   -0.3384   29.7827 C.ar    1  UNL1        0.1664
     18 N           5.9833   -1.5852   29.7323 N.ar    1  UNL1       -0.2282
     19 C           5.8148   -2.3082   31.0358 C.ar    1  UNL1        0.0701
     20 C           6.4680   -3.6037   31.4164 C.3     1  UNL1        0.0528
     21 C           4.7033   -0.9259   34.4177 C.3     1  UNL1        0.0779
     22 C           4.4305   -1.8630   33.2787 C.2     1  UNL1        0.1807
     23 O           3.7100   -3.1550   33.5266 O.2     1  UNL1       -0.2908
     24 C           2.4710   -0.6048   19.9465 C.3     1  UNL1        0.0817
     25 C           2.9905   -2.0114   19.9081 C.3     1  UNL1        0.0412
     26 C           3.8283   -2.4702   18.7515 C.3     1  UNL1        0.1427
     27 O           4.1466   -1.5224   17.6334 O.3     1  UNL1       -0.3538
     28 C           3.6271   -0.1158   17.6718 C.3     1  UNL1        0.1427
     29 C           2.7893    0.3430   18.8283 C.3     1  UNL1        0.0412
     30 C           1.2632    1.5108   26.0141 C.3     1  UNL1        0.0754
     31 N           0.3652    2.7028   25.8634 N.3     1  UNL1       -0.2726
     32 C           0.9201    4.0004   25.3550 C.3     1  UNL1        0.0721
     33 C           0.0222    5.1924   25.2043 C.3     1  UNL1        0.0174
     34 C          -1.4308    5.0869   25.5620 C.3     1  UNL1        0.0031
     35 C          -1.9857    3.7893   26.0704 C.3     1  UNL1        0.0204
     36 C          -1.0877    2.5973   26.2211 C.3     1  UNL1        0.0724
     37 C          -3.4386    3.6838   26.4281 C.3     1  UNL1        0.0277
     38 C          -4.4874    3.9101   25.3799 C.ar    1  UNL1       -0.0220
     39 C          -4.3762    3.2286   24.0482 C.ar    1  UNL1       -0.0020
     40 C          -5.4250    3.4550   23.0000 C.ar    1  UNL1        0.0293
     41 C          -6.5850    4.3627   23.2835 C.ar    1  UNL1        0.1401
     42 F          -7.6339    4.5891   22.2352 F       1  UNL1       -0.2042
     43 C          -6.6963    5.0441   24.6151 C.ar    1  UNL1        0.0293
     44 C          -5.6474    4.8178   25.6633 C.ar    1  UNL1       -0.0020
@<TRIPOS>BOND
     1    21    22    1
     2    22    23    2
     3    22    15    1
     4    15    16   ar
     5    16    17   ar
     6    17     9    1
     7     9    10   am
     8    10    11    2
     9    10    12   am
    10     1    12    1
    11     1     2    1
    12     2     3    1
    13     3     4    1
    14     4     5   am
    15     5     6    2
    16     5    24    1
    17    24    25    1
    18    25    26    1
    19    26    27    1
    20    27    28    1
    21    28    29    1
    22     4     7    1
    23     7     8    1
    24     8    30    1
    25    30    31    1
    26    31    32    1
    27    32    33    1
    28    33    34    1
    29    34    35    1
    30    35    37    1
    31    37    38    1
    32    38    39   ar
    33    39    40   ar
    34    40    41   ar
    35    41    42    1
    36    41    43   ar
    37    43    44   ar
    38    35    36    1
    39    17    18   ar
    40    18    19   ar
    41    19    20    1
    42    19    15   ar
    43     8     1    1
    44    36    31    1
    45    29    24    1
    46    44    38   ar
    47     9    13    1
    48    12    14    1
@<TRIPOS>MOLECULE
*****
 44 48 0 0 0
SMALL
GASTEIGER

@<TRIPOS>ATOM
      1 C           2.0782    2.3502   20.3984 C.3     1  UNL1        0.0777
      2 C           2.3720    1.0540   21.0937 C.3     1  UNL1        0.0412
      3 C           2.9924   -0.0808   20.3340 C.3     1  UNL1        0.0951
      4 N           3.3191    0.0805   18.8790 N.am    1  UNL1       -0.2794
      5 C           3.9396   -1.0544   18.1192 C.2     1  UNL1        0.2253
      6 O           4.2663   -0.8930   16.6642 O.2     1  UNL1       -0.2749
      7 C           3.0254    1.3767   18.1836 C.3     1  UNL1        0.0964
      8 C           2.4049    2.5115   18.9433 C.3     1  UNL1        0.0539
      9 N          -0.5996    4.5421   22.3413 N.am    1  UNL1       -0.2485
     10 C           0.0209    3.4073   21.5816 C.2     1  UNL1        0.3058
     11 O          -0.7955    2.1946   21.2454 O.2     1  UNL1       -0.2524
     12 N           1.4578    3.4851   21.1581 N.am    1  UNL1       -0.2901
     13 H          -0.0637    5.3380   22.5619 H       1  UNL1        0.1583
     14 H           1.9936    4.2810   21.3787 H       1  UNL1        0.1509
     15 C          -4.4548    4.6700   22.7734 C.ar    1  UNL1        0.0803
     16 S          -3.2163    4.9451   21.9731 S.2     1  UNL1       -0.0488
     17 C          -2.0364    4.4643   22.7648 C.ar    1  UNL1        0.1664
     18 N          -2.5458    3.8921   24.0544 N.ar    1  UNL1       -0.2282
     19 C          -4.0404    4.0192   24.0597 C.ar    1  UNL1        0.0701
     20 C          -4.9592    3.5738   25.1585 C.3     1  UNL1        0.0528
     21 C          -6.1775    6.3207   21.7451 C.3     1  UNL1        0.0779
     22 C          -5.8608    4.9896   22.3599 C.2     1  UNL1        0.1807
     23 O          -6.9500    3.9782   22.5611 O.2     1  UNL1       -0.2908
     24 C           4.2333   -2.3505   18.8146 C.3     1  UNL1        0.0817
     25 C           3.1638   -3.3951   18.9371 C.3     1  UNL1        0.0412
     26 C           3.4576   -4.6914   19.6325 C.3     1  UNL1        0.1427
     27 O           4.8208   -4.9430   20.2054 O.3     1  UNL1       -0.3538
     28 C           5.8904   -3.8984   20.0829 C.3     1  UNL1        0.1427
     29 C           5.5966   -2.6022   19.3875 C.3     1  UNL1        0.0412
     30 C           2.1112    3.8078   18.2479 C.3     1  UNL1        0.0754
     31 N           0.7431    4.4159   18.3416 N.3     1  UNL1       -0.2726
     32 C           0.5559    5.7402   19.0208 C.3     1  UNL1        0.0721
     33 C          -0.8121    6.3482   19.1145 C.3     1  UNL1        0.0174
     34 C          -1.9929    5.6320   18.5288 C.3     1  UNL1        0.0031
     35 C          -1.8056    4.3078   17.8496 C.3     1  UNL1        0.0204
     36 C          -0.4376    3.6998   17.7560 C.3     1  UNL1        0.0724
     37 C          -2.9864    3.5916   17.2640 C.3     1  UNL1        0.0277
     38 C          -4.3778    4.0391   17.6012 C.ar    1  UNL1       -0.0220
     39 C          -5.0088    5.1659   16.8380 C.ar    1  UNL1       -0.0020
     40 C          -6.4003    5.6135   17.1752 C.ar    1  UNL1        0.0293
     41 C          -7.1607    4.9342   18.2754 C.ar    1  UNL1        0.1401
     42 F          -8.5521    5.3818   18.6126 F       1  UNL1       -0.2042
     43 C          -6.5297    3.8075   19.0385 C.ar    1  UNL1        0.0293
     44 C          -5.1382    3.3600   18.7014 C.ar    1  UNL1       -0.0020
@<TRIPOS>BOND
     1    21    22    1
     2    22    23    2
     3    22    15    1
     4    15    16   ar
     5    16    17   ar
     6    17     9    1
     7     9    10   am
     8    10    11    2
     9    10    12   am
    10     1    12    1
    11     1     2    1
    12     2     3    1
    13     3     4    1
    14     4     5   am
    15     5     6    2
    16     5    24    1
    17    24    25    1
    18    25    26    1
    19    26    27    1
    20    27    28    1
    21    28    29    1
    22     4     7    1
    23     7     8    1
    24     8    30    1
    25    30    31    1
    26    31    32    1
    27    32    33    1
    28    33    34    1
    29    34    35    1
    30    35    37    1
    31    37    38    1
    32    38    39   ar
    33    39    40   ar
    34    40    41   ar
    35    41    42    1
    36    41    43   ar
    37    43    44   ar
    38    35    36    1
    39    17    18   ar
    40    18    19   ar
    41    19    20    1
    42    19    15   ar
    43     8     1    1
    44    36    31    1
    45    29    24    1
    46    44    38   ar
    47     9    13    1
    48    12    14    1
@<TRIPOS>MOLECULE
*****
 44 48 0 0 0
SMALL
GASTEIGER

@<TRIPOS>ATOM
      1 C           2.3804    1.5272   25.5280 C.3     1  UNL1        0.0777
      2 C           3.3765    1.3195   26.6300 C.3     1  UNL1        0.0412
      3 C           2.9035    1.0775   28.0327 C.3     1  UNL1        0.0951
      4 N           1.4344    1.0433   28.3334 N.am    1  UNL1       -0.2794
      5 C           0.9614    0.8012   29.7363 C.2     1  UNL1        0.2253
      6 O          -0.5078    0.7670   30.0370 O.2     1  UNL1       -0.2749
      7 C           0.4382    1.2510   27.2314 C.3     1  UNL1        0.0964
      8 C           0.9112    1.4930   25.8287 C.3     1  UNL1        0.0539
      9 N           3.7792    0.8597   21.8746 N.am    1  UNL1       -0.2485
     10 C           3.3063    0.6178   23.2773 C.2     1  UNL1        0.3058
     11 O           3.2862   -0.7757   23.8322 O.2     1  UNL1       -0.2524
     12 N           2.8534    1.7693   24.1252 N.am    1  UNL1       -0.2901
     13 H           3.7924    1.7743   21.5104 H       1  UNL1        0.1583
     14 H           2.8665    2.6838   23.7610 H       1  UNL1        0.1509
     15 C           5.6130   -1.7596   19.6740 C.ar    1  UNL1        0.0803
     16 S           5.6049   -0.4765   20.4509 S.2     1  UNL1       -0.0488
     17 C           4.2321   -0.2918   21.0266 C.ar    1  UNL1        0.1664
     18 N           3.3918   -1.4608   20.6056 N.ar    1  UNL1       -0.2282
     19 C           4.2452   -2.3679   19.7696 C.ar    1  UNL1        0.0701
     20 C           3.8076   -3.6571   19.1398 C.3     1  UNL1        0.0528
     21 C           7.9277   -2.9393   19.6892 C.3     1  UNL1        0.0779
     22 C           6.7833   -2.3336   18.9319 C.2     1  UNL1        0.1807
     23 O           6.8093   -2.3018   17.4325 O.2     1  UNL1       -0.2908
     24 C           1.9575    0.5935   30.8383 C.3     1  UNL1        0.0817
     25 C           2.7791   -0.6608   30.8800 C.3     1  UNL1        0.0412
     26 C           3.7753   -0.8685   31.9821 C.3     1  UNL1        0.1427
     27 O           3.9499    0.1780   33.0424 O.3     1  UNL1       -0.3538
     28 C           3.1283    1.4323   33.0006 C.3     1  UNL1        0.1427
     29 C           2.1321    1.6400   31.8986 C.3     1  UNL1        0.0412
     30 C          -0.0849    1.7008   24.7266 C.3     1  UNL1        0.0754
     31 N          -0.0151    2.9338   23.8752 N.3     1  UNL1       -0.2726
     32 C           0.0243    4.2883   24.5186 C.3     1  UNL1        0.0721
     33 C           0.0941    5.5212   23.6672 C.3     1  UNL1        0.0174
     34 C           0.1245    5.3997   22.1723 C.3     1  UNL1        0.0031
     35 C           0.0850    4.0452   21.5290 C.3     1  UNL1        0.0204
     36 C           0.0152    2.8123   22.3805 C.3     1  UNL1        0.0724
     37 C           0.1154    3.9237   20.0342 C.3     1  UNL1        0.0277
     38 C           1.0436    2.9436   19.3801 C.ar    1  UNL1       -0.0220
     39 C           2.4659    3.3295   19.1003 C.ar    1  UNL1       -0.0020
     40 C           3.3941    2.3494   18.4462 C.ar    1  UNL1        0.0293
     41 C           2.9000    0.9834   18.0720 C.ar    1  UNL1        0.1401
     42 F           3.8282    0.0033   17.4179 F       1  UNL1       -0.2042
     43 C           1.4778    0.5976   18.3519 C.ar    1  UNL1        0.0293
     44 C           0.5496    1.5777   19.0059 C.ar    1  UNL1       -0.0020
@<TRIPOS>BOND
     1    21    22    1
     2    22    23    2
     3    22    15    1
     4    15    16   ar
     5    16    17   ar
     6    17     9    1
     7     9    10   am
     8    10    11    2
     9    10    12   am
    10     1    12    1
    11     1     2    1
    12     2     3    1
    13     3     4    1
    14     4     5   am
    15     5     6    2
    16     5    24    1
    17    24    25    1
    18    25    26    1
    19    26    27    1
    20    27    28    1
    21    28    29    1
    22     4     7    1
    23     7     8    1
    24     8    30    1
    25    30    31    1
    26    31    32    1
    27    32    33    1
    28    33    34    1
    29    34    35    1
    30    35    37    1
    31    37    38    1
    32    38    39   ar
    33    39    40   ar
    34    40    41   ar
    35    41    42    1
    36    41    43   ar
    37    43    44   ar
    38    35    36    1
    39    17    18   ar
    40    18    19   ar
    41    19    20    1
    42    19    15   ar
    43     8     1    1
    44    36    31    1
    45    29    24    1
    46    44    38   ar
    47     9    13    1
    48    12    14    1
@<TRIPOS>MOLECULE
*****
 44 48 0 0 0
SMALL
GASTEIGER

@<TRIPOS>ATOM
      1 C           3.2503   -0.3911   27.8718 C.3     1  UNL1        0.0777
      2 C           4.6871   -0.7398   28.1245 C.3     1  UNL1        0.0412
      3 C           5.1339   -1.1257   29.5034 C.3     1  UNL1        0.0951
      4 N           4.1438   -1.1629   30.6297 N.am    1  UNL1       -0.2794
      5 C           4.5906   -1.5489   32.0086 C.2     1  UNL1        0.2253
      6 O           3.6005   -1.5862   33.1348 O.2     1  UNL1       -0.2749
      7 C           2.7070   -0.8143   30.3769 C.3     1  UNL1        0.0964
      8 C           2.2602   -0.4284   28.9980 C.3     1  UNL1        0.0539
      9 N           3.0232   -0.2228   23.9133 N.am    1  UNL1       -0.2485
     10 C           3.4699   -0.6087   25.2922 C.2     1  UNL1        0.3058
     11 O           4.5832   -1.5981   25.4705 O.2     1  UNL1       -0.2524
     12 N           2.8035   -0.0052   26.4929 N.am    1  UNL1       -0.2901
     13 H           2.2925    0.4265   23.7963 H       1  UNL1        0.1583
     14 H           2.0728    0.6442   26.3759 H       1  UNL1        0.1509
     15 C           4.0433   -1.9101   20.5699 C.ar    1  UNL1        0.0803
     16 S           2.9943   -1.4320   21.5296 S.2     1  UNL1       -0.0488
     17 C           3.6896   -0.8263   22.7126 C.ar    1  UNL1        0.1664
     18 N           5.1685   -0.9301   22.4841 N.ar    1  UNL1       -0.2282
     19 C           5.3871   -1.6000   21.1599 C.ar    1  UNL1        0.0701
     20 C           6.7161   -1.9058   20.5353 C.3     1  UNL1        0.0528
     21 C           3.4093   -4.0302   19.2087 C.3     1  UNL1        0.0779
     22 C           3.7926   -2.5807   19.2518 C.2     1  UNL1        0.1807
     23 O           3.9253   -1.8018   17.9769 O.2     1  UNL1       -0.2908
     24 C           6.0275   -1.8975   32.2613 C.3     1  UNL1        0.0817
     25 C           6.9211   -0.9254   32.9729 C.3     1  UNL1        0.0412
     26 C           8.3581   -1.2741   33.2256 C.3     1  UNL1        0.1427
     27 O           8.9012   -2.5948   32.7667 O.3     1  UNL1       -0.3538
     28 C           8.0076   -3.5669   32.0551 C.3     1  UNL1        0.1427
     29 C           6.5707   -3.2183   31.8024 C.3     1  UNL1        0.0412
     30 C           0.8233   -0.0798   28.7453 C.3     1  UNL1        0.0754
     31 N           0.4627    1.2761   28.2148 N.3     1  UNL1       -0.2726
     32 C           0.9209    2.5095   28.9352 C.3     1  UNL1        0.0721
     33 C           0.5603    3.8655   28.4047 C.3     1  UNL1        0.0174
     34 C          -0.2586    3.9880   27.1538 C.3     1  UNL1        0.0031
     35 C          -0.7167    2.7547   26.4335 C.3     1  UNL1        0.0204
     36 C          -0.3561    1.3987   26.9640 C.3     1  UNL1        0.0724
     37 C          -1.5356    2.8772   25.1827 C.3     1  UNL1        0.0277
     38 C          -2.9136    3.4666   25.2432 C.ar    1  UNL1       -0.0220
     39 C          -3.4737    3.9312   26.5549 C.ar    1  UNL1       -0.0020
     40 C          -4.8518    4.5206   26.6153 C.ar    1  UNL1        0.0293
     41 C          -5.6697    4.6453   25.3641 C.ar    1  UNL1        0.1401
     42 F          -7.0478    5.2346   25.4246 F       1  UNL1       -0.2042
     43 C          -5.1096    4.1806   24.0525 C.ar    1  UNL1        0.0293
     44 C          -3.7316    3.5912   23.9920 C.ar    1  UNL1       -0.0020
@<TRIPOS>BOND
     1    21    22    1
     2    22    23    2
     3    22    15    1
     4    15    16   ar
     5    16    17   ar
     6    17     9    1
     7     9    10   am
     8    10    11    2
     9    10    12   am
    10     1    12    1
    11     1     2    1
    12     2     3    1
    13     3     4    1
    14     4     5   am
    15     5     6    2
    16     5    24    1
    17    24    25    1
    18    25    26    1
    19    26    27    1
    20    27    28    1
    21    28    29    1
    22     4     7    1
    23     7     8    1
    24     8    30    1
    25    30    31    1
    26    31    32    1
    27    32    33    1
    28    33    34    1
    29    34    35    1
    30    35    37    1
    31    37    38    1
    32    38    39   ar
    33    39    40   ar
    34    40    41   ar
    35    41    42    1
    36    41    43   ar
    37    43    44   ar
    38    35    36    1
    39    17    18   ar
    40    18    19   ar
    41    19    20    1
    42    19    15   ar
    43     8     1    1
    44    36    31    1
    45    29    24    1
    46    44    38   ar
    47     9    13    1
    48    12    14    1
@<TRIPOS>MOLECULE
*****
 44 48 0 0 0
SMALL
GASTEIGER

@<TRIPOS>ATOM
      1 C           4.3948   -1.5632   25.7303 C.3     1  UNL1        0.0777
      2 C           3.7479   -1.5111   24.3780 C.3     1  UNL1        0.0412
      3 C           4.5923   -1.3536   23.1483 C.3     1  UNL1        0.0951
      4 N           6.0835   -1.2481   23.2709 N.am    1  UNL1       -0.2794
      5 C           6.9279   -1.0905   22.0412 C.2     1  UNL1        0.2253
      6 O           8.4192   -0.9850   22.1638 O.2     1  UNL1       -0.2749
      7 C           6.7304   -1.3001   24.6233 C.3     1  UNL1        0.0964
      8 C           5.8860   -1.4576   25.8529 C.3     1  UNL1        0.0539
      9 N           2.4603   -0.7012   29.0866 N.am    1  UNL1       -0.2485
     10 C           3.3046   -0.5437   27.8569 C.2     1  UNL1        0.3058
     11 O           3.9032    0.7908   27.5240 O.2     1  UNL1       -0.2524
     12 N           3.5504   -1.7207   26.9601 N.am    1  UNL1       -0.2901
     13 H           2.0674   -1.5771   29.3051 H       1  UNL1        0.1583
     14 H           3.1575   -2.5966   27.1785 H       1  UNL1        0.1509
     15 C           2.3109    2.0009   31.8690 C.ar    1  UNL1        0.0803
     16 S           2.8379    0.7048   31.3284 S.2     1  UNL1       -0.0488
     17 C           2.2145    0.4758   29.9835 C.ar    1  UNL1        0.1664
     18 N           1.3022    1.6304   29.6928 N.ar    1  UNL1       -0.2282
     19 C           1.3618    2.5730   30.8581 C.ar    1  UNL1        0.0701
     20 C           0.6050    3.8615   30.9895 C.3     1  UNL1        0.0528
     21 C           3.7576    3.6471   33.2644 C.3     1  UNL1        0.0779
     22 C           2.6700    2.6168   33.1887 C.2     1  UNL1        0.1807
     23 O           1.9415    2.2025   34.4327 O.2     1  UNL1       -0.2908
     24 C           6.2811   -1.0385   20.6889 C.3     1  UNL1        0.0817
     25 C           5.7983    0.2706   20.1383 C.3     1  UNL1        0.0412
     26 C           5.1514    0.3225   18.7858 C.3     1  UNL1        0.1427
     27 O           4.9873   -0.9345   17.9841 O.3     1  UNL1       -0.3538
     28 C           5.4701   -2.2436   18.5347 C.3     1  UNL1        0.1427
     29 C           6.1170   -2.2956   19.8871 C.3     1  UNL1        0.0412
     30 C           6.5328   -1.5096   27.2054 C.3     1  UNL1        0.0754
     31 N           6.5819   -2.8027   27.9640 N.3     1  UNL1       -0.2726
     32 C           6.5186   -4.1076   27.2269 C.3     1  UNL1        0.0721
     33 C           6.5676   -5.4007   27.9856 C.3     1  UNL1        0.0174
     34 C           6.6799   -5.3889   29.4814 C.3     1  UNL1        0.0031
     35 C           6.7431   -4.0840   30.2184 C.3     1  UNL1        0.0204
     36 C           6.6941   -2.7909   29.4597 C.3     1  UNL1        0.0724
     37 C           6.8553   -4.0721   31.7142 C.3     1  UNL1        0.0277
     38 C           6.3497   -2.8954   32.4949 C.ar    1  UNL1       -0.0220
     39 C           4.9170   -2.8483   32.9370 C.ar    1  UNL1       -0.0020
     40 C           4.4113   -1.6716   33.7178 C.ar    1  UNL1        0.0293
     41 C           5.3383   -0.5419   34.0564 C.ar    1  UNL1        0.1401
     42 F           4.8326    0.6349   34.8371 F       1  UNL1       -0.2042
     43 C           6.7709   -0.5890   33.6143 C.ar    1  UNL1        0.0293
     44 C           7.2765   -1.7657   32.8336 C.ar    1  UNL1       -0.0020
@<TRIPOS>BOND
     1    21    22    1
     2    22    23    2
     3    22    15    1
     4    15    16   ar
     5    16    17   ar
     6    17     9    1
     7     9    10   am
     8    10    11    2
     9    10    12   am
    10     1    12    1
    11     1     2    1
    12     2     3    1
    13     3     4    1
    14     4     5   am
    15     5     6    2
    16     5    24    1
    17    24    25    1
    18    25    26    1
    19    26    27    1
    20    27    28    1
    21    28    29    1
    22     4     7    1
    23     7     8    1
    24     8    30    1
    25    30    31    1
    26    31    32    1
    27    32    33    1
    28    33    34    1
    29    34    35    1
    30    35    37    1
    31    37    38    1
    32    38    39   ar
    33    39    40   ar
    34    40    41   ar
    35    41    42    1
    36    41    43   ar
    37    43    44   ar
    38    35    36    1
    39    17    18   ar
    40    18    19   ar
    41    19    20    1
    42    19    15   ar
    43     8     1    1
    44    36    31    1
    45    29    24    1
    46    44    38   ar
    47     9    13    1
    48    12    14    1
@<TRIPOS>MOLECULE
*****
 44 48 0 0 0
SMALL
GASTEIGER

@<TRIPOS>ATOM
      1 C           2.7260    1.4919   25.3011 C.3     1  UNL1        0.0777
      2 C           3.6365    0.8158   24.3195 C.3     1  UNL1        0.0412
      3 C           3.1292    0.4470   22.9570 C.3     1  UNL1        0.0951
      4 N           1.7114    0.7544   22.5760 N.am    1  UNL1       -0.2794
      5 C           1.2041    0.3856   21.2134 C.2     1  UNL1        0.2253
      6 O          -0.2138    0.6930   20.8324 O.2     1  UNL1       -0.2749
      7 C           0.8008    1.4306   23.5576 C.3     1  UNL1        0.0964
      8 C           1.3081    1.7994   24.9202 C.3     1  UNL1        0.0539
      9 N           4.1054    1.1547   29.0070 N.am    1  UNL1       -0.2485
     10 C           3.5981    0.7860   27.6444 C.2     1  UNL1        0.3058
     11 O           3.4557   -0.6576   27.2625 O.2     1  UNL1       -0.2524
     12 N           3.2333    1.8608   26.6638 N.am    1  UNL1       -0.2901
     13 H           4.1989    2.1022   29.2577 H       1  UNL1        0.1583
     14 H           3.3267    2.8082   26.9144 H       1  UNL1        0.1509
     15 C           4.5693   -1.2694   32.0027 C.ar    1  UNL1        0.0803
     16 S           3.9366   -0.0590   31.3826 S.2     1  UNL1       -0.0488
     17 C           4.4702    0.0799   29.9877 C.ar    1  UNL1        0.1664
     18 N           5.4328   -1.0447   29.7456 N.ar    1  UNL1       -0.2282
     19 C           5.4941   -1.8786   30.9909 C.ar    1  UNL1        0.0701
     20 C           6.3328   -3.1062   31.1896 C.3     1  UNL1        0.0528
     21 C           4.6602   -0.9270   34.5765 C.3     1  UNL1        0.0779
     22 C           4.3209   -1.7808   33.3908 C.2     1  UNL1        0.1807
     23 O           3.7333   -3.1459   33.5931 O.2     1  UNL1       -0.2908
     24 C           2.1146   -0.2906   20.2318 C.3     1  UNL1        0.0817
     25 C           2.4961    0.4063   18.9595 C.3     1  UNL1        0.0412
     26 C           3.4067   -0.2699   17.9778 C.3     1  UNL1        0.1427
     27 O           3.9358   -1.6431   18.2686 O.3     1  UNL1       -0.3538
     28 C           3.5543   -2.3400   19.5409 C.3     1  UNL1        0.1427
     29 C           2.6438   -1.6638   20.5225 C.3     1  UNL1        0.0412
     30 C           0.3975    2.4756   25.9019 C.3     1  UNL1        0.0754
     31 N           0.3645    2.0205   27.3308 N.3     1  UNL1       -0.2726
     32 C           0.0672    0.5863   27.6544 C.3     1  UNL1        0.0721
     33 C           0.0342    0.1312   29.0833 C.3     1  UNL1        0.0174
     34 C           0.2986    1.1103   30.1886 C.3     1  UNL1        0.0031
     35 C           0.5960    2.5444   29.8649 C.3     1  UNL1        0.0204
     36 C           0.6290    2.9995   28.4360 C.3     1  UNL1        0.0724
     37 C           0.8604    3.5235   30.9702 C.3     1  UNL1        0.0277
     38 C           1.9585    3.2611   31.9578 C.ar    1  UNL1       -0.0220
     39 C           1.6611    2.5292   33.2330 C.ar    1  UNL1       -0.0020
     40 C           2.7592    2.2668   34.2206 C.ar    1  UNL1        0.0293
     41 C           4.1546    2.7362   33.9331 C.ar    1  UNL1        0.1401
     42 F           5.2526    2.4738   34.9207 F       1  UNL1       -0.2042
     43 C           4.4518    3.4680   32.6579 C.ar    1  UNL1        0.0293
     44 C           3.3538    3.7304   31.6703 C.ar    1  UNL1       -0.0020
@<TRIPOS>BOND
     1    21    22    1
     2    22    23    2
     3    22    15    1
     4    15    16   ar
     5    16    17   ar
     6    17     9    1
     7     9    10   am
     8    10    11    2
     9    10    12   am
    10     1    12    1
    11     1     2    1
    12     2     3    1
    13     3     4    1
    14     4     5   am
    15     5     6    2
    16     5    24    1
    17    24    25    1
    18    25    26    1
    19    26    27    1
    20    27    28    1
    21    28    29    1
    22     4     7    1
    23     7     8    1
    24     8    30    1
    25    30    31    1
    26    31    32    1
    27    32    33    1
    28    33    34    1
    29    34    35    1
    30    35    37    1
    31    37    38    1
    32    38    39   ar
    33    39    40   ar
    34    40    41   ar
    35    41    42    1
    36    41    43   ar
    37    43    44   ar
    38    35    36    1
    39    17    18   ar
    40    18    19   ar
    41    19    20    1
    42    19    15   ar
    43     8     1    1
    44    36    31    1
    45    29    24    1
    46    44    38   ar
    47     9    13    1
    48    12    14    1
@<TRIPOS>MOLECULE
*****
 44 48 0 0 0
SMALL
GASTEIGER

@<TRIPOS>ATOM
      1 C           0.8131    0.8505   27.6019 C.3     1  UNL1        0.0777
      2 C          -0.6419    1.0954   27.8718 C.3     1  UNL1        0.0412
      3 C          -1.3619    2.1998   27.1562 C.3     1  UNL1        0.0951
      4 N          -0.6268    3.0592   26.1708 N.am    1  UNL1       -0.2794
      5 C          -1.3468    4.1636   25.4552 C.2     1  UNL1        0.2253
      6 O          -0.6117    5.0230   24.4698 O.2     1  UNL1       -0.2749
      7 C           0.8283    2.8143   25.9010 C.3     1  UNL1        0.0964
      8 C           1.5482    1.7100   26.6165 C.3     1  UNL1        0.0539
      9 N           3.0954   -1.0489   30.2351 N.am    1  UNL1       -0.2485
     10 C           2.3754    0.0554   29.5195 C.2     1  UNL1        0.3058
     11 O           2.4977    1.4691   30.0059 O.2     1  UNL1       -0.2524
     12 N           1.5331   -0.2539   28.3175 N.am    1  UNL1       -0.2901
     13 H           3.0151   -1.9767   29.9158 H       1  UNL1        0.1583
     14 H           1.4528   -1.1817   27.9982 H       1  UNL1        0.1509
     15 C           5.7865   -0.0265   32.8386 C.ar    1  UNL1        0.0803
     16 S           5.3270   -0.1742   31.4184 S.2     1  UNL1       -0.0488
     17 C           3.9377   -0.7396   31.4371 C.ar    1  UNL1        0.1664
     18 N           3.5387   -0.9413   32.8689 N.ar    1  UNL1       -0.2282
     19 C           4.6813   -0.5006   33.7351 C.ar    1  UNL1        0.0701
     20 C           4.7131   -0.5291   35.2345 C.3     1  UNL1        0.0528
     21 C           8.3508   -0.3354   33.1191 C.3     1  UNL1        0.0779
     22 C           7.1176    0.5024   33.2841 C.2     1  UNL1        0.1807
     23 O           7.2154    1.8690   33.8945 O.2     1  UNL1       -0.2908
     24 C          -2.8018    4.4085   25.7251 C.3     1  UNL1        0.0817
     25 C          -3.2139    5.3481   26.8193 C.3     1  UNL1        0.0412
     26 C          -4.6690    5.5930   27.0891 C.3     1  UNL1        0.1427
     27 O          -5.7120    4.8983   26.2647 O.3     1  UNL1       -0.3538
     28 C          -5.2999    3.9587   25.1705 C.3     1  UNL1        0.1427
     29 C          -3.8448    3.7138   24.9007 C.3     1  UNL1        0.0412
     30 C           3.0033    1.4650   26.3467 C.3     1  UNL1        0.0754
     31 N           3.4228    0.3061   25.4917 N.3     1  UNL1       -0.2726
     32 C           4.3142   -0.7594   26.0575 C.3     1  UNL1        0.0721
     33 C           4.7337   -1.9183   25.2026 C.3     1  UNL1        0.0174
     34 C           4.2618   -2.0117   23.7817 C.3     1  UNL1        0.0031
     35 C           3.3704   -0.9462   23.2160 C.3     1  UNL1        0.0204
     36 C           2.9509    0.2127   24.0709 C.3     1  UNL1        0.0724
     37 C           2.8985   -1.0395   21.7951 C.3     1  UNL1        0.0277
     38 C           3.8567   -1.4355   20.7111 C.ar    1  UNL1       -0.0220
     39 C           3.6449   -2.7121   19.9524 C.ar    1  UNL1       -0.0020
     40 C           4.6030   -3.1081   18.8684 C.ar    1  UNL1        0.0293
     41 C           5.7730   -2.2276   18.5431 C.ar    1  UNL1        0.1401
     42 F           6.7312   -2.6236   17.4591 F       1  UNL1       -0.2042
     43 C           5.9848   -0.9511   19.3018 C.ar    1  UNL1        0.0293
     44 C           5.0267   -0.5551   20.3858 C.ar    1  UNL1       -0.0020
@<TRIPOS>BOND
     1    21    22    1
     2    22    23    2
     3    22    15    1
     4    15    16   ar
     5    16    17   ar
     6    17     9    1
     7     9    10   am
     8    10    11    2
     9    10    12   am
    10     1    12    1
    11     1     2    1
    12     2     3    1
    13     3     4    1
    14     4     5   am
    15     5     6    2
    16     5    24    1
    17    24    25    1
    18    25    26    1
    19    26    27    1
    20    27    28    1
    21    28    29    1
    22     4     7    1
    23     7     8    1
    24     8    30    1
    25    30    31    1
    26    31    32    1
    27    32    33    1
    28    33    34    1
    29    34    35    1
    30    35    37    1
    31    37    38    1
    32    38    39   ar
    33    39    40   ar
    34    40    41   ar
    35    41    42    1
    36    41    43   ar
    37    43    44   ar
    38    35    36    1
    39    17    18   ar
    40    18    19   ar
    41    19    20    1
    42    19    15   ar
    43     8     1    1
    44    36    31    1
    45    29    24    1
    46    44    38   ar
    47     9    13    1
    48    12    14    1
