@<TRIPOS>MOLECULE
*****
 45 50 0 0 0
SMALL
GASTEIGER

@<TRIPOS>ATOM
      1 C           2.5957   -0.0365   29.9682 C.ar    1  UNL1        0.1348
      2 C           2.0040    1.3003   30.3041 C.ar    1  UNL1        0.0346
      3 C           1.6622    2.2660   29.2083 C.ar    1  UNL1        0.0065
      4 C           1.9121    1.8948   27.7766 C.ar    1  UNL1        0.0432
      5 C           2.5037    0.5580   27.4407 C.ar    1  UNL1        0.1256
      6 N           2.8455   -0.4076   28.5365 N.ar    1  UNL1       -0.2222
      7 C           1.5703    2.8604   26.6809 C.ar    1  UNL1        0.0850
      8 C           2.5491    3.6608   25.8739 C.ar    1  UNL1        0.0991
      9 N           1.7734    4.4903   24.8939 N.ar    1  UNL1       -0.2265
     10 C           0.3151    4.2026   25.0953 C.ar    1  UNL1        0.1474
     11 C          -0.9147    4.7276   24.4157 C.ar    1  UNL1        0.0332
     12 C          -2.2700    4.2454   24.8405 C.ar    1  UNL1       -0.0174
     13 C          -3.4998    4.7705   24.1609 C.3     1  UNL1        0.0312
     14 C          -2.3957    3.2381   25.9449 C.ar    1  UNL1        0.0149
     15 C          -1.1659    2.7131   26.6244 C.ar    1  UNL1        0.0811
     16 N           0.1896    3.1953   26.1996 N.ar    1  UNL1       -0.2888
     17 C           4.0417    3.6361   26.0210 C.ar    1  UNL1        0.0222
     18 C           4.6822    4.1838   27.2619 C.ar    1  UNL1        0.0222
     19 C           6.1748    4.1591   27.4090 C.ar    1  UNL1        0.0989
     20 N           7.0269    3.5866   26.3153 N.ar    1  UNL1       -0.2423
     21 C           6.3864    3.0389   25.0745 C.ar    1  UNL1        0.0989
     22 C           4.8938    3.0636   24.9274 C.ar    1  UNL1        0.0222
     23 C           4.3403   -1.0736   31.5901 C.2     1  UNL1        0.2414
     24 O           5.4015   -0.1794   31.0204 O.2     1  UNL1       -0.2733
     25 N           2.9375   -1.0021   31.0640 N.am    1  UNL1       -0.2682
     26 H           2.2410   -1.5889   31.4379 H       1  UNL1        0.1563
     27 C           4.6821   -2.0392   32.6858 C.3     1  UNL1        0.1319
     28 C           4.2944   -1.7340   34.1024 C.3     1  UNL1        0.0270
     29 C           6.8820   -3.2769   32.0705 C.3     1  UNL1        0.0862
     30 N           5.4116   -3.3100   32.3651 N.3     1  UNL1       -0.2902
     31 H           5.2852   -3.9317   33.1639 H       1  UNL1        0.1237
     32 C           2.7536    0.1868   26.0090 C.1     1  UNL1       -0.0404
     33 C           3.0034   -0.1845   24.5773 C.1     1  UNL1       -0.0582
     34 C           3.2533   -0.5557   23.1456 C.ar    1  UNL1        0.0451
     35 C           3.9043   -1.8655   22.8130 C.ar    1  UNL1        0.0097
     36 C           4.1541   -2.2367   21.3813 C.ar    1  UNL1        0.0186
     37 C           3.7530   -1.2980   20.2822 C.ar    1  UNL1        0.0882
     38 C           3.1020    0.0118   20.6148 C.ar    1  UNL1        0.1534
     39 C           2.8522    0.3829   22.0465 C.ar    1  UNL1        0.0464
     40 O           2.7009    0.9504   19.5156 O.3     1  UNL1       -0.4643
     41 C           2.9508    0.5792   18.0840 C.3     1  UNL1        0.2900
     42 C           3.6018   -0.7306   17.7513 C.2     1  UNL1        0.2740
     43 O           3.8516   -1.1018   16.3197 O.2     1  UNL1       -0.2705
     44 N           4.0029   -1.6693   18.8505 N.am    1  UNL1       -0.2512
     45 C           4.6538   -2.9791   18.5179 C.3     1  UNL1        0.1202
@<TRIPOS>BOND
     1    29    30    1
     2    30    27    1
     3    27    28    1
     4    27    23    1
     5    23    24    2
     6    23    25   am
     7    25     1    1
     8     1     2   ar
     9     2     3   ar
    10     3     4   ar
    11     4     7    1
    12     7     8   ar
    13     8    17    1
    14    17    18   ar
    15    18    19   ar
    16    19    20   ar
    17    20    21   ar
    18    21    22   ar
    19     8     9   ar
    20     9    10   ar
    21    10    11   ar
    22    11    12   ar
    23    12    13    1
    24    12    14   ar
    25    14    15   ar
    26    15    16   ar
    27     4     5   ar
    28     5    32    1
    29    32    33    3
    30    33    34    1
    31    34    35   ar
    32    35    36   ar
    33    36    37   ar
    34    37    38   ar
    35    38    39   ar
    36    38    40    1
    37    40    41    1
    38    41    42    1
    39    42    43    2
    40    42    44   am
    41    44    45    1
    42     5     6   ar
    43     6     1   ar
    44    16     7   ar
    45    39    34   ar
    46    22    17   ar
    47    16    10   ar
    48    44    37    1
    49    30    31    1
    50    25    26    1
@<TRIPOS>MOLECULE
*****
 45 50 0 0 0
SMALL
GASTEIGER

@<TRIPOS>ATOM
      1 C          -0.1973    1.8401   20.5008 C.ar    1  UNL1        0.1348
      2 C           0.2244    1.8476   19.0613 C.ar    1  UNL1        0.0346
      3 C           1.4889    1.1554   18.6467 C.ar    1  UNL1        0.0065
      4 C           2.3316    0.4557   19.6714 C.ar    1  UNL1        0.0432
      5 C           1.9099    0.4482   21.1109 C.ar    1  UNL1        0.1256
      6 N           0.6454    1.1404   21.5255 N.ar    1  UNL1       -0.2222
      7 C           3.5961   -0.2365   19.2568 C.ar    1  UNL1        0.0850
      8 C           4.8839    0.4326   18.8775 C.ar    1  UNL1        0.0991
      9 N           5.8785   -0.6367   18.5349 N.ar    1  UNL1       -0.2265
     10 C           5.2054   -1.9667   18.7024 C.ar    1  UNL1        0.1474
     11 C           5.6947   -3.3710   18.5064 C.ar    1  UNL1        0.0332
     12 C           4.7734   -4.5280   18.7564 C.ar    1  UNL1       -0.0174
     13 C           5.2627   -5.9323   18.5604 C.3     1  UNL1        0.0312
     14 C           3.3627   -4.2807   19.2026 C.ar    1  UNL1        0.0149
     15 C           2.8735   -2.8764   19.3987 C.ar    1  UNL1        0.0811
     16 N           3.7948   -1.7193   19.1486 N.ar    1  UNL1       -0.2888
     17 C           5.1334    1.9114   18.8463 C.ar    1  UNL1        0.0222
     18 C           5.4233    2.5958   17.5433 C.ar    1  UNL1        0.0222
     19 C           5.6727    4.0746   17.5121 C.ar    1  UNL1        0.0989
     20 N           5.6323    4.8690   18.7838 N.ar    1  UNL1       -0.2423
     21 C           5.3424    4.1846   20.0867 C.ar    1  UNL1        0.0989
     22 C           5.0930    2.7058   20.1179 C.ar    1  UNL1        0.0222
     23 C          -1.3978    3.8706   21.5898 C.2     1  UNL1        0.2414
     24 O          -0.0692    4.5167   21.8495 O.2     1  UNL1       -0.2733
     25 N          -1.4618    2.5323   20.9154 N.am    1  UNL1       -0.2682
     26 H          -2.3338    2.1082   20.7450 H       1  UNL1        0.1563
     27 C          -2.6622    4.5628   22.0045 C.3     1  UNL1        0.1319
     28 C          -2.6122    5.6817   23.0023 C.3     1  UNL1        0.0270
     29 C          -4.8564    3.1818   22.1734 C.3     1  UNL1        0.0862
     30 N          -3.9767    4.1361   21.4214 N.3     1  UNL1       -0.2902
     31 H          -4.5224    4.9850   21.2729 H       1  UNL1        0.1237
     32 C           2.7526   -0.2515   22.1357 C.1     1  UNL1       -0.0404
     33 C           3.5954   -0.9512   23.1605 C.1     1  UNL1       -0.0582
     34 C           4.4381   -1.6509   24.1854 C.ar    1  UNL1        0.0451
     35 C           4.4363   -1.1766   25.6084 C.ar    1  UNL1        0.0097
     36 C           5.2791   -1.8763   26.6331 C.ar    1  UNL1        0.0186
     37 C           6.1236   -3.0503   26.2349 C.ar    1  UNL1        0.0882
     38 C           6.1254   -3.5246   24.8119 C.ar    1  UNL1        0.1534
     39 C           5.2826   -2.8249   23.7871 C.ar    1  UNL1        0.0464
     40 O           6.9699   -4.6985   24.4136 O.3     1  UNL1       -0.4643
     41 C           7.8126   -5.3982   25.4384 C.3     1  UNL1        0.2900
     42 C           7.8108   -4.9240   26.8615 C.2     1  UNL1        0.2740
     43 O           8.6535   -5.6237   27.8863 O.2     1  UNL1       -0.2705
     44 N           6.9663   -3.7500   27.2598 N.am    1  UNL1       -0.2512
     45 C           6.9645   -3.2757   28.6828 C.3     1  UNL1        0.1202
@<TRIPOS>BOND
     1    29    30    1
     2    30    27    1
     3    27    28    1
     4    27    23    1
     5    23    24    2
     6    23    25   am
     7    25     1    1
     8     1     2   ar
     9     2     3   ar
    10     3     4   ar
    11     4     7    1
    12     7     8   ar
    13     8    17    1
    14    17    18   ar
    15    18    19   ar
    16    19    20   ar
    17    20    21   ar
    18    21    22   ar
    19     8     9   ar
    20     9    10   ar
    21    10    11   ar
    22    11    12   ar
    23    12    13    1
    24    12    14   ar
    25    14    15   ar
    26    15    16   ar
    27     4     5   ar
    28     5    32    1
    29    32    33    3
    30    33    34    1
    31    34    35   ar
    32    35    36   ar
    33    36    37   ar
    34    37    38   ar
    35    38    39   ar
    36    38    40    1
    37    40    41    1
    38    41    42    1
    39    42    43    2
    40    42    44   am
    41    44    45    1
    42     5     6   ar
    43     6     1   ar
    44    16     7   ar
    45    39    34   ar
    46    22    17   ar
    47    16    10   ar
    48    44    37    1
    49    30    31    1
    50    25    26    1
@<TRIPOS>MOLECULE
*****
 45 50 0 0 0
SMALL
GASTEIGER

@<TRIPOS>ATOM
      1 C          -3.6899    4.1320   25.1202 C.ar    1  UNL1        0.1348
      2 C          -3.1687    4.9884   26.2359 C.ar    1  UNL1        0.0346
      3 C          -1.7010    5.0062   26.5449 C.ar    1  UNL1        0.0065
      4 C          -0.7545    4.1676   25.7382 C.ar    1  UNL1        0.0432
      5 C          -1.2757    3.3113   24.6224 C.ar    1  UNL1        0.1256
      6 N          -2.7434    3.2935   24.3134 N.ar    1  UNL1       -0.2222
      7 C           0.7132    4.1855   26.0472 C.ar    1  UNL1        0.0850
      8 C           1.4040    3.3622   27.0936 C.ar    1  UNL1        0.0991
      9 N           2.8656    3.6976   27.0571 N.ar    1  UNL1       -0.2265
     10 C           3.0781    4.7282   25.9882 C.ar    1  UNL1        0.1474
     11 C           4.3111    5.4310   25.5025 C.ar    1  UNL1        0.0332
     12 C           4.2138    6.4354   24.3927 C.ar    1  UNL1       -0.0174
     13 C           5.4467    7.1383   23.9071 C.3     1  UNL1        0.0312
     14 C           2.8835    6.7370   23.7684 C.ar    1  UNL1        0.0149
     15 C           1.6506    6.0341   24.2541 C.ar    1  UNL1        0.0811
     16 N           1.7479    5.0297   25.3640 N.ar    1  UNL1       -0.2888
     17 C           0.7484    2.3765   28.0147 C.ar    1  UNL1        0.0222
     18 C           0.0249    1.1895   27.4510 C.ar    1  UNL1        0.0222
     19 C          -0.6308    0.2038   28.3721 C.ar    1  UNL1        0.0989
     20 N          -0.5630    0.4050   29.8570 N.ar    1  UNL1       -0.2423
     21 C           0.1604    1.5920   30.4207 C.ar    1  UNL1        0.0989
     22 C           0.8161    2.5777   29.4996 C.ar    1  UNL1        0.0222
     23 C          -5.7619    5.2051   23.9777 C.2     1  UNL1        0.2414
     24 O          -4.8984    6.3139   23.4531 O.2     1  UNL1       -0.2733
     25 N          -5.1577    4.1142   24.8112 N.am    1  UNL1       -0.2682
     26 H          -5.7244    3.3865   25.1554 H       1  UNL1        0.1563
     27 C          -7.2296    5.1873   23.6687 C.3     1  UNL1        0.1319
     28 C          -8.2128    5.7224   24.6672 C.3     1  UNL1        0.0270
     29 C          -6.7363    4.3425   21.2618 C.3     1  UNL1        0.0862
     30 N          -7.7142    4.6344   22.3612 N.3     1  UNL1       -0.2902
     31 H          -8.1916    3.7578   22.5710 H       1  UNL1        0.1237
     32 C          -0.3292    2.4727   23.8156 C.1     1  UNL1       -0.0404
     33 C           0.6173    1.6342   23.0087 C.1     1  UNL1       -0.0582
     34 C           1.5638    0.7956   22.2019 C.ar    1  UNL1        0.0451
     35 C           2.4660   -0.1873   22.8874 C.ar    1  UNL1        0.0097
     36 C           3.4125   -1.0258   22.0806 C.ar    1  UNL1        0.0186
     37 C           3.4568   -0.8815   20.5882 C.ar    1  UNL1        0.0882
     38 C           2.5546    0.1014   19.9027 C.ar    1  UNL1        0.1534
     39 C           1.6081    0.9399   20.7095 C.ar    1  UNL1        0.0464
     40 O           2.5989    0.2457   18.4103 O.3     1  UNL1       -0.4643
     41 C           3.5453   -0.5928   17.6035 C.3     1  UNL1        0.2900
     42 C           4.4476   -1.5757   18.2890 C.2     1  UNL1        0.2740
     43 O           5.3941   -2.4143   17.4822 O.2     1  UNL1       -0.2705
     44 N           4.4033   -1.7201   19.7814 N.am    1  UNL1       -0.2512
     45 C           5.3055   -2.7029   20.4669 C.3     1  UNL1        0.1202
@<TRIPOS>BOND
     1    29    30    1
     2    30    27    1
     3    27    28    1
     4    27    23    1
     5    23    24    2
     6    23    25   am
     7    25     1    1
     8     1     2   ar
     9     2     3   ar
    10     3     4   ar
    11     4     7    1
    12     7     8   ar
    13     8    17    1
    14    17    18   ar
    15    18    19   ar
    16    19    20   ar
    17    20    21   ar
    18    21    22   ar
    19     8     9   ar
    20     9    10   ar
    21    10    11   ar
    22    11    12   ar
    23    12    13    1
    24    12    14   ar
    25    14    15   ar
    26    15    16   ar
    27     4     5   ar
    28     5    32    1
    29    32    33    3
    30    33    34    1
    31    34    35   ar
    32    35    36   ar
    33    36    37   ar
    34    37    38   ar
    35    38    39   ar
    36    38    40    1
    37    40    41    1
    38    41    42    1
    39    42    43    2
    40    42    44   am
    41    44    45    1
    42     5     6   ar
    43     6     1   ar
    44    16     7   ar
    45    39    34   ar
    46    22    17   ar
    47    16    10   ar
    48    44    37    1
    49    30    31    1
    50    25    26    1
@<TRIPOS>MOLECULE
*****
 45 50 0 0 0
SMALL
GASTEIGER

@<TRIPOS>ATOM
      1 C          -2.3778    4.4324   18.5182 C.ar    1  UNL1        0.1348
      2 C          -1.4531    4.3588   17.3395 C.ar    1  UNL1        0.0346
      3 C          -0.0865    3.7602   17.4946 C.ar    1  UNL1        0.0065
      4 C           0.3554    3.2352   18.8284 C.ar    1  UNL1        0.0432
      5 C          -0.5693    3.3088   20.0071 C.ar    1  UNL1        0.1256
      6 N          -1.9359    3.9074   19.8520 N.ar    1  UNL1       -0.2222
      7 C           1.7220    2.6366   18.9835 C.ar    1  UNL1        0.0850
      8 C           3.0255    3.3607   18.8202 C.ar    1  UNL1        0.0991
      9 N           4.1342    2.3805   19.0649 N.ar    1  UNL1       -0.2265
     10 C           3.5159    1.0505   19.3793 C.ar    1  UNL1        0.1474
     11 C           4.1178   -0.2843   19.7050 C.ar    1  UNL1        0.0332
     12 C           3.2290   -1.4608   19.9803 C.ar    1  UNL1       -0.0174
     13 C           3.8308   -2.7956   20.3060 C.3     1  UNL1        0.0312
     14 C           1.7381   -1.3025   19.9300 C.ar    1  UNL1        0.0149
     15 C           1.1362    0.0322   19.6043 C.ar    1  UNL1        0.0811
     16 N           2.0252    1.2088   19.3290 N.ar    1  UNL1       -0.2888
     17 C           3.1912    4.8106   18.4733 C.ar    1  UNL1        0.0222
     18 C           3.2623    5.2345   17.0361 C.ar    1  UNL1        0.0222
     19 C           3.4280    6.6844   16.6891 C.ar    1  UNL1        0.0989
     20 N           3.5226    7.7104   17.7792 N.ar    1  UNL1       -0.2423
     21 C           3.4515    7.2865   19.2163 C.ar    1  UNL1        0.0989
     22 C           3.2858    5.8366   19.5633 C.ar    1  UNL1        0.0222
     23 C          -4.7512    4.3787   17.4626 C.2     1  UNL1        0.2414
     24 O          -4.3913    3.1277   16.7171 O.2     1  UNL1       -0.2733
     25 N          -3.7444    5.0310   18.3631 N.am    1  UNL1       -0.2682
     26 H          -3.9806    5.8520   18.8523 H       1  UNL1        0.1563
     27 C          -6.1178    4.9773   17.3075 C.3     1  UNL1        0.1319
     28 C          -6.3681    6.0111   16.2498 C.3     1  UNL1        0.0270
     29 C          -7.8141    5.5050   19.2032 C.3     1  UNL1        0.0862
     30 N          -7.2340    4.5421   18.2101 N.3     1  UNL1       -0.2902
     31 H          -8.0006    4.2433   17.6072 H       1  UNL1        0.1237
     32 C          -0.1275    2.7838   21.3410 C.1     1  UNL1       -0.0404
     33 C           0.3144    2.2588   22.6748 C.1     1  UNL1       -0.0582
     34 C           0.7563    1.7337   24.0087 C.ar    1  UNL1        0.0451
     35 C           2.1204    1.1292   24.1623 C.ar    1  UNL1        0.0097
     36 C           2.5622    0.6042   25.4961 C.ar    1  UNL1        0.0186
     37 C           1.6399    0.6838   26.6763 C.ar    1  UNL1        0.0882
     38 C           0.2757    1.2883   26.5227 C.ar    1  UNL1        0.1534
     39 C          -0.1661    1.8133   25.1889 C.ar    1  UNL1        0.0464
     40 O          -0.6466    1.3678   27.7030 O.3     1  UNL1       -0.4643
     41 C          -0.2048    0.8429   29.0368 C.3     1  UNL1        0.2900
     42 C           1.1594    0.2383   29.1905 C.2     1  UNL1        0.2740
     43 O           1.6012   -0.2867   30.5243 O.2     1  UNL1       -0.2705
     44 N           2.0817    0.1588   28.0102 N.am    1  UNL1       -0.2512
     45 C           3.4458   -0.4458   28.1638 C.3     1  UNL1        0.1202
@<TRIPOS>BOND
     1    29    30    1
     2    30    27    1
     3    27    28    1
     4    27    23    1
     5    23    24    2
     6    23    25   am
     7    25     1    1
     8     1     2   ar
     9     2     3   ar
    10     3     4   ar
    11     4     7    1
    12     7     8   ar
    13     8    17    1
    14    17    18   ar
    15    18    19   ar
    16    19    20   ar
    17    20    21   ar
    18    21    22   ar
    19     8     9   ar
    20     9    10   ar
    21    10    11   ar
    22    11    12   ar
    23    12    13    1
    24    12    14   ar
    25    14    15   ar
    26    15    16   ar
    27     4     5   ar
    28     5    32    1
    29    32    33    3
    30    33    34    1
    31    34    35   ar
    32    35    36   ar
    33    36    37   ar
    34    37    38   ar
    35    38    39   ar
    36    38    40    1
    37    40    41    1
    38    41    42    1
    39    42    43    2
    40    42    44   am
    41    44    45    1
    42     5     6   ar
    43     6     1   ar
    44    16     7   ar
    45    39    34   ar
    46    22    17   ar
    47    16    10   ar
    48    44    37    1
    49    30    31    1
    50    25    26    1
@<TRIPOS>MOLECULE
*****
 45 50 0 0 0
SMALL
GASTEIGER

@<TRIPOS>ATOM
      1 C           2.5728    2.0186   33.7947 C.ar    1  UNL1        0.1348
      2 C           2.2731    3.0689   32.7665 C.ar    1  UNL1        0.0346
      3 C           2.7719    2.9066   31.3612 C.ar    1  UNL1        0.0065
      4 C           3.5704    1.6941   30.9841 C.ar    1  UNL1        0.0432
      5 C           3.8701    0.6439   32.0122 C.ar    1  UNL1        0.1256
      6 N           3.3713    0.8061   33.4175 N.ar    1  UNL1       -0.2222
      7 C           4.0692    1.5319   29.5788 C.ar    1  UNL1        0.0850
      8 C           3.2255    1.2520   28.3705 C.ar    1  UNL1        0.0991
      9 N           4.1341    1.1681   27.1800 N.ar    1  UNL1       -0.2265
     10 C           5.5394    1.3963   27.6524 C.ar    1  UNL1        0.1474
     11 C           6.8504    1.4284   26.9242 C.ar    1  UNL1        0.0332
     12 C           8.1212    1.6853   27.6785 C.ar    1  UNL1       -0.0174
     13 C           9.4321    1.7174   26.9503 C.3     1  UNL1        0.0312
     14 C           8.0811    1.9101   29.1611 C.ar    1  UNL1        0.0149
     15 C           6.7701    1.8780   29.8893 C.ar    1  UNL1        0.0811
     16 N           5.4992    1.6211   29.1349 N.ar    1  UNL1       -0.2888
     17 C           1.7349    1.0851   28.3555 C.ar    1  UNL1        0.0222
     18 C           1.1111   -0.1390   28.9577 C.ar    1  UNL1        0.0222
     19 C          -0.3796   -0.3058   28.9427 C.ar    1  UNL1        0.0989
     20 N          -1.2464    0.7513   28.3254 N.ar    1  UNL1       -0.2423
     21 C          -0.6226    1.9753   27.7231 C.ar    1  UNL1        0.0989
     22 C           0.8681    2.1421   27.7382 C.ar    1  UNL1        0.0222
     23 C           3.0396    2.4764   36.3091 C.2     1  UNL1        0.2414
     24 O           4.5041    2.6097   36.0130 O.2     1  UNL1       -0.2733
     25 N           2.0740    2.1809   35.2000 N.am    1  UNL1       -0.2682
     26 H           1.1129    2.0934   35.3944 H       1  UNL1        0.1563
     27 C           2.5408    2.6387   37.7144 C.3     1  UNL1        0.1319
     28 C           2.9739    3.8191   38.5324 C.3     1  UNL1        0.0270
     29 C           0.5614    2.0436   39.2886 C.3     1  UNL1        0.0862
     30 N           1.6090    1.6205   38.3018 N.3     1  UNL1       -0.2902
     31 H           1.1188    1.1848   37.5206 H       1  UNL1        0.1237
     32 C           4.6686   -0.5687   31.6351 C.1     1  UNL1       -0.0404
     33 C           5.4670   -1.7812   31.2580 C.1     1  UNL1       -0.0582
     34 C           6.2655   -2.9937   30.8809 C.ar    1  UNL1        0.0451
     35 C           7.1385   -3.6637   31.9002 C.ar    1  UNL1        0.0097
     36 C           7.9369   -4.8762   31.5231 C.ar    1  UNL1        0.0186
     37 C           7.8624   -5.4187   30.1266 C.ar    1  UNL1        0.0882
     38 C           6.9895   -4.7488   29.1073 C.ar    1  UNL1        0.1534
     39 C           6.1910   -3.5363   29.4845 C.ar    1  UNL1        0.0464
     40 O           6.9150   -5.2913   27.7108 O.3     1  UNL1       -0.4643
     41 C           7.7134   -6.5038   27.3337 C.3     1  UNL1        0.2900
     42 C           8.5864   -7.1738   28.3530 C.2     1  UNL1        0.2740
     43 O           9.3849   -8.3863   27.9759 O.2     1  UNL1       -0.2705
     44 N           8.6609   -6.6313   29.7495 N.am    1  UNL1       -0.2512
     45 C           9.5339   -7.3013   30.7688 C.3     1  UNL1        0.1202
@<TRIPOS>BOND
     1    29    30    1
     2    30    27    1
     3    27    28    1
     4    27    23    1
     5    23    24    2
     6    23    25   am
     7    25     1    1
     8     1     2   ar
     9     2     3   ar
    10     3     4   ar
    11     4     7    1
    12     7     8   ar
    13     8    17    1
    14    17    18   ar
    15    18    19   ar
    16    19    20   ar
    17    20    21   ar
    18    21    22   ar
    19     8     9   ar
    20     9    10   ar
    21    10    11   ar
    22    11    12   ar
    23    12    13    1
    24    12    14   ar
    25    14    15   ar
    26    15    16   ar
    27     4     5   ar
    28     5    32    1
    29    32    33    3
    30    33    34    1
    31    34    35   ar
    32    35    36   ar
    33    36    37   ar
    34    37    38   ar
    35    38    39   ar
    36    38    40    1
    37    40    41    1
    38    41    42    1
    39    42    43    2
    40    42    44   am
    41    44    45    1
    42     5     6   ar
    43     6     1   ar
    44    16     7   ar
    45    39    34   ar
    46    22    17   ar
    47    16    10   ar
    48    44    37    1
    49    30    31    1
    50    25    26    1
@<TRIPOS>MOLECULE
*****
 45 50 0 0 0
SMALL
GASTEIGER

@<TRIPOS>ATOM
      1 C           0.6462    0.8254   19.8306 C.ar    1  UNL1        0.1348
      2 C           1.0613    1.5702   18.5965 C.ar    1  UNL1        0.0346
      3 C           0.3929    2.8653   18.2417 C.ar    1  UNL1        0.0065
      4 C          -0.6906    3.4156   19.1209 C.ar    1  UNL1        0.0432
      5 C          -1.1057    2.6709   20.3550 C.ar    1  UNL1        0.1256
      6 N          -0.4373    1.3757   20.7098 N.ar    1  UNL1       -0.2222
      7 C          -1.3590    4.7107   18.7661 C.ar    1  UNL1        0.0850
      8 C          -0.8282    6.0842   19.0519 C.ar    1  UNL1        0.0991
      9 N          -1.8167    7.0821   18.5256 N.ar    1  UNL1       -0.2265
     10 C          -2.9586    6.3254   17.9145 C.ar    1  UNL1        0.1474
     11 C          -4.2194    6.7814   17.2419 C.ar    1  UNL1        0.0332
     12 C          -5.1973    5.7719   16.7179 C.ar    1  UNL1       -0.0174
     13 C          -6.4580    6.2280   16.0453 C.3     1  UNL1        0.0312
     14 C          -4.9145    4.3063   16.8665 C.ar    1  UNL1        0.0149
     15 C          -3.6537    3.8502   17.5391 C.ar    1  UNL1        0.0811
     16 N          -2.6757    4.8598   18.0631 N.ar    1  UNL1       -0.2888
     17 C           0.4644    6.4038   19.7428 C.ar    1  UNL1        0.0222
     18 C           1.6685    6.7943   18.9379 C.ar    1  UNL1        0.0222
     19 C           2.9610    7.1138   19.6287 C.ar    1  UNL1        0.0989
     20 N           3.0495    7.0428   21.1244 N.ar    1  UNL1       -0.2423
     21 C           1.8454    6.6524   21.9293 C.ar    1  UNL1        0.0989
     22 C           0.5529    6.3328   21.2384 C.ar    1  UNL1        0.0222
     23 C           2.7621   -0.4836   20.5783 C.2     1  UNL1        0.2414
     24 O           3.5413    0.7976   20.6164 O.2     1  UNL1       -0.2733
     25 N           1.3146   -0.4697   20.1854 N.am    1  UNL1       -0.2682
     26 H           0.8032   -1.3106   20.1604 H       1  UNL1        0.1563
     27 C           3.4306   -1.7788   20.9331 C.3     1  UNL1        0.1319
     28 C           3.9074   -2.0172   22.3353 C.3     1  UNL1        0.0270
     29 C           4.2325   -2.4783   18.5630 C.3     1  UNL1        0.0862
     30 N           3.6222   -2.8354   19.8859 N.3     1  UNL1       -0.2902
     31 H           4.2151   -3.5553   20.2990 H       1  UNL1        0.1237
     32 C          -2.1893    3.2212   21.2343 C.1     1  UNL1       -0.0404
     33 C          -3.2727    3.7715   22.1136 C.1     1  UNL1       -0.0582
     34 C          -4.3563    4.3219   22.9929 C.ar    1  UNL1        0.0451
     35 C          -5.7512    4.4691   22.4613 C.ar    1  UNL1        0.0097
     36 C          -6.8346    5.0194   23.3406 C.ar    1  UNL1        0.0186
     37 C          -6.5232    5.4225   24.7515 C.ar    1  UNL1        0.0882
     38 C          -5.1283    5.2753   25.2830 C.ar    1  UNL1        0.1534
     39 C          -4.0449    4.7250   24.4037 C.ar    1  UNL1        0.0464
     40 O          -4.8169    5.6783   26.6939 O.3     1  UNL1       -0.4643
     41 C          -5.9004    6.2287   27.5732 C.3     1  UNL1        0.2900
     42 C          -7.2953    6.3759   27.0417 C.2     1  UNL1        0.2740
     43 O          -8.3788    6.9262   27.9210 O.2     1  UNL1       -0.2705
     44 N          -7.6068    5.9728   25.6308 N.am    1  UNL1       -0.2512
     45 C          -9.0016    6.1200   25.0992 C.3     1  UNL1        0.1202
@<TRIPOS>BOND
     1    29    30    1
     2    30    27    1
     3    27    28    1
     4    27    23    1
     5    23    24    2
     6    23    25   am
     7    25     1    1
     8     1     2   ar
     9     2     3   ar
    10     3     4   ar
    11     4     7    1
    12     7     8   ar
    13     8    17    1
    14    17    18   ar
    15    18    19   ar
    16    19    20   ar
    17    20    21   ar
    18    21    22   ar
    19     8     9   ar
    20     9    10   ar
    21    10    11   ar
    22    11    12   ar
    23    12    13    1
    24    12    14   ar
    25    14    15   ar
    26    15    16   ar
    27     4     5   ar
    28     5    32    1
    29    32    33    3
    30    33    34    1
    31    34    35   ar
    32    35    36   ar
    33    36    37   ar
    34    37    38   ar
    35    38    39   ar
    36    38    40    1
    37    40    41    1
    38    41    42    1
    39    42    43    2
    40    42    44   am
    41    44    45    1
    42     5     6   ar
    43     6     1   ar
    44    16     7   ar
    45    39    34   ar
    46    22    17   ar
    47    16    10   ar
    48    44    37    1
    49    30    31    1
    50    25    26    1
@<TRIPOS>MOLECULE
*****
 45 50 0 0 0
SMALL
GASTEIGER

@<TRIPOS>ATOM
      1 C           2.4117    2.4828   34.6769 C.ar    1  UNL1        0.1348
      2 C           1.8779    3.6192   33.8562 C.ar    1  UNL1        0.0346
      3 C           2.1055    3.6454   32.3738 C.ar    1  UNL1        0.0065
      4 C           2.8670    2.5354   31.7121 C.ar    1  UNL1        0.0432
      5 C           3.4008    1.3990   32.5329 C.ar    1  UNL1        0.1256
      6 N           3.1732    1.3727   34.0153 N.ar    1  UNL1       -0.2222
      7 C           3.0946    2.5616   30.2297 C.ar    1  UNL1        0.0850
      8 C           4.3750    2.9299   29.5407 C.ar    1  UNL1        0.0991
      9 N           4.1535    2.8201   28.0612 N.ar    1  UNL1       -0.2265
     10 C           2.7361    2.3840   27.8358 C.ar    1  UNL1        0.1474
     11 C           1.9568    2.1116   26.5834 C.ar    1  UNL1        0.0332
     12 C           0.5231    1.6795   26.6712 C.ar    1  UNL1       -0.0174
     13 C          -0.2561    1.4072   25.4188 C.3     1  UNL1        0.0312
     14 C          -0.1314    1.5197   28.0115 C.ar    1  UNL1        0.0149
     15 C           0.6479    1.7921   29.2639 C.ar    1  UNL1        0.0811
     16 N           2.0817    2.2242   29.1761 N.ar    1  UNL1       -0.2888
     17 C           5.6527    3.3367   30.2131 C.ar    1  UNL1        0.0222
     18 C           5.7738    4.6972   30.8332 C.ar    1  UNL1        0.0222
     19 C           7.0515    5.1039   31.5056 C.ar    1  UNL1        0.0989
     20 N           8.2081    4.1502   31.5579 N.ar    1  UNL1       -0.2423
     21 C           8.0870    2.7898   30.9377 C.ar    1  UNL1        0.0989
     22 C           6.8093    2.3831   30.2653 C.ar    1  UNL1        0.0222
     23 C           3.3074    2.0921   37.0842 C.2     1  UNL1        0.2414
     24 O           4.6583    1.7538   36.5267 O.2     1  UNL1       -0.2733
     25 N           2.1841    2.4565   36.1593 N.am    1  UNL1       -0.2682
     26 H           1.2975    2.6785   36.5252 H       1  UNL1        0.1563
     27 C           3.0797    2.0658   38.5666 C.3     1  UNL1        0.1319
     28 C           3.1354    3.3397   39.3566 C.3     1  UNL1        0.0270
     29 C           1.3919    0.2443   39.3303 C.3     1  UNL1        0.0862
     30 N           2.7965    0.7657   39.2590 N.3     1  UNL1       -0.2902
     31 H           3.3515    0.0528   38.7854 H       1  UNL1        0.1237
     32 C           4.1623    0.2888   31.8712 C.1     1  UNL1       -0.0404
     33 C           4.9238   -0.8212   31.2096 C.1     1  UNL1       -0.0582
     34 C           5.6853   -1.9314   30.5479 C.ar    1  UNL1        0.0451
     35 C           5.8687   -1.9317   29.0592 C.ar    1  UNL1        0.0097
     36 C           6.6302   -3.0418   28.3976 C.ar    1  UNL1        0.0186
     37 C           7.2083   -4.1517   29.2247 C.ar    1  UNL1        0.0882
     38 C           7.0248   -4.1514   30.7135 C.ar    1  UNL1        0.1534
     39 C           6.2634   -3.0412   31.3750 C.ar    1  UNL1        0.0464
     40 O           7.6029   -5.2612   31.5406 O.3     1  UNL1       -0.4643
     41 C           8.3644   -6.3713   30.8790 C.3     1  UNL1        0.2900
     42 C           8.5478   -6.3716   29.3902 C.2     1  UNL1        0.2740
     43 O           9.3093   -7.4818   28.7286 O.2     1  UNL1       -0.2705
     44 N           7.9698   -5.2618   28.5631 N.am    1  UNL1       -0.2512
     45 C           8.1532   -5.2621   27.0744 C.3     1  UNL1        0.1202
@<TRIPOS>BOND
     1    29    30    1
     2    30    27    1
     3    27    28    1
     4    27    23    1
     5    23    24    2
     6    23    25   am
     7    25     1    1
     8     1     2   ar
     9     2     3   ar
    10     3     4   ar
    11     4     7    1
    12     7     8   ar
    13     8    17    1
    14    17    18   ar
    15    18    19   ar
    16    19    20   ar
    17    20    21   ar
    18    21    22   ar
    19     8     9   ar
    20     9    10   ar
    21    10    11   ar
    22    11    12   ar
    23    12    13    1
    24    12    14   ar
    25    14    15   ar
    26    15    16   ar
    27     4     5   ar
    28     5    32    1
    29    32    33    3
    30    33    34    1
    31    34    35   ar
    32    35    36   ar
    33    36    37   ar
    34    37    38   ar
    35    38    39   ar
    36    38    40    1
    37    40    41    1
    38    41    42    1
    39    42    43    2
    40    42    44   am
    41    44    45    1
    42     5     6   ar
    43     6     1   ar
    44    16     7   ar
    45    39    34   ar
    46    22    17   ar
    47    16    10   ar
    48    44    37    1
    49    30    31    1
    50    25    26    1
@<TRIPOS>MOLECULE
*****
 45 50 0 0 0
SMALL
GASTEIGER

@<TRIPOS>ATOM
      1 C           5.3460   -3.5398   22.7245 C.ar    1  UNL1        0.1348
      2 C           6.6148   -4.1770   23.2084 C.ar    1  UNL1        0.0346
      3 C           7.1566   -3.8340   24.5644 C.ar    1  UNL1        0.0065
      4 C           6.4297   -2.8537   25.4365 C.ar    1  UNL1        0.0432
      5 C           5.1609   -2.2164   24.9526 C.ar    1  UNL1        0.1256
      6 N           4.6191   -2.5595   23.5966 N.ar    1  UNL1       -0.2222
      7 C           6.9715   -2.5106   26.7925 C.ar    1  UNL1        0.0850
      8 C           7.6321   -1.2201   27.1774 C.ar    1  UNL1        0.0991
      9 N           8.0167   -1.3098   28.6245 N.ar    1  UNL1       -0.2265
     10 C           7.5938   -2.6557   29.1340 C.ar    1  UNL1        0.1474
     11 C           7.7135   -3.3014   30.4826 C.ar    1  UNL1        0.0332
     12 C           7.1871   -4.6893   30.6990 C.ar    1  UNL1       -0.0174
     13 C           7.3068   -5.3350   32.0476 C.3     1  UNL1        0.0312
     14 C           6.5411   -5.4315   29.5668 C.ar    1  UNL1        0.0149
     15 C           6.4215   -4.7858   28.2182 C.ar    1  UNL1        0.0811
     16 N           6.9478   -3.3979   28.0018 N.ar    1  UNL1       -0.2888
     17 C           7.8669   -0.0461   26.2739 C.ar    1  UNL1        0.0222
     18 C           7.1318    1.2402   26.5091 C.ar    1  UNL1        0.0222
     19 C           7.3666    2.4143   25.6056 C.ar    1  UNL1        0.0989
     20 N           8.3365    2.3022   24.4668 N.ar    1  UNL1       -0.2423
     21 C           9.0715    1.0160   24.2316 C.ar    1  UNL1        0.0989
     22 C           8.8367   -0.1581   25.1352 C.ar    1  UNL1        0.0222
     23 C           5.4924   -3.3762   20.1358 C.2     1  UNL1        0.2414
     24 O           6.7225   -2.5266   20.2590 O.2     1  UNL1       -0.2733
     25 N           4.8042   -3.8828   21.3685 N.am    1  UNL1       -0.2682
     26 H           3.9969   -4.4404   21.2876 H       1  UNL1        0.1563
     27 C           4.9506   -3.7193   18.7797 C.3     1  UNL1        0.1319
     28 C           4.4076   -5.0922   18.5144 C.3     1  UNL1        0.0270
     29 C           4.2641   -1.3731   17.8999 C.3     1  UNL1        0.0862
     30 N           4.9517   -2.6895   17.6891 N.3     1  UNL1       -0.2902
     31 H           5.9284   -2.4816   17.4815 H       1  UNL1        0.1237
     32 C           4.4340   -1.2361   25.8248 C.1     1  UNL1       -0.0404
     33 C           3.7071   -0.2558   26.6968 C.1     1  UNL1       -0.0582
     34 C           2.9801    0.7245   27.5690 C.ar    1  UNL1        0.0451
     35 C           2.5203    2.0351   27.0025 C.ar    1  UNL1        0.0097
     36 C           1.7933    3.0153   27.8746 C.ar    1  UNL1        0.0186
     37 C           1.5262    2.6850   29.3132 C.ar    1  UNL1        0.0882
     38 C           1.9860    1.3745   29.8797 C.ar    1  UNL1        0.1534
     39 C           2.7129    0.3942   29.0076 C.ar    1  UNL1        0.0464
     40 O           1.7189    1.0441   31.3182 O.3     1  UNL1       -0.4643
     41 C           0.9919    2.0244   32.1904 C.3     1  UNL1        0.2900
     42 C           0.5321    3.3350   31.6239 C.2     1  UNL1        0.2740
     43 O          -0.1949    4.3153   32.4960 O.2     1  UNL1       -0.2705
     44 N           0.7992    3.6654   30.1853 N.am    1  UNL1       -0.2512
     45 C           0.3394    4.9759   29.6188 C.3     1  UNL1        0.1202
@<TRIPOS>BOND
     1    29    30    1
     2    30    27    1
     3    27    28    1
     4    27    23    1
     5    23    24    2
     6    23    25   am
     7    25     1    1
     8     1     2   ar
     9     2     3   ar
    10     3     4   ar
    11     4     7    1
    12     7     8   ar
    13     8    17    1
    14    17    18   ar
    15    18    19   ar
    16    19    20   ar
    17    20    21   ar
    18    21    22   ar
    19     8     9   ar
    20     9    10   ar
    21    10    11   ar
    22    11    12   ar
    23    12    13    1
    24    12    14   ar
    25    14    15   ar
    26    15    16   ar
    27     4     5   ar
    28     5    32    1
    29    32    33    3
    30    33    34    1
    31    34    35   ar
    32    35    36   ar
    33    36    37   ar
    34    37    38   ar
    35    38    39   ar
    36    38    40    1
    37    40    41    1
    38    41    42    1
    39    42    43    2
    40    42    44   am
    41    44    45    1
    42     5     6   ar
    43     6     1   ar
    44    16     7   ar
    45    39    34   ar
    46    22    17   ar
    47    16    10   ar
    48    44    37    1
    49    30    31    1
    50    25    26    1
@<TRIPOS>MOLECULE
*****
 45 50 0 0 0
SMALL
GASTEIGER

@<TRIPOS>ATOM
      1 C          -3.5182    4.5090   24.5864 C.ar    1  UNL1        0.1348
      2 C          -2.9999    4.8414   25.9542 C.ar    1  UNL1        0.0346
      3 C          -1.6154    4.4246   26.3533 C.ar    1  UNL1        0.0065
      4 C          -0.7492    3.6753   25.3847 C.ar    1  UNL1        0.0432
      5 C          -1.2675    3.3429   24.0170 C.ar    1  UNL1        0.1256
      6 N          -2.6521    3.7597   23.6178 N.ar    1  UNL1       -0.2222
      7 C           0.6353    3.2584   25.7838 C.ar    1  UNL1        0.0850
      8 C           1.9161    3.8247   25.2462 C.ar    1  UNL1        0.0991
      9 N           3.0545    3.1183   25.9208 N.ar    1  UNL1       -0.2265
     10 C           2.4774    2.1155   26.8753 C.ar    1  UNL1        0.1474
     11 C           3.1201    1.1346   27.8107 C.ar    1  UNL1        0.0332
     12 C           2.2677    0.2404   28.6613 C.ar    1  UNL1       -0.0174
     13 C           2.9104   -0.7405   29.5967 C.3     1  UNL1        0.0312
     14 C           0.7725    0.3269   28.5767 C.ar    1  UNL1        0.0149
     15 C           0.1298    1.3077   27.6414 C.ar    1  UNL1        0.0811
     16 N           0.9823    2.2020   26.7907 N.ar    1  UNL1       -0.2888
     17 C           2.0371    4.9073   24.2151 C.ar    1  UNL1        0.0222
     18 C           1.3607    6.2286   24.4318 C.ar    1  UNL1        0.0222
     19 C           1.4818    7.3112   23.4006 C.ar    1  UNL1        0.0989
     20 N           2.2792    7.0726   22.1527 N.ar    1  UNL1       -0.2423
     21 C           2.9556    5.7514   21.9360 C.ar    1  UNL1        0.0989
     22 C           2.8345    4.6688   22.9672 C.ar    1  UNL1        0.0222
     23 C          -5.7159    4.0532   23.2778 C.2     1  UNL1        0.2414
     24 O          -5.1445    2.7635   22.7674 O.2     1  UNL1       -0.2733
     25 N          -4.9028    4.9259   24.1873 N.am    1  UNL1       -0.2682
     26 H          -5.2778    5.7723   24.5223 H       1  UNL1        0.1563
     27 C          -7.1004    4.4700   22.8787 C.3     1  UNL1        0.1319
     28 C          -8.1405    4.7210   23.9301 C.3     1  UNL1        0.0270
     29 C          -7.3965    5.9957   20.7967 C.3     1  UNL1        0.0862
     30 N          -7.4449    4.6360   21.4283 N.3     1  UNL1       -0.2902
     31 H          -6.8010    4.0443   20.9032 H       1  UNL1        0.1237
     32 C          -0.4013    2.5935   23.0483 C.1     1  UNL1       -0.0404
     33 C           0.4649    1.8443   22.0796 C.1     1  UNL1       -0.0582
     34 C           1.3311    1.0949   21.1110 C.ar    1  UNL1        0.0451
     35 C           1.2841    1.4288   19.6494 C.ar    1  UNL1        0.0097
     36 C           2.1503    0.6795   18.6808 C.ar    1  UNL1        0.0186
     37 C           3.0634   -0.4037   19.1737 C.ar    1  UNL1        0.0882
     38 C           3.1103   -0.7375   20.6353 C.ar    1  UNL1        0.1534
     39 C           2.2442    0.0118   21.6039 C.ar    1  UNL1        0.0464
     40 O           4.0234   -1.8207   21.1283 O.3     1  UNL1       -0.4643
     41 C           4.8896   -2.5700   20.1597 C.3     1  UNL1        0.2900
     42 C           4.8427   -2.2361   18.6980 C.2     1  UNL1        0.2740
     43 O           5.7089   -2.9854   17.7294 O.2     1  UNL1       -0.2705
     44 N           3.9296   -1.1530   18.2050 N.am    1  UNL1       -0.2512
     45 C           3.8826   -0.8192   16.7434 C.3     1  UNL1        0.1202
@<TRIPOS>BOND
     1    29    30    1
     2    30    27    1
     3    27    28    1
     4    27    23    1
     5    23    24    2
     6    23    25   am
     7    25     1    1
     8     1     2   ar
     9     2     3   ar
    10     3     4   ar
    11     4     7    1
    12     7     8   ar
    13     8    17    1
    14    17    18   ar
    15    18    19   ar
    16    19    20   ar
    17    20    21   ar
    18    21    22   ar
    19     8     9   ar
    20     9    10   ar
    21    10    11   ar
    22    11    12   ar
    23    12    13    1
    24    12    14   ar
    25    14    15   ar
    26    15    16   ar
    27     4     5   ar
    28     5    32    1
    29    32    33    3
    30    33    34    1
    31    34    35   ar
    32    35    36   ar
    33    36    37   ar
    34    37    38   ar
    35    38    39   ar
    36    38    40    1
    37    40    41    1
    38    41    42    1
    39    42    43    2
    40    42    44   am
    41    44    45    1
    42     5     6   ar
    43     6     1   ar
    44    16     7   ar
    45    39    34   ar
    46    22    17   ar
    47    16    10   ar
    48    44    37    1
    49    30    31    1
    50    25    26    1
