@<TRIPOS>MOLECULE
*****
 33 35 0 0 0
SMALL
GASTEIGER

@<TRIPOS>ATOM
      1 C          -8.6606  -17.7419   22.8188 C.2     1  UNL1        0.2439
      2 O          -7.1823  -17.9690   22.9336 O.2     1  UNL1       -0.2731
      3 N          -9.4037  -18.2351   21.6127 N.am    1  UNL1       -0.2730
      4 C         -10.8744  -18.0824   21.3599 C.3     1  UNL1        0.0939
      5 C         -11.1863  -18.7205   20.0387 C.3     1  UNL1        0.0237
      6 C          -9.9084  -19.2675   19.4750 C.3     1  UNL1        0.0293
      7 C          -8.8068  -18.9675   20.4478 C.3     1  UNL1        0.1319
      8 C          -7.3618  -19.3353   20.2843 C.ar    1  UNL1        0.1358
      9 N          -6.8232  -20.7183   20.0667 N.ar    1  UNL1       -0.2228
     10 C          -5.3302  -20.6225   19.9577 C.ar    1  UNL1        0.1321
     11 BR         -4.3870  -21.7678   19.7371 Br      1  UNL1       -0.0265
     12 C          -4.9461  -19.1803   20.1079 C.ar    1  UNL1        0.0818
     13 N          -6.2017  -18.3848   20.3098 N.ar    1  UNL1       -0.3391
     14 H          -6.2550  -17.4100   20.4368 H       1  UNL1        0.1672
     15 C          -3.5513  -18.6302   20.0640 C.ar    1  UNL1        0.0177
     16 C          -2.8227  -18.3304   21.3404 C.ar    1  UNL1        0.0033
     17 C          -1.4280  -17.7803   21.2965 C.ar    1  UNL1        0.0262
     18 C          -0.7618  -17.5299   19.9761 C.ar    1  UNL1        0.1641
     19 C          -1.4903  -17.8297   18.6996 C.ar    1  UNL1        0.0262
     20 C          -2.8850  -18.3798   18.7436 C.ar    1  UNL1        0.0033
     21 N           0.6331  -16.9798   19.9321 N.2     1  UNL1        0.1168
     22 N           1.7377  -17.6766   20.6698 N.2     1  UNL1       -0.0090
     23 N           2.8424  -18.3734   21.4074 N.2     1  UNL1       -0.3278
     24 C          -9.3957  -17.0215   23.9100 C.3     1  UNL1        0.1512
     25 C         -11.3701  -18.5339   24.6613 C.2     1  UNL1        0.4021
     26 O         -10.3990  -19.6102   25.0469 O.2     1  UNL1       -0.2264
     27 N         -10.8685  -17.2396   24.0928 N.am    1  UNL1       -0.2640
     28 H         -11.5059  -16.5333   23.8397 H       1  UNL1        0.1532
     29 C         -13.8225  -18.0282   23.9686 C.3     1  UNL1        0.2573
     30 O         -12.8428  -18.7520   24.8441 O.3     1  UNL1       -0.4306
     31 C          -8.6581  -16.0831   24.8183 C.3     1  UNL1        0.0270
     32 C          -7.9464  -14.8920   24.2484 C.3     1  UNL1        0.0022
     33 C          -8.6321  -16.3356   26.2968 C.3     1  UNL1        0.0022
@<TRIPOS>UNITY_ATOM_ATTR
22 1
charge 1
23 1
charge -1
@<TRIPOS>BOND
     1    29    30    1
     2    30    25    1
     3    25    26    2
     4    25    27   am
     5    24    27    1
     6    24     1    1
     7     1     2    2
     8     1     3   am
     9     3     4    1
    10     4     5    1
    11     5     6    1
    12     6     7    1
    13     7     8    1
    14     8     9   ar
    15     9    10   ar
    16    10    11    1
    17    10    12   ar
    18    12    15    1
    19    15    16   ar
    20    16    17   ar
    21    17    18   ar
    22    18    21    1
    23    21    22    2
    24    22    23    2
    25    18    19   ar
    26    19    20   ar
    27    12    13   ar
    28    24    31    1
    29    31    32    1
    30    31    33    1
    31     7     3    1
    32    13     8   ar
    33    20    15   ar
    34    27    28    1
    35    13    14    1
@<TRIPOS>MOLECULE
*****
 33 35 0 0 0
SMALL
GASTEIGER

@<TRIPOS>ATOM
      1 C          -9.0484  -17.7178   22.3961 C.2     1  UNL1        0.2439
      2 O          -7.5808  -17.8949   22.6504 O.2     1  UNL1       -0.2731
      3 N          -9.6713  -18.2996   21.1618 N.am    1  UNL1       -0.2730
      4 C         -11.1176  -18.2043   20.7753 C.3     1  UNL1        0.0939
      5 C         -11.2975  -18.9246   19.4719 C.3     1  UNL1        0.0237
      6 C          -9.9625  -19.4651   19.0529 C.3     1  UNL1        0.0293
      7 C          -8.9575  -19.0788   20.0973 C.3     1  UNL1        0.1319
      8 C          -7.4953  -19.4130   20.0802 C.ar    1  UNL1        0.1358
      9 N          -6.9064  -20.7923   20.0494 N.ar    1  UNL1       -0.2228
     10 C          -5.4125  -20.6583   20.0410 C.ar    1  UNL1        0.1321
     11 BR         -4.4262  -21.7881   20.0122 Br      1  UNL1       -0.0265
     12 C          -5.0780  -19.1963   20.0666 C.ar    1  UNL1        0.0818
     13 N          -6.3653  -18.4267   20.0908 N.ar    1  UNL1       -0.3391
     14 H          -6.4530  -17.4463   20.1102 H       1  UNL1        0.1672
     15 C          -3.6984  -18.6073   20.0678 C.ar    1  UNL1        0.0177
     16 C          -3.0062  -18.3159   18.7694 C.ar    1  UNL1        0.0033
     17 C          -1.6267  -17.7270   18.7706 C.ar    1  UNL1        0.0262
     18 C          -0.9394  -17.4294   20.0703 C.ar    1  UNL1        0.1641
     19 C          -1.6316  -17.7208   21.3687 C.ar    1  UNL1        0.0262
     20 C          -3.0111  -18.3098   21.3674 C.ar    1  UNL1        0.0033
     21 N           0.4402  -16.8404   20.0715 N.2     1  UNL1        0.1168
     22 N           1.5778  -17.5961   20.6917 N.2     1  UNL1       -0.0090
     23 N           2.7154  -18.3518   21.3120 N.2     1  UNL1       -0.3278
     24 C          -9.8932  -16.9588   23.3761 C.3     1  UNL1        0.1512
     25 C          -8.8338  -16.2187   25.6299 C.2     1  UNL1        0.4021
     26 O          -9.0115  -17.6070   26.1694 O.2     1  UNL1       -0.2264
     27 N          -9.2746  -15.8946   24.2333 N.am    1  UNL1       -0.2640
     28 H          -9.1579  -14.9834   23.8792 H       1  UNL1        0.1532
     29 C          -6.9315  -15.4283   27.2132 C.3     1  UNL1        0.2573
     30 O          -8.2152  -15.1544   26.4870 O.3     1  UNL1       -0.4306
     31 C         -11.3566  -17.2641   23.4989 C.3     1  UNL1        0.0270
     32 C         -12.3712  -16.3099   22.9420 C.3     1  UNL1        0.0022
     33 C         -11.8057  -18.5237   24.1786 C.3     1  UNL1        0.0022
@<TRIPOS>UNITY_ATOM_ATTR
22 1
charge 1
23 1
charge -1
@<TRIPOS>BOND
     1    29    30    1
     2    30    25    1
     3    25    26    2
     4    25    27   am
     5    24    27    1
     6    24     1    1
     7     1     2    2
     8     1     3   am
     9     3     4    1
    10     4     5    1
    11     5     6    1
    12     6     7    1
    13     7     8    1
    14     8     9   ar
    15     9    10   ar
    16    10    11    1
    17    10    12   ar
    18    12    15    1
    19    15    16   ar
    20    16    17   ar
    21    17    18   ar
    22    18    21    1
    23    21    22    2
    24    22    23    2
    25    18    19   ar
    26    19    20   ar
    27    12    13   ar
    28    24    31    1
    29    31    32    1
    30    31    33    1
    31     7     3    1
    32    13     8   ar
    33    20    15   ar
    34    27    28    1
    35    13    14    1
@<TRIPOS>MOLECULE
*****
 33 35 0 0 0
SMALL
GASTEIGER

@<TRIPOS>ATOM
      1 C          -5.0367  -18.0587   22.3586 C.2     1  UNL1        0.2439
      2 O          -6.4771  -17.6554   22.4702 O.2     1  UNL1       -0.2731
      3 N          -4.6356  -19.1554   21.4170 N.am    1  UNL1       -0.2730
      4 C          -3.2416  -19.6645   21.1992 C.3     1  UNL1        0.0939
      5 C          -3.3026  -20.7592   20.1755 C.3     1  UNL1        0.0237
      6 C          -4.7343  -20.9267   19.7607 C.3     1  UNL1        0.0293
      7 C          -5.5581  -19.9355   20.5280 C.3     1  UNL1        0.1319
      8 C          -7.0437  -19.7558   20.4245 C.ar    1  UNL1        0.1358
      9 N          -7.8720  -19.9549   19.1898 N.ar    1  UNL1       -0.2228
     10 C          -9.3021  -19.6677   19.5397 C.ar    1  UNL1        0.1321
     11 BR        -10.4713  -19.7437   18.6031 Br      1  UNL1       -0.0265
     12 C          -9.3577  -19.2912   20.9906 C.ar    1  UNL1        0.0818
     13 N          -7.9620  -19.3457   21.5374 N.ar    1  UNL1       -0.3391
     14 H          -7.6954  -19.1471   22.4641 H       1  UNL1        0.1672
     15 C         -10.5923  -18.9246   21.7598 C.ar    1  UNL1        0.0177
     16 C         -11.7080  -18.1875   21.0802 C.ar    1  UNL1        0.0033
     17 C         -12.9425  -17.8209   21.8494 C.ar    1  UNL1        0.0262
     18 C         -13.0613  -18.1915   23.2980 C.ar    1  UNL1        0.1641
     19 C         -11.9456  -18.9286   23.9775 C.ar    1  UNL1        0.0262
     20 C         -10.7111  -19.2952   23.2084 C.ar    1  UNL1        0.0033
     21 N         -14.2958  -17.8249   24.0671 N.2     1  UNL1        0.1168
     22 N         -14.5116  -18.3750   25.4458 N.2     1  UNL1       -0.0090
     23 N         -14.7273  -18.9251   26.8246 N.2     1  UNL1       -0.3278
     24 C          -3.9972  -17.3654   23.1886 C.3     1  UNL1        0.1512
     25 C          -5.0900  -15.5671   24.7124 C.2     1  UNL1        0.4021
     26 O          -5.4873  -14.7801   23.4988 O.2     1  UNL1       -0.2264
     27 N          -4.3449  -16.8597   24.5573 N.am    1  UNL1       -0.2640
     28 H          -4.0842  -17.3762   25.3538 H       1  UNL1        0.1532
     29 C          -6.6797  -15.5480   26.7673 C.3     1  UNL1        0.2573
     30 O          -5.4376  -15.0615   26.0811 O.3     1  UNL1       -0.4306
     31 C          -2.6100  -17.1777   22.6498 C.3     1  UNL1        0.0270
     32 C          -1.5173  -18.1265   23.0446 C.3     1  UNL1        0.0022
     33 C          -2.3153  -16.0413   21.7160 C.3     1  UNL1        0.0022
@<TRIPOS>UNITY_ATOM_ATTR
22 1
charge 1
23 1
charge -1
@<TRIPOS>BOND
     1    29    30    1
     2    30    25    1
     3    25    26    2
     4    25    27   am
     5    24    27    1
     6    24     1    1
     7     1     2    2
     8     1     3   am
     9     3     4    1
    10     4     5    1
    11     5     6    1
    12     6     7    1
    13     7     8    1
    14     8     9   ar
    15     9    10   ar
    16    10    11    1
    17    10    12   ar
    18    12    15    1
    19    15    16   ar
    20    16    17   ar
    21    17    18   ar
    22    18    21    1
    23    21    22    2
    24    22    23    2
    25    18    19   ar
    26    19    20   ar
    27    12    13   ar
    28    24    31    1
    29    31    32    1
    30    31    33    1
    31     7     3    1
    32    13     8   ar
    33    20    15   ar
    34    27    28    1
    35    13    14    1
@<TRIPOS>MOLECULE
*****
 33 35 0 0 0
SMALL
GASTEIGER

@<TRIPOS>ATOM
      1 C           5.2204   -1.1340   20.3948 C.2     1  UNL1        0.2439
      2 O           6.1841   -1.0219   21.5387 O.2     1  UNL1       -0.2731
      3 N           4.5873   -2.4555   20.0741 N.am    1  UNL1       -0.2730
      4 C           3.6107   -2.7197   18.9667 C.3     1  UNL1        0.0939
      5 C           3.2395   -4.1723   19.0127 C.3     1  UNL1        0.0237
      6 C           3.9868   -4.8059   20.1485 C.3     1  UNL1        0.0293
      7 C           4.8198   -3.7449   20.8045 C.3     1  UNL1        0.1319
      8 C           5.7261   -3.9391   21.9838 C.ar    1  UNL1        0.1358
      9 N           7.1580   -4.3828   21.9317 N.ar    1  UNL1       -0.2228
     10 C           7.6765   -4.4417   23.3380 C.ar    1  UNL1        0.1321
     11 BR          9.0631   -4.8383   23.7506 Br      1  UNL1       -0.0265
     12 C           6.5651   -4.0343   24.2592 C.ar    1  UNL1        0.0818
     13 N           5.3597   -3.7237   23.4223 N.ar    1  UNL1       -0.3391
     14 H           4.4821   -3.4300   23.7582 H       1  UNL1        0.1672
     15 C           6.6450   -3.9519   25.7549 C.ar    1  UNL1        0.0177
     16 C           6.5760   -5.2029   26.5797 C.ar    1  UNL1        0.0033
     17 C           6.6559   -5.1205   28.0752 C.ar    1  UNL1        0.0262
     18 C           6.8049   -3.7872   28.7460 C.ar    1  UNL1        0.1641
     19 C           6.8739   -2.5362   27.9213 C.ar    1  UNL1        0.0262
     20 C           6.7940   -2.6186   26.4257 C.ar    1  UNL1        0.0033
     21 N           6.8848   -3.7048   30.2417 N.2     1  UNL1        0.1168
     22 N           6.8682   -4.9593   31.0638 N.2     1  UNL1       -0.0090
     23 N           6.8515   -6.2138   31.8861 N.2     1  UNL1       -0.3278
     24 C           4.8897    0.0754   19.5714 C.3     1  UNL1        0.1512
     25 C           6.0158    0.1040   17.2302 C.2     1  UNL1        0.4021
     26 O           5.1047   -0.9987   16.7785 O.2     1  UNL1       -0.2264
     27 N           5.9083    0.6410   18.6266 N.am    1  UNL1       -0.2640
     28 H           6.5063    1.3648   18.9231 H       1  UNL1        0.1532
     29 C           8.0566    1.6483   16.7829 C.3     1  UNL1        0.2573
     30 O           7.0344    0.6696   16.2855 O.3     1  UNL1       -0.4306
     31 C           3.5404    0.7193   19.6928 C.3     1  UNL1        0.0270
     32 C           3.0380    1.1604   21.0356 C.3     1  UNL1        0.0022
     33 C           2.6934    0.9221   18.4715 C.3     1  UNL1        0.0022
@<TRIPOS>UNITY_ATOM_ATTR
22 1
charge 1
23 1
charge -1
@<TRIPOS>BOND
     1    29    30    1
     2    30    25    1
     3    25    26    2
     4    25    27   am
     5    24    27    1
     6    24     1    1
     7     1     2    2
     8     1     3   am
     9     3     4    1
    10     4     5    1
    11     5     6    1
    12     6     7    1
    13     7     8    1
    14     8     9   ar
    15     9    10   ar
    16    10    11    1
    17    10    12   ar
    18    12    15    1
    19    15    16   ar
    20    16    17   ar
    21    17    18   ar
    22    18    21    1
    23    21    22    2
    24    22    23    2
    25    18    19   ar
    26    19    20   ar
    27    12    13   ar
    28    24    31    1
    29    31    32    1
    30    31    33    1
    31     7     3    1
    32    13     8   ar
    33    20    15   ar
    34    27    28    1
    35    13    14    1
@<TRIPOS>MOLECULE
*****
 33 35 0 0 0
SMALL
GASTEIGER

@<TRIPOS>ATOM
      1 C           4.2765   -1.0365   21.1794 C.2     1  UNL1        0.2439
      2 O           5.1888   -0.9128   22.3635 O.2     1  UNL1       -0.2731
      3 N           4.0404   -2.3781   20.5514 N.am    1  UNL1       -0.2730
      4 C           3.1595   -2.6556   19.3693 C.3     1  UNL1        0.0939
      5 C           3.2184   -4.1267   19.0826 C.3     1  UNL1        0.0237
      6 C           4.1357   -4.7584   20.0873 C.3     1  UNL1        0.0293
      7 C           4.6436   -3.6777   20.9951 C.3     1  UNL1        0.1319
      8 C           5.5889   -3.8640   22.1447 C.ar    1  UNL1        0.1358
      9 N           7.0329   -4.2577   22.0441 N.ar    1  UNL1       -0.2228
     10 C           7.5926   -4.3263   23.4340 C.ar    1  UNL1        0.1321
     11 BR          9.0027   -4.6834   23.8000 Br      1  UNL1       -0.0265
     12 C           6.4946   -3.9750   24.3937 C.ar    1  UNL1        0.0818
     13 N           5.2563   -3.6893   23.5969 N.ar    1  UNL1       -0.3391
     14 H           4.3792   -3.4323   23.9628 H       1  UNL1        0.1672
     15 C           6.6140   -3.9192   25.8880 C.ar    1  UNL1        0.0177
     16 C           6.5849   -5.1861   26.6905 C.ar    1  UNL1        0.0033
     17 C           6.7042   -5.1302   28.1847 C.ar    1  UNL1        0.0262
     18 C           6.8527   -3.8075   28.8763 C.ar    1  UNL1        0.1641
     19 C           6.8818   -2.5406   28.0738 C.ar    1  UNL1        0.0262
     20 C           6.7624   -2.5965   26.5796 C.ar    1  UNL1        0.0033
     21 N           6.9720   -3.7517   30.3706 N.2     1  UNL1        0.1168
     22 N           6.9129   -5.0161   31.1754 N.2     1  UNL1       -0.0090
     23 N           6.8537   -6.2805   31.9804 N.2     1  UNL1       -0.3278
     24 C           3.6001    0.1814   20.6232 C.3     1  UNL1        0.1512
     25 C           1.0826    0.5682   20.1107 C.2     1  UNL1        0.4021
     26 O           1.3211    0.2150   18.6725 O.2     1  UNL1       -0.2264
     27 N           2.2221    0.5514   21.0860 N.am    1  UNL1       -0.2640
     28 H           2.0656    0.7832   22.0299 H       1  UNL1        0.1532
     29 C          -0.6192    2.3664   20.8981 C.3     1  UNL1        0.2573
     30 O          -0.2953    0.9382   20.5736 O.3     1  UNL1       -0.4306
     31 C           4.3019    1.0293   19.6040 C.3     1  UNL1        0.0270
     32 C           4.9040    0.3938   18.3860 C.3     1  UNL1        0.0022
     33 C           4.4015    2.5128   19.8028 C.3     1  UNL1        0.0022
@<TRIPOS>UNITY_ATOM_ATTR
22 1
charge 1
23 1
charge -1
@<TRIPOS>BOND
     1    29    30    1
     2    30    25    1
     3    25    26    2
     4    25    27   am
     5    24    27    1
     6    24     1    1
     7     1     2    2
     8     1     3   am
     9     3     4    1
    10     4     5    1
    11     5     6    1
    12     6     7    1
    13     7     8    1
    14     8     9   ar
    15     9    10   ar
    16    10    11    1
    17    10    12   ar
    18    12    15    1
    19    15    16   ar
    20    16    17   ar
    21    17    18   ar
    22    18    21    1
    23    21    22    2
    24    22    23    2
    25    18    19   ar
    26    19    20   ar
    27    12    13   ar
    28    24    31    1
    29    31    32    1
    30    31    33    1
    31     7     3    1
    32    13     8   ar
    33    20    15   ar
    34    27    28    1
    35    13    14    1
@<TRIPOS>MOLECULE
*****
 33 35 0 0 0
SMALL
GASTEIGER

@<TRIPOS>ATOM
      1 C           3.7576   -1.2988   21.1449 C.2     1  UNL1        0.2439
      2 O           4.5519   -1.1680   22.4105 O.2     1  UNL1       -0.2731
      3 N           2.4746   -0.5388   20.9826 N.am    1  UNL1       -0.2730
      4 C           1.5778   -0.5693   19.7806 C.3     1  UNL1        0.0939
      5 C           0.4121    0.3357   20.0490 C.3     1  UNL1        0.0237
      6 C           0.5885    0.9256   21.4168 C.3     1  UNL1        0.0293
      7 C           1.8632    0.3851   21.9938 C.3     1  UNL1        0.1319
      8 C           2.4274    0.7112   23.3448 C.ar    1  UNL1        0.1358
      9 N           3.4475    1.7701   23.6421 N.ar    1  UNL1       -0.2228
     10 C           3.7212    1.7491   25.1168 C.ar    1  UNL1        0.1321
     11 BR          4.6778    2.6429   25.8487 Br      1  UNL1       -0.0265
     12 C           2.8703    0.6773   25.7309 C.ar    1  UNL1        0.0818
     13 N           2.0707    0.0358   24.6357 N.ar    1  UNL1       -0.3391
     14 H           1.4251   -0.6993   24.7451 H       1  UNL1        0.1672
     15 C           2.8266    0.3111   27.1849 C.ar    1  UNL1        0.0177
     16 C           1.6823    0.7692   28.0396 C.ar    1  UNL1        0.0033
     17 C           1.6387    0.4030   29.4936 C.ar    1  UNL1        0.0262
     18 C           2.7394   -0.4213   30.0927 C.ar    1  UNL1        0.1641
     19 C           3.8837   -0.8794   29.2380 C.ar    1  UNL1        0.0262
     20 C           3.9273   -0.5132   27.7841 C.ar    1  UNL1        0.0033
     21 N           2.6957   -0.7875   31.5468 N.2     1  UNL1        0.1168
     22 N           3.7679   -1.6567   32.1338 N.2     1  UNL1       -0.0090
     23 N           4.8402   -2.5260   32.7209 N.2     1  UNL1       -0.3278
     24 C           4.2463   -2.1896   20.0414 C.3     1  UNL1        0.1512
     25 C           6.2592   -1.6078   18.5053 C.2     1  UNL1        0.4021
     26 O           7.1969   -2.2251   19.5002 O.2     1  UNL1       -0.2264
     27 N           4.7840   -1.5901   18.7759 N.am    1  UNL1       -0.2640
     28 H           4.1686   -1.1850   18.1229 H       1  UNL1        0.1532
     29 C           6.6237    0.4574   16.9717 C.3     1  UNL1        0.2573
     30 O           6.7968   -1.0083   17.2398 O.3     1  UNL1       -0.4306
     31 C           4.1973   -3.6800   20.2034 C.3     1  UNL1        0.0270
     32 C           4.3287   -4.2909   21.5671 C.3     1  UNL1        0.0022
     33 C           4.0169   -4.5597   19.0018 C.3     1  UNL1        0.0022
@<TRIPOS>UNITY_ATOM_ATTR
22 1
charge 1
23 1
charge -1
@<TRIPOS>BOND
     1    29    30    1
     2    30    25    1
     3    25    26    2
     4    25    27   am
     5    24    27    1
     6    24     1    1
     7     1     2    2
     8     1     3   am
     9     3     4    1
    10     4     5    1
    11     5     6    1
    12     6     7    1
    13     7     8    1
    14     8     9   ar
    15     9    10   ar
    16    10    11    1
    17    10    12   ar
    18    12    15    1
    19    15    16   ar
    20    16    17   ar
    21    17    18   ar
    22    18    21    1
    23    21    22    2
    24    22    23    2
    25    18    19   ar
    26    19    20   ar
    27    12    13   ar
    28    24    31    1
    29    31    32    1
    30    31    33    1
    31     7     3    1
    32    13     8   ar
    33    20    15   ar
    34    27    28    1
    35    13    14    1
@<TRIPOS>MOLECULE
*****
 33 35 0 0 0
SMALL
GASTEIGER

@<TRIPOS>ATOM
      1 C           5.1946   -3.0801   21.6855 C.2     1  UNL1        0.2439
      2 O           4.9522   -3.8058   22.9756 O.2     1  UNL1       -0.2731
      3 N           6.5706   -3.0499   21.0890 N.am    1  UNL1       -0.2730
      4 C           6.9631   -2.3683   19.8118 C.3     1  UNL1        0.0939
      5 C           8.4307   -2.5932   19.5984 C.3     1  UNL1        0.0237
      6 C           8.9452   -3.4138   20.7437 C.3     1  UNL1        0.0293
      7 C           7.7956   -3.6961   21.6649 C.3     1  UNL1        0.1319
      8 C           7.8597   -4.4859   22.9385 C.ar    1  UNL1        0.1358
      9 N           8.0340   -5.9718   23.0467 N.ar    1  UNL1       -0.2228
     10 C           8.0428   -6.3327   24.5026 C.ar    1  UNL1        0.1321
     11 BR          8.1940   -7.7140   25.0677 Br      1  UNL1       -0.0265
     12 C           7.8740   -5.0699   25.2942 C.ar    1  UNL1        0.0818
     13 N           7.7608   -3.9285   24.3276 N.ar    1  UNL1       -0.3391
     14 H           7.6424   -2.9800   24.5634 H       1  UNL1        0.1672
     15 C           7.8266   -4.9665   26.7900 C.ar    1  UNL1        0.0177
     16 C           6.5825   -5.3598   27.5299 C.ar    1  UNL1        0.0033
     17 C           6.5352   -5.2564   29.0256 C.ar    1  UNL1        0.0262
     18 C           7.7320   -4.7598   29.7813 C.ar    1  UNL1        0.1641
     19 C           8.9760   -4.3665   29.0414 C.ar    1  UNL1        0.0262
     20 C           9.0234   -4.4699   27.5457 C.ar    1  UNL1        0.0033
     21 N           7.6846   -4.6564   31.2770 N.2     1  UNL1        0.1168
     22 N           6.6291   -3.8204   31.9380 N.2     1  UNL1       -0.0090
     23 N           5.5735   -2.9843   32.5990 N.2     1  UNL1       -0.3278
     24 C           4.0611   -2.3844   20.9918 C.3     1  UNL1        0.1512
     25 C           3.8143    0.0654   21.8210 C.2     1  UNL1        0.4021
     26 O           5.1405    0.4062   21.2088 O.2     1  UNL1       -0.2264
     27 N           3.2745   -1.3300   21.7125 N.am    1  UNL1       -0.2640
     28 H           2.4041   -1.5537   22.1143 H       1  UNL1        0.1532
     29 C           2.2727    0.7703   23.7900 C.3     1  UNL1        0.2573
     30 O           3.0276    1.1197   22.5417 O.3     1  UNL1       -0.4306
     31 C           3.7141   -2.7433   19.5773 C.3     1  UNL1        0.0270
     32 C           3.4369   -4.1715   19.2122 C.3     1  UNL1        0.0022
     33 C           3.6444   -1.6739   18.5276 C.3     1  UNL1        0.0022
@<TRIPOS>UNITY_ATOM_ATTR
22 1
charge 1
23 1
charge -1
@<TRIPOS>BOND
     1    29    30    1
     2    30    25    1
     3    25    26    2
     4    25    27   am
     5    24    27    1
     6    24     1    1
     7     1     2    2
     8     1     3   am
     9     3     4    1
    10     4     5    1
    11     5     6    1
    12     6     7    1
    13     7     8    1
    14     8     9   ar
    15     9    10   ar
    16    10    11    1
    17    10    12   ar
    18    12    15    1
    19    15    16   ar
    20    16    17   ar
    21    17    18   ar
    22    18    21    1
    23    21    22    2
    24    22    23    2
    25    18    19   ar
    26    19    20   ar
    27    12    13   ar
    28    24    31    1
    29    31    32    1
    30    31    33    1
    31     7     3    1
    32    13     8   ar
    33    20    15   ar
    34    27    28    1
    35    13    14    1
@<TRIPOS>MOLECULE
*****
 33 35 0 0 0
SMALL
GASTEIGER

@<TRIPOS>ATOM
      1 C          -1.5102    3.6546   24.0005 C.2     1  UNL1        0.2439
      2 O          -0.1101    3.3425   23.5622 O.2     1  UNL1       -0.2731
      3 N          -2.6288    3.6449   23.0011 N.am    1  UNL1       -0.2730
      4 C          -4.0718    3.9353   23.2900 C.3     1  UNL1        0.0939
      5 C          -4.8355    3.8130   22.0048 C.3     1  UNL1        0.0237
      6 C          -3.8645    3.4470   20.9216 C.3     1  UNL1        0.0293
      7 C          -2.5007    3.3431   21.5374 C.3     1  UNL1        0.1319
      8 C          -1.2317    2.9980   20.8161 C.ar    1  UNL1        0.1358
      9 N          -0.3537    3.9573   20.0683 N.ar    1  UNL1       -0.2228
     10 C           0.8029    3.1852   19.5060 C.ar    1  UNL1        0.1321
     11 BR          1.9255    3.7504   18.6872 Br      1  UNL1       -0.0265
     12 C           0.6398    1.7488   19.9061 C.ar    1  UNL1        0.0818
     13 N          -0.6177    1.6331   20.7158 N.ar    1  UNL1       -0.3391
     14 H          -0.9769    0.8065   21.1119 H       1  UNL1        0.1672
     15 C           1.5706    0.6253   19.5578 C.ar    1  UNL1        0.0177
     16 C           1.8090   -0.4830   20.5399 C.ar    1  UNL1        0.0033
     17 C           2.7398   -1.6065   20.1916 C.ar    1  UNL1        0.0262
     18 C           3.4322   -1.6216   18.8610 C.ar    1  UNL1        0.1641
     19 C           3.1938   -0.5133   17.8788 C.ar    1  UNL1        0.0262
     20 C           2.2630    0.6102   18.2272 C.ar    1  UNL1        0.0033
     21 N           4.3630   -2.7451   18.5126 N.2     1  UNL1        0.1168
     22 N           5.7372   -2.4462   17.9908 N.2     1  UNL1       -0.0090
     23 N           7.1114   -2.1473   17.4689 N.2     1  UNL1       -0.3278
     24 C          -1.7919    3.9765   25.4382 C.3     1  UNL1        0.1512
     25 C          -1.0586    2.2039   27.1905 C.2     1  UNL1        0.4021
     26 O           0.3702    2.6285   27.0220 O.2     1  UNL1       -0.2264
     27 N          -2.1396    2.8779   26.3986 N.am    1  UNL1       -0.2640
     28 H          -3.0774    2.5992   26.5092 H       1  UNL1        0.1532
     29 C          -0.4711   -0.0526   28.3364 C.3     1  UNL1        0.2573
     30 O          -1.4064    1.1054   28.1508 O.3     1  UNL1       -0.4306
     31 C          -1.7259    5.3969   25.9156 C.3     1  UNL1        0.0270
     32 C          -1.9096    5.7082   27.3714 C.3     1  UNL1        0.0022
     33 C          -1.4762    6.5062   24.9372 C.3     1  UNL1        0.0022
@<TRIPOS>UNITY_ATOM_ATTR
22 1
charge 1
23 1
charge -1
@<TRIPOS>BOND
     1    29    30    1
     2    30    25    1
     3    25    26    2
     4    25    27   am
     5    24    27    1
     6    24     1    1
     7     1     2    2
     8     1     3   am
     9     3     4    1
    10     4     5    1
    11     5     6    1
    12     6     7    1
    13     7     8    1
    14     8     9   ar
    15     9    10   ar
    16    10    11    1
    17    10    12   ar
    18    12    15    1
    19    15    16   ar
    20    16    17   ar
    21    17    18   ar
    22    18    21    1
    23    21    22    2
    24    22    23    2
    25    18    19   ar
    26    19    20   ar
    27    12    13   ar
    28    24    31    1
    29    31    32    1
    30    31    33    1
    31     7     3    1
    32    13     8   ar
    33    20    15   ar
    34    27    28    1
    35    13    14    1
@<TRIPOS>MOLECULE
*****
 33 35 0 0 0
SMALL
GASTEIGER

@<TRIPOS>ATOM
      1 C          -4.8448  -18.1000   22.4963 C.2     1  UNL1        0.2439
      2 O          -6.2864  -17.6970   22.5930 O.2     1  UNL1       -0.2731
      3 N          -4.4298  -19.1772   21.5385 N.am    1  UNL1       -0.2730
      4 C          -3.0329  -19.6836   21.3326 C.3     1  UNL1        0.0939
      5 C          -3.0785  -20.7565   20.2853 C.3     1  UNL1        0.0237
      6 C          -4.5035  -20.9131   19.8439 C.3     1  UNL1        0.0293
      7 C          -5.3386  -19.9370   20.6184 C.3     1  UNL1        0.1319
      8 C          -6.8221  -19.7531   20.4946 C.ar    1  UNL1        0.1358
      9 N          -7.6363  -19.9653   19.2528 N.ar    1  UNL1       -0.2228
     10 C          -9.0693  -19.6680   19.5816 C.ar    1  UNL1        0.1321
     11 BR        -10.2274  -19.7520   18.6320 Br      1  UNL1       -0.0265
     12 C          -9.1408  -19.2722   21.0266 C.ar    1  UNL1        0.0818
     13 N          -7.7520  -19.3248   21.5909 N.ar    1  UNL1       -0.3391
     14 H          -7.4957  -19.1150   22.5180 H       1  UNL1        0.1672
     15 C         -10.3831  -18.8907   21.7759 C.ar    1  UNL1        0.0177
     16 C         -11.4104  -18.0116   21.1265 C.ar    1  UNL1        0.0033
     17 C         -12.6526  -17.6302   21.8757 C.ar    1  UNL1        0.0262
     18 C         -12.8674  -18.1278   23.2744 C.ar    1  UNL1        0.1641
     19 C         -11.8401  -19.0069   23.9238 C.ar    1  UNL1        0.0262
     20 C         -10.5979  -19.3883   23.1745 C.ar    1  UNL1        0.0033
     21 N         -14.1097  -17.7463   24.0237 N.2     1  UNL1        0.1168
     22 N         -14.3911  -18.3518   25.3668 N.2     1  UNL1       -0.0090
     23 N         -14.6727  -18.9574   26.7100 N.2     1  UNL1       -0.3278
     24 C          -3.8182  -17.4258   23.3575 C.3     1  UNL1        0.1512
     25 C          -2.0604  -16.5452   21.6591 C.2     1  UNL1        0.4021
     26 O          -3.1484  -15.8560   20.8903 O.2     1  UNL1       -0.2264
     27 N          -2.3953  -17.3301   22.8927 N.am    1  UNL1       -0.2640
     28 H          -1.6811  -17.7824   23.3973 H       1  UNL1        0.1532
     29 C          -0.1404  -17.3572   20.1086 C.3     1  UNL1        0.2573
     30 O          -0.6374  -16.4495   21.1944 O.3     1  UNL1       -0.4306
     31 C          -4.2146  -16.8473   24.6835 C.3     1  UNL1        0.0270
     32 C          -3.7761  -17.5137   25.9537 C.3     1  UNL1        0.0022
     33 C          -5.0496  -15.6024   24.7393 C.3     1  UNL1        0.0022
@<TRIPOS>UNITY_ATOM_ATTR
22 1
charge 1
23 1
charge -1
@<TRIPOS>BOND
     1    29    30    1
     2    30    25    1
     3    25    26    2
     4    25    27   am
     5    24    27    1
     6    24     1    1
     7     1     2    2
     8     1     3   am
     9     3     4    1
    10     4     5    1
    11     5     6    1
    12     6     7    1
    13     7     8    1
    14     8     9   ar
    15     9    10   ar
    16    10    11    1
    17    10    12   ar
    18    12    15    1
    19    15    16   ar
    20    16    17   ar
    21    17    18   ar
    22    18    21    1
    23    21    22    2
    24    22    23    2
    25    18    19   ar
    26    19    20   ar
    27    12    13   ar
    28    24    31    1
    29    31    32    1
    30    31    33    1
    31     7     3    1
    32    13     8   ar
    33    20    15   ar
    34    27    28    1
    35    13    14    1
