@<TRIPOS>MOLECULE
*****
 25 27 0 0 0
SMALL
GASTEIGER

@<TRIPOS>ATOM
      1 C          -7.9157  -17.9160   21.6803 C.3     1  UNL1        0.1471
      2 O          -6.6265  -17.2254   22.0136 O.3     1  UNL1       -0.3812
      3 C          -9.0175  -18.8257   21.2238 C.3     1  UNL1        0.0584
      4 C         -10.3253  -18.1953   21.6007 C.ar    1  UNL1       -0.0202
      5 C         -11.7455  -18.6365   21.4052 C.ar    1  UNL1       -0.0044
      6 C         -12.8722  -17.7783   21.8991 C.ar    1  UNL1       -0.0003
      7 C         -12.5787  -16.4789   22.5886 C.ar    1  UNL1       -0.0002
      8 C         -11.1585  -16.0376   22.7841 C.ar    1  UNL1       -0.0011
      9 C         -10.0318  -16.8958   22.2901 C.ar    1  UNL1        0.0157
     10 C          -8.5426  -16.7232   22.3393 C.3     1  UNL1        0.2136
     11 H          -5.8817  -17.7634   21.7028 H       1  UNL1        0.2105
     12 C          -7.0193  -18.9644   21.0910 C.3     1  UNL1        0.1001
     13 C          -4.7312  -19.2591   19.8960 C.3     1  UNL1        0.0859
     14 N          -6.0802  -18.6082   19.9768 N.3     1  UNL1       -0.2942
     15 H          -6.5634  -18.8228   19.1045 H       1  UNL1        0.1234
     16 O          -7.8091  -15.5617   22.9418 O.3     1  UNL1       -0.4725
     17 C          -7.5455  -15.5253   24.4181 C.ar    1  UNL1        0.1373
     18 C          -8.6906  -15.5733   25.3857 C.ar    1  UNL1        0.0367
     19 C          -8.4271  -15.5368   26.8619 C.ar    1  UNL1        0.0031
     20 C          -7.0185  -15.4524   27.3704 C.ar    1  UNL1       -0.0000
     21 C          -5.8734  -15.4043   26.4028 C.ar    1  UNL1        0.0012
     22 C          -6.1368  -15.4408   24.9266 C.ar    1  UNL1        0.0410
     23 C          -4.9918  -15.3928   23.9589 C.3     1  UNL1        0.1666
     24 O          -5.0439  -14.4660   22.7806 O.3     1  UNL1       -0.3771
     25 H          -5.7523  -14.7460   22.1800 H       1  UNL1        0.2109
@<TRIPOS>BOND
     1    13    14    1
     2    14    12    1
     3    12     1    1
     4     1     2    1
     5     1     3    1
     6     3     4    1
     7     4     5   ar
     8     5     6   ar
     9     6     7   ar
    10     7     8   ar
    11     8     9   ar
    12     9    10    1
    13    10    16    1
    14    16    17    1
    15    17    18   ar
    16    18    19   ar
    17    19    20   ar
    18    20    21   ar
    19    21    22   ar
    20    22    23    1
    21    23    24    1
    22    10     1    1
    23    22    17   ar
    24     9     4   ar
    25    14    15    1
    26     2    11    1
    27    24    25    1
@<TRIPOS>MOLECULE
*****
 25 27 0 0 0
SMALL
GASTEIGER

@<TRIPOS>ATOM
      1 C          -9.5285  -17.1445   21.7661 C.3     1  UNL1        0.1471
      2 O          -9.8941  -15.7663   22.2316 O.3     1  UNL1       -0.3812
      3 C          -9.4621  -18.5350   21.2074 C.3     1  UNL1        0.0584
      4 C          -8.0665  -19.0479   21.4053 C.ar    1  UNL1       -0.0202
      5 C          -7.4177  -20.3538   21.0534 C.ar    1  UNL1       -0.0044
      6 C          -5.9729  -20.5861   21.3825 C.ar    1  UNL1       -0.0003
      7 C          -5.1768  -19.5126   22.0636 C.ar    1  UNL1       -0.0002
      8 C          -5.8255  -18.2068   22.4155 C.ar    1  UNL1       -0.0011
      9 C          -7.2703  -17.9745   22.0864 C.ar    1  UNL1        0.0157
     10 C          -8.1740  -16.7981   22.3094 C.3     1  UNL1        0.2136
     11 H         -10.8268  -15.5933   22.0288 H       1  UNL1        0.2105
     12 C         -10.9595  -17.2029   21.3202 C.3     1  UNL1        0.1001
     13 C         -11.6834  -15.7332   19.3037 C.3     1  UNL1        0.0859
     14 N         -11.2976  -17.0697   19.8649 N.3     1  UNL1       -0.2942
     15 H         -10.4795  -17.3833   19.3426 H       1  UNL1        0.1234
     16 O          -7.7903  -15.5027   22.9612 O.3     1  UNL1       -0.4725
     17 C          -7.4595  -15.4682   24.4239 C.ar    1  UNL1        0.1373
     18 C          -8.5593  -15.5165   25.4429 C.ar    1  UNL1        0.0367
     19 C          -8.2286  -15.4820   26.9055 C.ar    1  UNL1        0.0031
     20 C          -6.7981  -15.3992   27.3492 C.ar    1  UNL1       -0.0000
     21 C          -5.6984  -15.3509   26.3303 C.ar    1  UNL1        0.0012
     22 C          -6.0291  -15.3854   24.8676 C.ar    1  UNL1        0.0410
     23 C          -4.9294  -15.3372   23.8486 C.3     1  UNL1        0.1666
     24 O          -5.0039  -14.3632   22.7103 O.3     1  UNL1       -0.3771
     25 H          -5.7489  -14.5957   22.1342 H       1  UNL1        0.2109
@<TRIPOS>BOND
     1    13    14    1
     2    14    12    1
     3    12     1    1
     4     1     2    1
     5     1     3    1
     6     3     4    1
     7     4     5   ar
     8     5     6   ar
     9     6     7   ar
    10     7     8   ar
    11     8     9   ar
    12     9    10    1
    13    10    16    1
    14    16    17    1
    15    17    18   ar
    16    18    19   ar
    17    19    20   ar
    18    20    21   ar
    19    21    22   ar
    20    22    23    1
    21    23    24    1
    22    10     1    1
    23    22    17   ar
    24     9     4   ar
    25    14    15    1
    26     2    11    1
    27    24    25    1
@<TRIPOS>MOLECULE
*****
 25 27 0 0 0
SMALL
GASTEIGER

@<TRIPOS>ATOM
      1 C          -6.8525  -15.9007   23.4030 C.3     1  UNL1        0.1471
      2 O          -7.8346  -14.7730   23.5205 O.3     1  UNL1       -0.3812
      3 C          -5.7028  -16.8601   23.4902 C.3     1  UNL1        0.0584
      4 C          -5.9996  -18.0225   22.5897 C.ar    1  UNL1       -0.0202
      5 C          -5.2282  -19.2692   22.2727 C.ar    1  UNL1       -0.0044
      6 C          -5.7900  -20.2748   21.3120 C.ar    1  UNL1       -0.0003
      7 C          -7.1232  -20.0338   20.6683 C.ar    1  UNL1       -0.0002
      8 C          -7.8947  -18.7871   20.9853 C.ar    1  UNL1       -0.0011
      9 C          -7.3329  -17.7814   21.9460 C.ar    1  UNL1        0.0157
     10 C          -7.8600  -16.4701   22.4487 C.3     1  UNL1        0.2136
     11 H          -7.4916  -14.1086   24.1384 H       1  UNL1        0.2105
     12 C          -6.0504  -15.0956   24.3820 C.3     1  UNL1        0.1001
     13 C          -6.6137  -15.4582   26.8922 C.3     1  UNL1        0.0859
     14 N          -5.7015  -15.6742   25.7212 N.3     1  UNL1       -0.2942
     15 H          -5.6197  -16.6829   25.5939 H       1  UNL1        0.1234
     16 O          -9.1654  -15.8390   22.0644 O.3     1  UNL1       -0.4725
     17 C         -10.4492  -16.5874   22.2689 C.ar    1  UNL1        0.1373
     18 C         -10.6869  -17.3333   23.5484 C.ar    1  UNL1        0.0367
     19 C         -11.9706  -18.0817   23.7530 C.ar    1  UNL1        0.0031
     20 C         -13.0168  -18.0841   22.6780 C.ar    1  UNL1       -0.0000
     21 C         -12.7791  -17.3382   21.3985 C.ar    1  UNL1        0.0012
     22 C         -11.4954  -16.5899   21.1939 C.ar    1  UNL1        0.0410
     23 C         -11.2577  -15.8439   19.9144 C.3     1  UNL1        0.1666
     24 O         -12.4162  -15.4695   19.0383 O.3     1  UNL1       -0.3771
     25 H         -12.8265  -16.2738   18.6835 H       1  UNL1        0.2109
@<TRIPOS>BOND
     1    13    14    1
     2    14    12    1
     3    12     1    1
     4     1     2    1
     5     1     3    1
     6     3     4    1
     7     4     5   ar
     8     5     6   ar
     9     6     7   ar
    10     7     8   ar
    11     8     9   ar
    12     9    10    1
    13    10    16    1
    14    16    17    1
    15    17    18   ar
    16    18    19   ar
    17    19    20   ar
    18    20    21   ar
    19    21    22   ar
    20    22    23    1
    21    23    24    1
    22    10     1    1
    23    22    17   ar
    24     9     4   ar
    25    14    15    1
    26     2    11    1
    27    24    25    1
@<TRIPOS>MOLECULE
*****
 25 27 0 0 0
SMALL
GASTEIGER

@<TRIPOS>ATOM
      1 C          -6.3523  -18.7675   21.7507 C.3     1  UNL1        0.1471
      2 O          -7.2591  -19.4470   20.7679 O.3     1  UNL1       -0.3812
      3 C          -5.2370  -18.3025   22.6394 C.3     1  UNL1        0.0584
      4 C          -5.7345  -17.1310   23.4332 C.ar    1  UNL1       -0.0202
      5 C          -5.0758  -16.2666   24.4671 C.ar    1  UNL1       -0.0044
      6 C          -5.8399  -15.1433   25.1028 C.ar    1  UNL1       -0.0003
      7 C          -7.2627  -14.8843   24.7046 C.ar    1  UNL1       -0.0002
      8 C          -7.9214  -15.7486   23.6707 C.ar    1  UNL1       -0.0011
      9 C          -7.1573  -16.8719   23.0350 C.ar    1  UNL1        0.0157
     10 C          -7.5391  -17.8834   21.9952 C.3     1  UNL1        0.2136
     11 H          -6.7851  -20.1790   20.3432 H       1  UNL1        0.2105
     12 C          -5.3550  -19.7937   21.3007 C.3     1  UNL1        0.1001
     13 C          -3.5792  -19.1657   19.5113 C.3     1  UNL1        0.0859
     14 N          -3.9580  -19.3773   20.9472 N.3     1  UNL1       -0.2942
     15 H          -3.7818  -18.4968   21.4310 H       1  UNL1        0.1234
     16 O          -8.8734  -17.9916   21.3186 O.3     1  UNL1       -0.4725
     17 C         -10.1292  -18.0282   22.1383 C.ar    1  UNL1        0.1373
     18 C         -10.2777  -19.0370   23.2384 C.ar    1  UNL1        0.0367
     19 C         -11.5333  -19.0736   24.0581 C.ar    1  UNL1        0.0031
     20 C         -12.6406  -18.1013   23.7777 C.ar    1  UNL1       -0.0000
     21 C         -12.4921  -17.0925   22.6776 C.ar    1  UNL1        0.0012
     22 C         -11.2365  -17.0559   21.8579 C.ar    1  UNL1        0.0410
     23 C         -11.0880  -16.0470   20.7578 C.3     1  UNL1        0.1666
     24 O          -9.8783  -15.1614   20.7106 O.3     1  UNL1       -0.3771
     25 H          -9.8829  -14.5666   21.4768 H       1  UNL1        0.2109
@<TRIPOS>BOND
     1    13    14    1
     2    14    12    1
     3    12     1    1
     4     1     2    1
     5     1     3    1
     6     3     4    1
     7     4     5   ar
     8     5     6   ar
     9     6     7   ar
    10     7     8   ar
    11     8     9   ar
    12     9    10    1
    13    10    16    1
    14    16    17    1
    15    17    18   ar
    16    18    19   ar
    17    19    20   ar
    18    20    21   ar
    19    21    22   ar
    20    22    23    1
    21    23    24    1
    22    10     1    1
    23    22    17   ar
    24     9     4   ar
    25    14    15    1
    26     2    11    1
    27    24    25    1
@<TRIPOS>MOLECULE
*****
 25 27 0 0 0
SMALL
GASTEIGER

@<TRIPOS>ATOM
      1 C          -6.2670  -18.7854   21.8568 C.3     1  UNL1        0.1471
      2 O          -6.9551  -19.8254   21.0232 O.3     1  UNL1       -0.3812
      3 C          -5.3174  -17.8666   22.5669 C.3     1  UNL1        0.0584
      4 C          -6.1252  -16.9358   23.4219 C.ar    1  UNL1       -0.0202
      5 C          -5.7286  -15.8198   24.3424 C.ar    1  UNL1       -0.0044
      6 C          -6.7809  -15.0473   25.0812 C.ar    1  UNL1       -0.0003
      7 C          -8.2297  -15.3907   24.8995 C.ar    1  UNL1       -0.0002
      8 C          -8.6262  -16.5066   23.9790 C.ar    1  UNL1       -0.0011
      9 C          -7.5740  -17.2792   23.2402 C.ar    1  UNL1        0.0157
     10 C          -7.6616  -18.4223   22.2729 C.3     1  UNL1        0.2136
     11 H          -6.2925  -20.3388   20.5351 H       1  UNL1        0.2105
     12 C          -5.0162  -19.3658   21.2664 C.3     1  UNL1        0.1001
     13 C          -3.0718  -19.0178   19.5788 C.3     1  UNL1        0.0859
     14 N          -4.5233  -18.8862   19.9334 N.3     1  UNL1       -0.2942
     15 H          -5.0474  -19.3985   19.2239 H       1  UNL1        0.1234
     16 O          -8.9225  -19.0858   21.8040 O.3     1  UNL1       -0.4725
     17 C         -10.2552  -18.4793   22.1303 C.ar    1  UNL1        0.1373
     18 C         -10.8252  -17.4047   21.2526 C.ar    1  UNL1        0.0367
     19 C         -12.1578  -16.7982   21.5788 C.ar    1  UNL1        0.0031
     20 C         -12.9203  -17.2664   22.7827 C.ar    1  UNL1       -0.0000
     21 C         -12.3503  -18.3410   23.6603 C.ar    1  UNL1        0.0012
     22 C         -11.0178  -18.9475   23.3341 C.ar    1  UNL1        0.0410
     23 C         -10.4477  -20.0221   24.2118 C.3     1  UNL1        0.1666
     24 O          -9.9399  -19.6811   25.5814 O.3     1  UNL1       -0.3771
     25 H          -9.1629  -19.1055   25.5041 H       1  UNL1        0.2109
@<TRIPOS>BOND
     1    13    14    1
     2    14    12    1
     3    12     1    1
     4     1     2    1
     5     1     3    1
     6     3     4    1
     7     4     5   ar
     8     5     6   ar
     9     6     7   ar
    10     7     8   ar
    11     8     9   ar
    12     9    10    1
    13    10    16    1
    14    16    17    1
    15    17    18   ar
    16    18    19   ar
    17    19    20   ar
    18    20    21   ar
    19    21    22   ar
    20    22    23    1
    21    23    24    1
    22    10     1    1
    23    22    17   ar
    24     9     4   ar
    25    14    15    1
    26     2    11    1
    27    24    25    1
@<TRIPOS>MOLECULE
*****
 25 27 0 0 0
SMALL
GASTEIGER

@<TRIPOS>ATOM
      1 C          -9.8500  -17.3742   21.6941 C.3     1  UNL1        0.1471
      2 O         -10.4773  -16.1560   22.3044 O.3     1  UNL1       -0.3812
      3 C          -9.5071  -18.6362   20.9593 C.3     1  UNL1        0.0584
      4 C          -8.0657  -18.9522   21.2283 C.ar    1  UNL1       -0.0202
      5 C          -7.1814  -20.0734   20.7692 C.ar    1  UNL1       -0.0044
      6 C          -5.7491  -20.1280   21.2112 C.ar    1  UNL1       -0.0003
      7 C          -5.2011  -19.0614   22.1123 C.ar    1  UNL1       -0.0002
      8 C          -6.0854  -17.9402   22.5714 C.ar    1  UNL1       -0.0011
      9 C          -7.5177  -17.8856   22.1294 C.ar    1  UNL1        0.0157
     10 C          -8.6204  -16.9104   22.4172 C.3     1  UNL1        0.2136
     11 H         -11.4065  -16.0997   22.0317 H       1  UNL1        0.2105
     12 C         -11.2107  -17.5834   21.0985 C.3     1  UNL1        0.1001
     13 C         -11.6818  -15.7454   19.3237 C.3     1  UNL1        0.0859
     14 N         -11.4754  -17.1888   19.6757 N.3     1  UNL1       -0.2942
     15 H         -10.6799  -17.5149   19.1268 H       1  UNL1        0.1234
     16 O          -8.5125  -15.6862   23.2773 O.3     1  UNL1       -0.4725
     17 C          -7.9075  -15.7825   24.6466 C.ar    1  UNL1        0.1373
     18 C          -6.6602  -15.0151   24.9711 C.ar    1  UNL1        0.0367
     19 C          -6.0552  -15.1114   26.3403 C.ar    1  UNL1        0.0031
     20 C          -6.6976  -15.9751   27.3850 C.ar    1  UNL1       -0.0000
     21 C          -7.9449  -16.7424   27.0604 C.ar    1  UNL1        0.0012
     22 C          -8.5499  -16.6462   25.6913 C.ar    1  UNL1        0.0410
     23 C          -9.7972  -17.4136   25.3668 C.3     1  UNL1        0.1666
     24 O          -9.8827  -18.8764   25.6876 O.3     1  UNL1       -0.3771
     25 H          -9.2455  -19.3646   25.1430 H       1  UNL1        0.2109
@<TRIPOS>BOND
     1    13    14    1
     2    14    12    1
     3    12     1    1
     4     1     2    1
     5     1     3    1
     6     3     4    1
     7     4     5   ar
     8     5     6   ar
     9     6     7   ar
    10     7     8   ar
    11     8     9   ar
    12     9    10    1
    13    10    16    1
    14    16    17    1
    15    17    18   ar
    16    18    19   ar
    17    19    20   ar
    18    20    21   ar
    19    21    22   ar
    20    22    23    1
    21    23    24    1
    22    10     1    1
    23    22    17   ar
    24     9     4   ar
    25    14    15    1
    26     2    11    1
    27    24    25    1
@<TRIPOS>MOLECULE
*****
 25 27 0 0 0
SMALL
GASTEIGER

@<TRIPOS>ATOM
      1 C          -7.0860  -18.7520   21.6688 C.3     1  UNL1        0.1471
      2 O          -6.2354  -19.8104   21.0314 O.3     1  UNL1       -0.3812
      3 C          -8.1669  -17.8241   22.1383 C.3     1  UNL1        0.0584
      4 C          -7.5549  -16.8473   23.0982 C.ar    1  UNL1       -0.0202
      5 C          -8.1378  -15.7046   23.8756 C.ar    1  UNL1       -0.0044
      6 C          -7.2613  -14.8861   24.7766 C.ar    1  UNL1       -0.0003
      7 C          -5.8020  -15.2104   24.9003 C.ar    1  UNL1       -0.0002
      8 C          -5.2191  -16.3531   24.1229 C.ar    1  UNL1       -0.0011
      9 C          -6.0956  -17.1716   23.2219 C.ar    1  UNL1        0.0157
     10 C          -5.8058  -18.3487   22.3384 C.3     1  UNL1        0.2136
     11 H          -6.7824  -20.3536   20.4426 H       1  UNL1        0.2105
     12 C          -8.1884  -19.3765   20.8658 C.3     1  UNL1        0.1001
     13 C         -10.4323  -19.1462   19.5768 C.3     1  UNL1        0.0859
     14 N          -9.2556  -18.5143   20.2594 N.3     1  UNL1       -0.2942
     15 H          -9.6279  -17.9341   21.0111 H       1  UNL1        0.1234
     16 O          -4.4703  -19.0070   22.1566 O.3     1  UNL1       -0.4725
     17 C          -3.3421  -18.2512   21.5193 C.ar    1  UNL1        0.1373
     18 C          -2.6785  -17.1284   22.2602 C.ar    1  UNL1        0.0367
     19 C          -1.5504  -16.3726   21.6229 C.ar    1  UNL1        0.0031
     20 C          -1.0859  -16.7396   20.2447 C.ar    1  UNL1       -0.0000
     21 C          -1.7495  -17.8624   19.5038 C.ar    1  UNL1        0.0012
     22 C          -2.8776  -18.6182   20.1410 C.ar    1  UNL1        0.0410
     23 C          -3.5412  -19.7410   19.4001 C.3     1  UNL1        0.1666
     24 O          -3.9024  -21.0056   20.1216 O.3     1  UNL1       -0.3771
     25 H          -3.0930  -21.4565   20.4087 H       1  UNL1        0.2109
@<TRIPOS>BOND
     1    13    14    1
     2    14    12    1
     3    12     1    1
     4     1     2    1
     5     1     3    1
     6     3     4    1
     7     4     5   ar
     8     5     6   ar
     9     6     7   ar
    10     7     8   ar
    11     8     9   ar
    12     9    10    1
    13    10    16    1
    14    16    17    1
    15    17    18   ar
    16    18    19   ar
    17    19    20   ar
    18    20    21   ar
    19    21    22   ar
    20    22    23    1
    21    23    24    1
    22    10     1    1
    23    22    17   ar
    24     9     4   ar
    25    14    15    1
    26     2    11    1
    27    24    25    1
@<TRIPOS>MOLECULE
*****
 25 27 0 0 0
SMALL
GASTEIGER

@<TRIPOS>ATOM
      1 C          -7.2525  -15.9577   24.0492 C.3     1  UNL1        0.1471
      2 O          -8.6247  -15.4628   24.3988 O.3     1  UNL1       -0.3812
      3 C          -5.7851  -16.1913   23.8444 C.3     1  UNL1        0.0584
      4 C          -5.6209  -17.4822   23.0982 C.ar    1  UNL1       -0.0202
      5 C          -4.4040  -18.2168   22.6191 C.ar    1  UNL1       -0.0044
      6 C          -4.5532  -19.5155   21.8836 C.ar    1  UNL1       -0.0003
      7 C          -5.9192  -20.0797   21.6273 C.ar    1  UNL1       -0.0002
      8 C          -7.1360  -19.3451   22.1064 C.ar    1  UNL1       -0.0011
      9 C          -6.9869  -18.0463   22.8419 C.ar    1  UNL1        0.0157
     10 C          -7.9953  -17.1042   23.4296 C.3     1  UNL1        0.2136
     11 H          -8.5530  -14.6215   24.8764 H       1  UNL1        0.2105
     12 C          -6.7966  -14.7078   24.7419 C.3     1  UNL1        0.1001
     13 C          -6.6431  -15.3056   27.2656 C.3     1  UNL1        0.0859
     14 N          -5.9987  -14.8008   26.0087 N.3     1  UNL1       -0.2942
     15 H          -5.2090  -15.4166   25.8147 H       1  UNL1        0.1234
     16 O          -9.4849  -17.2780   23.4025 O.3     1  UNL1       -0.4725
     17 C         -10.2182  -17.2622   22.0939 C.ar    1  UNL1        0.1373
     18 C         -10.3858  -15.9742   21.3436 C.ar    1  UNL1        0.0367
     19 C         -11.1190  -15.9583   20.0352 C.ar    1  UNL1        0.0031
     20 C         -11.6846  -17.2305   19.4770 C.ar    1  UNL1       -0.0000
     21 C         -11.5170  -18.5185   20.2273 C.ar    1  UNL1        0.0012
     22 C         -10.7838  -18.5344   21.5358 C.ar    1  UNL1        0.0410
     23 C         -10.6163  -19.8224   22.2861 C.3     1  UNL1        0.1666
     24 O         -10.7960  -19.8519   23.7750 O.3     1  UNL1       -0.3771
     25 H         -10.0970  -19.3269   24.1955 H       1  UNL1        0.2109
@<TRIPOS>BOND
     1    13    14    1
     2    14    12    1
     3    12     1    1
     4     1     2    1
     5     1     3    1
     6     3     4    1
     7     4     5   ar
     8     5     6   ar
     9     6     7   ar
    10     7     8   ar
    11     8     9   ar
    12     9    10    1
    13    10    16    1
    14    16    17    1
    15    17    18   ar
    16    18    19   ar
    17    19    20   ar
    18    20    21   ar
    19    21    22   ar
    20    22    23    1
    21    23    24    1
    22    10     1    1
    23    22    17   ar
    24     9     4   ar
    25    14    15    1
    26     2    11    1
    27    24    25    1
@<TRIPOS>MOLECULE
*****
 25 27 0 0 0
SMALL
GASTEIGER

@<TRIPOS>ATOM
      1 C          -8.2880  -16.3563   23.5012 C.3     1  UNL1        0.1471
      2 O          -6.8305  -16.2417   23.1654 O.3     1  UNL1       -0.3812
      3 C          -9.6620  -16.3260   24.1022 C.3     1  UNL1        0.0584
      4 C         -10.6056  -16.9767   23.1346 C.ar    1  UNL1       -0.0202
      5 C         -12.0828  -17.2313   23.1905 C.ar    1  UNL1       -0.0044
      6 C         -12.7691  -17.9184   22.0473 C.ar    1  UNL1       -0.0003
      7 C         -11.9783  -18.3509   20.8483 C.ar    1  UNL1       -0.0002
      8 C         -10.5011  -18.0963   20.7925 C.ar    1  UNL1       -0.0011
      9 C          -9.8148  -17.4092   21.9356 C.ar    1  UNL1        0.0157
     10 C          -8.3824  -17.0258   22.1622 C.3     1  UNL1        0.2136
     11 H          -6.3651  -15.7992   23.8924 H       1  UNL1        0.2105
     12 C          -7.8888  -15.6629   24.7700 C.3     1  UNL1        0.1001
     13 C          -8.0316  -15.4438   27.3549 C.3     1  UNL1        0.0859
     14 N          -8.4507  -16.1203   26.0834 N.3     1  UNL1       -0.2942
     15 H          -9.4642  -16.0249   26.0193 H       1  UNL1        0.1234
     16 O          -7.2443  -17.2691   21.2159 O.3     1  UNL1       -0.4725
     17 C          -6.8529  -18.6725   20.8586 C.ar    1  UNL1        0.1373
     18 C          -7.6668  -19.4486   19.8661 C.ar    1  UNL1        0.0367
     19 C          -7.2754  -20.8518   19.5089 C.ar    1  UNL1        0.0031
     20 C          -6.0700  -21.4790   20.1442 C.ar    1  UNL1       -0.0000
     21 C          -5.2561  -20.7029   21.1368 C.ar    1  UNL1        0.0012
     22 C          -5.6475  -19.2997   21.4940 C.ar    1  UNL1        0.0410
     23 C          -4.8335  -18.5236   22.4866 C.3     1  UNL1        0.1666
     24 O          -3.7400  -17.6134   22.0116 O.3     1  UNL1       -0.3771
     25 H          -3.0364  -18.1401   21.6011 H       1  UNL1        0.2109
@<TRIPOS>BOND
     1    13    14    1
     2    14    12    1
     3    12     1    1
     4     1     2    1
     5     1     3    1
     6     3     4    1
     7     4     5   ar
     8     5     6   ar
     9     6     7   ar
    10     7     8   ar
    11     8     9   ar
    12     9    10    1
    13    10    16    1
    14    16    17    1
    15    17    18   ar
    16    18    19   ar
    17    19    20   ar
    18    20    21   ar
    19    21    22   ar
    20    22    23    1
    21    23    24    1
    22    10     1    1
    23    22    17   ar
    24     9     4   ar
    25    14    15    1
    26     2    11    1
    27    24    25    1
