@<TRIPOS>MOLECULE
*****
 22 24 0 0 0
SMALL
GASTEIGER

@<TRIPOS>ATOM
      1 C          -8.3961  -18.1841   22.9193 C.ar    1  UNL1        0.1030
      2 C          -7.7858  -19.3069   22.1338 C.ar    1  UNL1        0.1180
      3 N          -6.3032  -19.3458   21.9093 N.ar    1  UNL1       -0.2395
      4 C          -5.4309  -18.2620   22.4702 C.ar    1  UNL1        0.1149
      5 C          -6.0413  -17.1393   23.2556 C.ar    1  UNL1        0.0940
      6 N          -7.5239  -17.1003   23.4802 N.ar    1  UNL1       -0.2450
      7 C         -10.7690  -17.4513   22.1560 C.ar    1  UNL1        0.1424
      8 C         -12.2515  -17.4125   22.3806 C.ar    1  UNL1        0.0665
      9 C         -12.8439  -18.0675   23.5930 C.ar    1  UNL1        0.1432
     10 F         -14.3265  -18.0286   23.8176 F       1  UNL1       -0.2041
     11 C         -11.9536  -18.7614   24.5809 C.ar    1  UNL1        0.0299
     12 C         -10.4711  -18.8002   24.3563 C.ar    1  UNL1        0.0069
     13 C          -9.8788  -18.1452   23.1439 C.ar    1  UNL1        0.0533
     14 C         -11.0229  -15.9049   20.0838 C.3     1  UNL1        0.2525
     15 O         -10.1766  -16.7963   20.9435 O.3     1  UNL1       -0.4713
     16 C          -5.1691  -16.0555   23.8165 C.3     1  UNL1        0.1168
     17 N          -5.7605  -15.0011   24.7045 N.3     1  UNL1       -0.2924
     18 H          -6.7065  -14.8270   24.3651 H       1  UNL1        0.1236
     19 C          -5.8674  -15.2383   26.1818 C.3     1  UNL1        0.0688
     20 C          -7.1955  -15.5722   26.7937 C.3     1  UNL1        0.0158
     21 C          -8.2946  -16.5593   27.0536 C.3     1  UNL1        0.0014
     22 C          -8.3969  -15.1636   27.5935 C.3     1  UNL1        0.0014
@<TRIPOS>BOND
     1    14    15    1
     2    15     7    1
     3     7     8   ar
     4     8     9   ar
     5     9    10    1
     6     9    11   ar
     7    11    12   ar
     8    12    13   ar
     9    13     1    1
    10     1     2   ar
    11     2     3   ar
    12     3     4   ar
    13     4     5   ar
    14     5    16    1
    15    16    17    1
    16    17    19    1
    17    19    20    1
    18    20    21    1
    19    21    22    1
    20     5     6   ar
    21    13     7   ar
    22     6     1   ar
    23    22    20    1
    24    17    18    1
@<TRIPOS>MOLECULE
*****
 22 24 0 0 0
SMALL
GASTEIGER

@<TRIPOS>ATOM
      1 C          -8.7172  -18.7394   21.6911 C.ar    1  UNL1        0.1030
      2 C          -8.6214  -19.3016   20.3038 C.ar    1  UNL1        0.1180
      3 N          -7.2783  -19.6025   19.7075 N.ar    1  UNL1       -0.2395
      4 C          -6.0309  -19.3412   20.4986 C.ar    1  UNL1        0.1149
      5 C          -6.1267  -18.7789   21.8860 C.ar    1  UNL1        0.0940
      6 N          -7.4699  -18.4780   22.4822 N.ar    1  UNL1       -0.2450
      7 C         -10.9509  -17.4131   21.6506 C.ar    1  UNL1        0.1424
      8 C         -12.2940  -17.1122   22.2468 C.ar    1  UNL1        0.0665
      9 C         -12.7465  -17.8368   23.4798 C.ar    1  UNL1        0.1432
     10 F         -14.0897  -17.5359   24.0760 F       1  UNL1       -0.2041
     11 C         -11.8560  -18.8622   24.1165 C.ar    1  UNL1        0.0299
     12 C         -10.5129  -19.1630   23.5203 C.ar    1  UNL1        0.0069
     13 C         -10.0604  -18.4385   22.2873 C.ar    1  UNL1        0.0533
     14 C         -11.4808  -15.8889   19.6144 C.3     1  UNL1        0.2525
     15 O         -10.4983  -16.6885   20.4176 O.3     1  UNL1       -0.4713
     16 C          -4.8794  -18.5176   22.6771 C.3     1  UNL1        0.1168
     17 N          -3.7548  -17.7344   22.0672 N.3     1  UNL1       -0.2924
     18 H          -3.5423  -16.9734   22.7123 H       1  UNL1        0.1236
     19 C          -2.4538  -18.4113   21.7523 C.3     1  UNL1        0.0688
     20 C          -1.7728  -18.1543   20.4408 C.3     1  UNL1        0.0158
     21 C          -1.8314  -18.0469   18.9458 C.3     1  UNL1        0.0014
     22 C          -0.5348  -17.8166   19.6640 C.3     1  UNL1        0.0014
@<TRIPOS>BOND
     1    14    15    1
     2    15     7    1
     3     7     8   ar
     4     8     9   ar
     5     9    10    1
     6     9    11   ar
     7    11    12   ar
     8    12    13   ar
     9    13     1    1
    10     1     2   ar
    11     2     3   ar
    12     3     4   ar
    13     4     5   ar
    14     5    16    1
    15    16    17    1
    16    17    19    1
    17    19    20    1
    18    20    21    1
    19    21    22    1
    20     5     6   ar
    21    13     7   ar
    22     6     1   ar
    23    22    20    1
    24    17    18    1
@<TRIPOS>MOLECULE
*****
 22 24 0 0 0
SMALL
GASTEIGER

@<TRIPOS>ATOM
      1 C          -7.9950  -16.2809   23.4488 C.ar    1  UNL1        0.1030
      2 C          -7.8749  -15.1395   24.4146 C.ar    1  UNL1        0.1180
      3 N          -6.5323  -14.7623   24.9668 N.ar    1  UNL1       -0.2395
      4 C          -5.3096  -15.5266   24.5532 C.ar    1  UNL1        0.1149
      5 C          -5.4296  -16.6680   23.5874 C.ar    1  UNL1        0.0940
      6 N          -6.7724  -17.0452   23.0352 N.ar    1  UNL1       -0.2450
      7 C         -10.1566  -17.7168   23.5735 C.ar    1  UNL1        0.1424
      8 C         -11.4993  -18.0939   23.0212 C.ar    1  UNL1        0.0665
      9 C         -12.0231  -17.4122   21.7921 C.ar    1  UNL1        0.1432
     10 F         -13.3658  -17.7893   21.2398 F       1  UNL1       -0.2041
     11 C         -11.2042  -16.3533   21.1151 C.ar    1  UNL1        0.0299
     12 C          -9.8615  -15.9763   21.6674 C.ar    1  UNL1        0.0069
     13 C          -9.3377  -16.6580   22.8965 C.ar    1  UNL1        0.0533
     14 C          -9.9929  -19.8284   25.0783 C.3     1  UNL1        0.2525
     15 O          -9.6328  -18.3986   24.8026 O.3     1  UNL1       -0.4713
     16 C          -4.2070  -17.4323   23.1738 C.3     1  UNL1        0.1168
     17 N          -3.1073  -16.7397   22.4249 N.3     1  UNL1       -0.2924
     18 H          -2.4741  -16.3515   23.1239 H       1  UNL1        0.1236
     19 C          -2.2613  -17.5088   21.4538 C.3     1  UNL1        0.0688
     20 C          -2.8569  -18.6445   20.6758 C.3     1  UNL1        0.0158
     21 C          -3.3926  -20.0447   20.6254 C.3     1  UNL1        0.0014
     22 C          -3.3528  -19.2115   19.3787 C.3     1  UNL1        0.0014
@<TRIPOS>BOND
     1    14    15    1
     2    15     7    1
     3     7     8   ar
     4     8     9   ar
     5     9    10    1
     6     9    11   ar
     7    11    12   ar
     8    12    13   ar
     9    13     1    1
    10     1     2   ar
    11     2     3   ar
    12     3     4   ar
    13     4     5   ar
    14     5    16    1
    15    16    17    1
    16    17    19    1
    17    19    20    1
    18    20    21    1
    19    21    22    1
    20     5     6   ar
    21    13     7   ar
    22     6     1   ar
    23    22    20    1
    24    17    18    1
@<TRIPOS>MOLECULE
*****
 22 24 0 0 0
SMALL
GASTEIGER

@<TRIPOS>ATOM
      1 C          -4.6003  -16.3413   23.6366 C.ar    1  UNL1        0.1030
      2 C          -3.8790  -15.2729   22.8696 C.ar    1  UNL1        0.1180
      3 N          -2.8022  -15.6467   21.8946 N.ar    1  UNL1       -0.2395
      4 C          -2.4467  -17.0891   21.6864 C.ar    1  UNL1        0.1149
      5 C          -3.1679  -18.1575   22.4534 C.ar    1  UNL1        0.0940
      6 N          -4.2448  -17.7836   23.4285 N.ar    1  UNL1       -0.2450
      7 C          -7.0820  -15.7530   24.1318 C.ar    1  UNL1        0.1424
      8 C          -8.1587  -15.3791   25.1069 C.ar    1  UNL1        0.0665
      9 C          -7.8305  -15.2196   26.5618 C.ar    1  UNL1        0.1432
     10 F          -8.9073  -14.8456   27.5369 F       1  UNL1       -0.2041
     11 C          -6.4256  -15.4339   27.0417 C.ar    1  UNL1        0.0299
     12 C          -5.3489  -15.8078   26.0666 C.ar    1  UNL1        0.0069
     13 C          -5.6771  -15.9674   24.6117 C.ar    1  UNL1        0.0533
     14 C          -8.6664  -16.6210   22.2647 C.3     1  UNL1        0.2525
     15 O          -7.4101  -15.9126   22.6769 O.3     1  UNL1       -0.4713
     16 C          -2.8124  -19.5998   22.2453 C.3     1  UNL1        0.1168
     17 N          -2.4942  -20.1026   20.8684 N.3     1  UNL1       -0.2924
     18 H          -2.1312  -21.0496   20.9774 H       1  UNL1        0.1236
     19 C          -3.5713  -20.1690   19.8266 C.3     1  UNL1        0.0688
     20 C          -4.9949  -20.4086   20.2338 C.3     1  UNL1        0.0158
     21 C          -6.2021  -21.2980   20.2752 C.3     1  UNL1        0.0014
     22 C          -6.2535  -19.9343   20.8978 C.3     1  UNL1        0.0014
@<TRIPOS>BOND
     1    14    15    1
     2    15     7    1
     3     7     8   ar
     4     8     9   ar
     5     9    10    1
     6     9    11   ar
     7    11    12   ar
     8    12    13   ar
     9    13     1    1
    10     1     2   ar
    11     2     3   ar
    12     3     4   ar
    13     4     5   ar
    14     5    16    1
    15    16    17    1
    16    17    19    1
    17    19    20    1
    18    20    21    1
    19    21    22    1
    20     5     6   ar
    21    13     7   ar
    22     6     1   ar
    23    22    20    1
    24    17    18    1
@<TRIPOS>MOLECULE
*****
 22 24 0 0 0
SMALL
GASTEIGER

@<TRIPOS>ATOM
      1 C         -13.4630   -7.1742   18.2128 C.ar    1  UNL1        0.1030
      2 C         -13.1888   -7.7954   16.8753 C.ar    1  UNL1        0.1180
      3 N         -11.7864   -7.8463   16.3454 N.ar    1  UNL1       -0.2395
      4 C         -10.6583   -7.2760   17.1530 C.ar    1  UNL1        0.1149
      5 C         -10.9325   -6.6549   18.4905 C.ar    1  UNL1        0.0940
      6 N         -12.3350   -6.6040   19.0204 N.ar    1  UNL1       -0.2450
      7 C         -15.5912   -8.3953   19.0672 C.ar    1  UNL1        0.1424
      8 C         -16.9935   -8.3443   19.5971 C.ar    1  UNL1        0.0665
      9 C         -17.6701   -7.0214   19.8025 C.ar    1  UNL1        0.1432
     10 F         -19.0725   -6.9705   20.3324 F       1  UNL1       -0.2041
     11 C         -16.9443   -5.7495   19.4781 C.ar    1  UNL1        0.0299
     12 C         -15.5420   -5.8004   18.9482 C.ar    1  UNL1        0.0069
     13 C         -14.8654   -7.1233   18.7428 C.ar    1  UNL1        0.0533
     14 C         -15.5995  -10.7968   18.0760 C.3     1  UNL1        0.2525
     15 O         -14.9146   -9.7182   18.8618 O.3     1  UNL1       -0.4713
     16 C          -9.8045   -6.0846   19.2981 C.3     1  UNL1        0.1168
     17 N          -9.5926   -4.6005   19.3472 N.3     1  UNL1       -0.2924
     18 H          -8.6028   -4.4381   19.1622 H       1  UNL1        0.1236
     19 C         -10.3591   -3.7025   18.4218 C.3     1  UNL1        0.0688
     20 C         -11.6066   -3.0211   18.9006 C.3     1  UNL1        0.0158
     21 C         -12.8862   -3.0538   19.6827 C.3     1  UNL1        0.0014
     22 C         -12.4879   -1.8082   18.9479 C.3     1  UNL1        0.0014
@<TRIPOS>BOND
     1    14    15    1
     2    15     7    1
     3     7     8   ar
     4     8     9   ar
     5     9    10    1
     6     9    11   ar
     7    11    12   ar
     8    12    13   ar
     9    13     1    1
    10     1     2   ar
    11     2     3   ar
    12     3     4   ar
    13     4     5   ar
    14     5    16    1
    15    16    17    1
    16    17    19    1
    17    19    20    1
    18    20    21    1
    19    21    22    1
    20     5     6   ar
    21    13     7   ar
    22     6     1   ar
    23    22    20    1
    24    17    18    1
@<TRIPOS>MOLECULE
*****
 22 24 0 0 0
SMALL
GASTEIGER

@<TRIPOS>ATOM
      1 C         -10.9769   -4.2498   18.2555 C.ar    1  UNL1        0.1030
      2 C          -9.7425   -4.6955   18.9818 C.ar    1  UNL1        0.1180
      3 N          -9.5235   -6.1523   19.2643 N.ar    1  UNL1       -0.2395
      4 C         -10.5389   -7.1633   18.8206 C.ar    1  UNL1        0.1149
      5 C         -11.7733   -6.7175   18.0944 C.ar    1  UNL1        0.0940
      6 N         -11.9923   -5.2607   17.8118 N.ar    1  UNL1       -0.2450
      7 C         -12.1374   -1.9966   18.8270 C.ar    1  UNL1        0.1424
      8 C         -12.3563   -0.5398   18.5444 C.ar    1  UNL1        0.0665
      9 C         -11.6339    0.1206   17.4078 C.ar    1  UNL1        0.1432
     10 F         -11.8529    1.5774   17.1253 F       1  UNL1       -0.2041
     11 C         -10.6924   -0.6758   16.5538 C.ar    1  UNL1        0.0299
     12 C         -10.4735   -2.1325   16.8363 C.ar    1  UNL1        0.0069
     13 C         -11.1959   -2.7929   17.9730 C.ar    1  UNL1        0.0533
     14 C         -14.3282   -2.9430   19.8539 C.3     1  UNL1        0.2525
     15 O         -12.8599   -2.6569   19.9636 O.3     1  UNL1       -0.4713
     16 C         -12.7887   -7.7285   17.6506 C.3     1  UNL1        0.1168
     17 N         -13.6786   -8.3906   18.6604 N.3     1  UNL1       -0.2924
     18 H         -14.0547   -7.6498   19.2521 H       1  UNL1        0.1236
     19 C         -14.8457   -9.2156   18.2050 C.3     1  UNL1        0.0688
     20 C         -16.0911   -9.2776   19.0387 C.3     1  UNL1        0.0158
     21 C         -17.4088   -9.9183   19.3599 C.3     1  UNL1        0.0014
     22 C         -16.9306   -8.7441   20.1615 C.3     1  UNL1        0.0014
@<TRIPOS>BOND
     1    14    15    1
     2    15     7    1
     3     7     8   ar
     4     8     9   ar
     5     9    10    1
     6     9    11   ar
     7    11    12   ar
     8    12    13   ar
     9    13     1    1
    10     1     2   ar
    11     2     3   ar
    12     3     4   ar
    13     4     5   ar
    14     5    16    1
    15    16    17    1
    16    17    19    1
    17    19    20    1
    18    20    21    1
    19    21    22    1
    20     5     6   ar
    21    13     7   ar
    22     6     1   ar
    23    22    20    1
    24    17    18    1
@<TRIPOS>MOLECULE
*****
 22 24 0 0 0
SMALL
GASTEIGER

@<TRIPOS>ATOM
      1 C          -4.9585  -16.7384   23.4946 C.ar    1  UNL1        0.1030
      2 C          -3.7364  -15.9316   23.1698 C.ar    1  UNL1        0.1180
      3 N          -2.7740  -16.4154   22.1259 N.ar    1  UNL1       -0.2395
      4 C          -3.0337  -17.7060   21.4068 C.ar    1  UNL1        0.1149
      5 C          -4.2559  -18.5127   21.7316 C.ar    1  UNL1        0.0940
      6 N          -5.2183  -18.0289   22.7756 N.ar    1  UNL1       -0.2450
      7 C          -7.3963  -16.2839   24.2696 C.ar    1  UNL1        0.1424
      8 C          -8.3587  -15.8001   25.3135 C.ar    1  UNL1        0.0665
      9 C          -7.8456  -15.2869   26.6263 C.ar    1  UNL1        0.1432
     10 F          -8.8081  -14.8030   27.6702 F       1  UNL1       -0.2041
     11 C          -6.3703  -15.2575   26.8952 C.ar    1  UNL1        0.0299
     12 C          -5.4079  -15.7413   25.8513 C.ar    1  UNL1        0.0069
     13 C          -5.9210  -16.2545   24.5385 C.ar    1  UNL1        0.0533
     14 C          -8.4874  -15.8440   21.9532 C.3     1  UNL1        0.2525
     15 O          -7.9094  -16.7971   22.9568 O.3     1  UNL1       -0.4713
     16 C          -4.5156  -19.8032   21.0126 C.3     1  UNL1        0.1168
     17 N          -5.7316  -19.9475   20.1463 N.3     1  UNL1       -0.2924
     18 H          -5.7214  -20.8997   19.7807 H       1  UNL1        0.1236
     19 C          -7.0965  -19.7207   20.7257 C.3     1  UNL1        0.0688
     20 C          -8.3002  -19.7172   19.8307 C.3     1  UNL1        0.0158
     21 C          -9.0994  -20.3426   18.7262 C.3     1  UNL1        0.0014
     22 C          -9.5857  -19.0859   19.3850 C.3     1  UNL1        0.0014
@<TRIPOS>BOND
     1    14    15    1
     2    15     7    1
     3     7     8   ar
     4     8     9   ar
     5     9    10    1
     6     9    11   ar
     7    11    12   ar
     8    12    13   ar
     9    13     1    1
    10     1     2   ar
    11     2     3   ar
    12     3     4   ar
    13     4     5   ar
    14     5    16    1
    15    16    17    1
    16    17    19    1
    17    19    20    1
    18    20    21    1
    19    21    22    1
    20     5     6   ar
    21    13     7   ar
    22     6     1   ar
    23    22    20    1
    24    17    18    1
@<TRIPOS>MOLECULE
*****
 22 24 0 0 0
SMALL
GASTEIGER

@<TRIPOS>ATOM
      1 C           4.2150   -0.7661   23.3379 C.ar    1  UNL1        0.1030
      2 C           5.4592    0.0654   23.4405 C.ar    1  UNL1        0.1180
      3 N           5.6412    1.0035   24.5967 N.ar    1  UNL1       -0.2395
      4 C           4.5789    1.1101   25.6504 C.ar    1  UNL1        0.1149
      5 C           3.3346    0.2787   25.5478 C.ar    1  UNL1        0.0940
      6 N           3.1527   -0.6595   24.3916 N.ar    1  UNL1       -0.2450
      7 C           4.5338   -3.1151   22.2746 C.ar    1  UNL1        0.1424
      8 C           4.3519   -4.0531   21.1183 C.ar    1  UNL1        0.0665
      9 C           3.6691   -3.5803   19.8692 C.ar    1  UNL1        0.1432
     10 F           3.4872   -4.5184   18.7129 F       1  UNL1       -0.2041
     11 C           3.1683   -2.1695   19.7763 C.ar    1  UNL1        0.0299
     12 C           3.3503   -1.2314   20.9325 C.ar    1  UNL1        0.0069
     13 C           4.0330   -1.7042   22.1817 C.ar    1  UNL1        0.0533
     14 C           6.6783   -3.9233   23.4984 C.3     1  UNL1        0.2525
     15 O           5.2166   -3.5879   23.5237 O.3     1  UNL1       -0.4713
     16 C           2.2723    0.3853   26.6015 C.3     1  UNL1        0.1168
     17 N           2.2626   -0.5721   27.7561 N.3     1  UNL1       -0.2924
     18 H           3.2256   -0.6487   28.0833 H       1  UNL1        0.1236
     19 C           1.4173   -0.2847   28.9616 C.3     1  UNL1        0.0688
     20 C          -0.0633   -0.0968   28.8119 C.3     1  UNL1        0.0158
     21 C          -1.2367    0.7886   28.5131 C.3     1  UNL1        0.0014
     22 C          -1.4544   -0.6565   28.8513 C.3     1  UNL1        0.0014
@<TRIPOS>BOND
     1    14    15    1
     2    15     7    1
     3     7     8   ar
     4     8     9   ar
     5     9    10    1
     6     9    11   ar
     7    11    12   ar
     8    12    13   ar
     9    13     1    1
    10     1     2   ar
    11     2     3   ar
    12     3     4   ar
    13     4     5   ar
    14     5    16    1
    15    16    17    1
    16    17    19    1
    17    19    20    1
    18    20    21    1
    19    21    22    1
    20     5     6   ar
    21    13     7   ar
    22     6     1   ar
    23    22    20    1
    24    17    18    1
@<TRIPOS>MOLECULE
*****
 22 24 0 0 0
SMALL
GASTEIGER

@<TRIPOS>ATOM
      1 C           3.8935    1.7087   34.0967 C.ar    1  UNL1        0.1030
      2 C           4.9283    2.6066   33.4861 C.ar    1  UNL1        0.1180
      3 N           5.4126    2.3516   32.0895 N.ar    1  UNL1       -0.2395
      4 C           4.8619    1.1987   31.3035 C.ar    1  UNL1        0.1149
      5 C           3.8271    0.3009   31.9141 C.ar    1  UNL1        0.0940
      6 N           3.3428    0.5559   33.3108 N.ar    1  UNL1       -0.2450
      7 C           3.7785    1.0200   36.5992 C.ar    1  UNL1        0.1424
      8 C           3.2943    1.2750   37.9958 C.ar    1  UNL1        0.0665
      9 C           2.4408    2.4738   38.2865 C.ar    1  UNL1        0.1432
     10 F           1.9566    2.7288   39.6832 F       1  UNL1       -0.2041
     11 C           2.0716    3.4175   37.1807 C.ar    1  UNL1        0.0299
     12 C           2.5558    3.1625   35.7841 C.ar    1  UNL1        0.0069
     13 C           3.4093    1.9637   35.4934 C.ar    1  UNL1        0.0533
     14 C           6.0977   -0.1507   36.6259 C.3     1  UNL1        0.2525
     15 O           4.6320   -0.1788   36.3085 O.3     1  UNL1       -0.4713
     16 C           3.2764   -0.8519   31.1282 C.3     1  UNL1        0.1168
     17 N           1.8520   -0.8273   30.6587 N.3     1  UNL1       -0.2924
     18 H           1.3335   -0.2507   31.3214 H       1  UNL1        0.1236
     19 C           1.5228   -0.3142   29.2882 C.3     1  UNL1        0.0688
     20 C           0.0933   -0.0807   28.8981 C.3     1  UNL1        0.0158
     21 C          -1.3072   -0.5907   28.7298 C.3     1  UNL1        0.0014
     22 C          -0.9820    0.8338   28.3908 C.3     1  UNL1        0.0014
@<TRIPOS>BOND
     1    14    15    1
     2    15     7    1
     3     7     8   ar
     4     8     9   ar
     5     9    10    1
     6     9    11   ar
     7    11    12   ar
     8    12    13   ar
     9    13     1    1
    10     1     2   ar
    11     2     3   ar
    12     3     4   ar
    13     4     5   ar
    14     5    16    1
    15    16    17    1
    16    17    19    1
    17    19    20    1
    18    20    21    1
    19    21    22    1
    20     5     6   ar
    21    13     7   ar
    22     6     1   ar
    23    22    20    1
    24    17    18    1
