@<TRIPOS>MOLECULE
*****
 33 36 0 0 0
SMALL
GASTEIGER

@<TRIPOS>ATOM
      1 C           3.4438    3.3794   37.6507 C.3     1  UNL1        0.0954
      2 C           4.2540    4.6319   37.8075 C.3     1  UNL1        0.0371
      3 C           4.4753    5.2162   39.1712 C.3     1  UNL1        0.0841
      4 N           5.2855    6.4689   39.3279 N.3     1  UNL1       -0.3199
      5 C           3.8865    4.5480   40.3781 C.3     1  UNL1        0.1540
      6 O           3.0763    3.2954   40.2213 O.3     1  UNL1       -0.3432
      7 C           2.8550    2.7111   38.8576 C.3     1  UNL1        0.2247
      8 H           5.6052    6.7839   38.4119 H       1  UNL1        0.1189
      9 H           6.0921    6.2799   39.9230 H       1  UNL1        0.1189
     10 N           2.5412    0.9968   32.0901 N.ar    1  UNL1       -0.1303
     11 C           3.6090    0.5889   33.0614 C.ar    1  UNL1        0.1195
     12 C           3.4614    1.4316   34.2935 C.ar    1  UNL1        0.0312
     13 C           2.3023    2.3603   34.0837 C.ar    1  UNL1        0.0954
     14 N           1.7336    2.0916   32.7220 N.ar    1  UNL1       -0.1519
     15 C           2.1547    3.2030   35.3158 C.3     1  UNL1        0.1205
     16 N           3.2224    2.7951   36.2871 N.3     1  UNL1       -0.2625
     17 C           4.0300    1.7003   35.6553 C.3     1  UNL1        0.1024
     18 C           2.0985   -0.1718   29.3628 C.3     1  UNL1        0.2042
     19 S           2.3199    0.4125   30.7265 S.O2    1  UNL1        0.0828
     20 O           2.5477   -0.9633   31.2790 O.2     1  UNL1       -0.1508
     21 O           2.0920    1.7883   30.1739 O.2     1  UNL1       -0.1508
     22 C           4.1078    5.1323   41.7417 C.ar    1  UNL1        0.0355
     23 C           2.9489    5.6821   42.5192 C.ar    1  UNL1        0.0300
     24 C           3.1703    6.2664   43.8829 C.ar    1  UNL1        0.1400
     25 F           2.0112    6.8163   44.6604 F       1  UNL1       -0.2042
     26 C           4.5505    6.3009   44.4691 C.ar    1  UNL1        0.0319
     27 C           5.7094    5.7511   43.6916 C.ar    1  UNL1        0.0317
     28 C           5.4881    5.1668   42.3279 C.ar    1  UNL1        0.1386
     29 F           6.6471    4.6169   41.5504 F       1  UNL1       -0.2044
     30 C           2.0447    1.4585   38.7009 C.3     1  UNL1        0.4234
     31 F           1.2346    0.2059   38.5442 F       1  UNL1       -0.1674
     32 F           0.7858    2.2741   38.6903 F       1  UNL1       -0.1674
     33 F           3.3036    0.6429   38.7115 F       1  UNL1       -0.1674
@<TRIPOS>BOND
     1    18    19    1
     2    19    20    2
     3    19    21    2
     4    19    10    1
     5    10    11   ar
     6    11    12   ar
     7    12    13   ar
     8    13    14   ar
     9    13    15    1
    10    15    16    1
    11     1    16    1
    12     1     2    1
    13     2     3    1
    14     3     4    1
    15     3     5    1
    16     5    22    1
    17    22    23   ar
    18    23    24   ar
    19    24    25    1
    20    24    26   ar
    21    26    27   ar
    22    27    28   ar
    23    28    29    1
    24     5     6    1
    25     6     7    1
    26     7    30    1
    27    30    31    1
    28    30    32    1
    29    30    33    1
    30    16    17    1
    31    14    10   ar
    32     7     1    1
    33    17    12    1
    34    28    22   ar
    35     4     8    1
    36     4     9    1
@<TRIPOS>MOLECULE
*****
 33 36 0 0 0
SMALL
GASTEIGER

@<TRIPOS>ATOM
      1 C           5.3813   -1.3505   31.9387 C.3     1  UNL1        0.0954
      2 C           5.5979   -2.6870   32.5840 C.3     1  UNL1        0.0371
      3 C           6.2608   -3.7920   31.8162 C.3     1  UNL1        0.0841
      4 N           6.4774   -5.1287   32.4616 N.3     1  UNL1       -0.3199
      5 C           6.7070   -3.5605   30.4030 C.3     1  UNL1        0.1540
      6 O           6.4904   -2.2239   29.7576 O.3     1  UNL1       -0.3432
      7 C           5.8275   -1.1189   30.5254 C.3     1  UNL1        0.2247
      8 H           6.1160   -5.1083   33.4152 H       1  UNL1        0.1189
      9 H           7.4753   -5.3393   32.4807 H       1  UNL1        0.1189
     10 N           2.6783    3.1554   35.0696 N.ar    1  UNL1       -0.1303
     11 C           2.0537    2.3472   33.9711 C.ar    1  UNL1        0.1195
     12 C           3.0716    1.3569   33.4880 C.ar    1  UNL1        0.0312
     13 C           4.3252    1.5530   34.2880 C.ar    1  UNL1        0.0954
     14 N           4.0821    2.6645   35.2655 N.ar    1  UNL1       -0.1519
     15 C           5.3430    0.5627   33.8049 C.3     1  UNL1        0.1205
     16 N           4.7184   -0.2454   32.7065 N.3     1  UNL1       -0.2625
     17 C           3.3146    0.2453   32.5106 C.3     1  UNL1        0.1024
     18 C           1.3525    5.3654   36.6053 C.3     1  UNL1        0.2042
     19 S           2.0154    4.2604   35.8374 S.O2    1  UNL1        0.0828
     20 O           1.6298    3.2843   36.9092 O.2     1  UNL1       -0.1508
     21 O           2.4010    5.2364   34.7657 O.2     1  UNL1       -0.1508
     22 C           7.3699   -4.6655   29.6352 C.ar    1  UNL1        0.0355
     23 C           6.6586   -5.3090   28.4820 C.ar    1  UNL1        0.0300
     24 C           7.3214   -6.4140   27.7142 C.ar    1  UNL1        0.1400
     25 F           6.6100   -7.0575   26.5609 F       1  UNL1       -0.2042
     26 C           8.6956   -6.8755   28.0995 C.ar    1  UNL1        0.0319
     27 C           9.4070   -6.2319   29.2526 C.ar    1  UNL1        0.0317
     28 C           8.7441   -5.1269   30.0205 C.ar    1  UNL1        0.1386
     29 F           9.4555   -4.4834   31.1737 F       1  UNL1       -0.2044
     30 C           5.6109    0.2178   29.8800 C.3     1  UNL1        0.4234
     31 F           5.3942    1.5543   29.2346 F       1  UNL1       -0.1674
     32 F           6.8974    0.7122   30.4721 F       1  UNL1       -0.1674
     33 F           4.3244   -0.2767   29.2880 F       1  UNL1       -0.1674
@<TRIPOS>BOND
     1    18    19    1
     2    19    20    2
     3    19    21    2
     4    19    10    1
     5    10    11   ar
     6    11    12   ar
     7    12    13   ar
     8    13    14   ar
     9    13    15    1
    10    15    16    1
    11     1    16    1
    12     1     2    1
    13     2     3    1
    14     3     4    1
    15     3     5    1
    16     5    22    1
    17    22    23   ar
    18    23    24   ar
    19    24    25    1
    20    24    26   ar
    21    26    27   ar
    22    27    28   ar
    23    28    29    1
    24     5     6    1
    25     6     7    1
    26     7    30    1
    27    30    31    1
    28    30    32    1
    29    30    33    1
    30    16    17    1
    31    14    10   ar
    32     7     1    1
    33    17    12    1
    34    28    22   ar
    35     4     8    1
    36     4     9    1
@<TRIPOS>MOLECULE
*****
 33 36 0 0 0
SMALL
GASTEIGER

@<TRIPOS>ATOM
      1 C           0.5640    2.3902   28.7107 C.3     1  UNL1        0.0954
      2 C           1.4537    3.4405   29.3067 C.3     1  UNL1        0.0371
      3 C           2.0962    3.2095   30.6423 C.3     1  UNL1        0.0841
      4 N           2.9859    4.2599   31.2382 N.3     1  UNL1       -0.3199
      5 C           1.8489    1.9283   31.3820 C.3     1  UNL1        0.1540
      6 O           0.9591    0.8780   30.7860 O.3     1  UNL1       -0.3432
      7 C           0.3167    1.1089   29.4504 C.3     1  UNL1        0.2247
      8 H           3.0413    5.0577   30.6051 H       1  UNL1        0.1189
      9 H           3.9192    3.8738   31.3812 H       1  UNL1        0.1189
     10 N          -2.0557    3.3320   23.2645 N.ar    1  UNL1       -0.1303
     11 C          -2.7110    3.5142   24.6014 C.ar    1  UNL1        0.1195
     12 C          -1.7055    3.1731   25.6609 C.ar    1  UNL1        0.0312
     13 C          -0.4287    2.7800   24.9788 C.ar    1  UNL1        0.0954
     14 N          -0.6452    2.8782   23.4977 N.ar    1  UNL1       -0.1519
     15 C           0.5768    2.4389   26.0383 C.3     1  UNL1        0.1205
     16 N          -0.0785    2.6211   27.3751 N.3     1  UNL1       -0.2625
     17 C          -1.4890    3.0749   27.1419 C.3     1  UNL1        0.1024
     18 C          -3.3406    3.7939   20.5932 C.3     1  UNL1        0.2042
     19 S          -2.6982    3.5629   21.9288 S.O2    1  UNL1        0.0828
     20 O          -3.7964    4.3405   22.5916 O.2     1  UNL1       -0.1508
     21 O          -1.5999    2.7854   21.2661 O.2     1  UNL1       -0.1508
     22 C           2.4913    1.6973   32.7176 C.ar    1  UNL1        0.0355
     23 C           3.5485    0.6441   32.8693 C.ar    1  UNL1        0.0300
     24 C           4.1910    0.4131   34.2049 C.ar    1  UNL1        0.1400
     25 F           5.2482   -0.6401   34.3565 F       1  UNL1       -0.2042
     26 C           3.7762    1.2354   35.3889 C.ar    1  UNL1        0.0319
     27 C           2.7190    2.2885   35.2372 C.ar    1  UNL1        0.0317
     28 C           2.0765    2.5195   33.9016 C.ar    1  UNL1        0.1386
     29 F           1.0193    3.5728   33.7500 F       1  UNL1       -0.2044
     30 C          -0.5731    0.0586   28.8545 C.3     1  UNL1        0.4234
     31 F          -1.4628   -0.9918   28.2585 F       1  UNL1       -0.1674
     32 F          -1.7136    0.5459   29.6983 F       1  UNL1       -0.1674
     33 F           0.5673   -0.4287   28.0107 F       1  UNL1       -0.1674
@<TRIPOS>BOND
     1    18    19    1
     2    19    20    2
     3    19    21    2
     4    19    10    1
     5    10    11   ar
     6    11    12   ar
     7    12    13   ar
     8    13    14   ar
     9    13    15    1
    10    15    16    1
    11     1    16    1
    12     1     2    1
    13     2     3    1
    14     3     4    1
    15     3     5    1
    16     5    22    1
    17    22    23   ar
    18    23    24   ar
    19    24    25    1
    20    24    26   ar
    21    26    27   ar
    22    27    28   ar
    23    28    29    1
    24     5     6    1
    25     6     7    1
    26     7    30    1
    27    30    31    1
    28    30    32    1
    29    30    33    1
    30    16    17    1
    31    14    10   ar
    32     7     1    1
    33    17    12    1
    34    28    22   ar
    35     4     8    1
    36     4     9    1
@<TRIPOS>MOLECULE
*****
 33 36 0 0 0
SMALL
GASTEIGER

@<TRIPOS>ATOM
      1 C          -1.4144    2.7674   26.2712 C.3     1  UNL1        0.0954
      2 C          -2.8401    3.1462   26.5427 C.3     1  UNL1        0.0371
      3 C          -3.7103    3.6415   25.4258 C.3     1  UNL1        0.0841
      4 N          -5.1361    4.0203   25.6974 N.3     1  UNL1       -0.3199
      5 C          -3.1547    3.7581   24.0374 C.3     1  UNL1        0.1540
      6 O          -1.7290    3.3794   23.7659 O.3     1  UNL1       -0.3432
      7 C          -0.8588    2.8840   24.8828 C.3     1  UNL1        0.2247
      8 H          -5.3428    3.8797   26.6863 H       1  UNL1        0.1189
      9 H          -5.7558    3.4378   25.1343 H       1  UNL1        0.1189
     10 N           2.1338    0.7476   30.8255 N.ar    1  UNL1       -0.1303
     11 C           1.9784    2.1764   30.3962 C.ar    1  UNL1        0.1195
     12 C           1.0148    2.2130   29.2472 C.ar    1  UNL1        0.0312
     13 C           0.5748    0.8067   28.9664 C.ar    1  UNL1        0.0954
     14 N           1.2664   -0.0989   29.9418 N.ar    1  UNL1       -0.1519
     15 C          -0.3888    0.8433   27.8173 C.3     1  UNL1        0.1205
     16 N          -0.5442    2.2721   27.3881 N.3     1  UNL1       -0.2625
     17 C           0.3232    3.1186   28.2717 C.3     1  UNL1        0.1024
     18 C           3.8742   -0.2431   33.0593 C.3     1  UNL1        0.2042
     19 S           3.0040    0.2522   31.9424 S.O2    1  UNL1        0.0828
     20 O           3.2353    1.6654   32.3890 O.2     1  UNL1       -0.1508
     21 O           2.7727   -1.1610   31.4959 O.2     1  UNL1       -0.1508
     22 C          -4.0248    4.2535   22.9205 C.ar    1  UNL1        0.0355
     23 C          -4.4749    3.3095   21.8452 C.ar    1  UNL1        0.0300
     24 C          -5.3450    3.8048   20.7283 C.ar    1  UNL1        0.1400
     25 F          -5.7951    2.8608   19.6530 F       1  UNL1       -0.2042
     26 C          -5.7652    5.2442   20.6867 C.ar    1  UNL1        0.0319
     27 C          -5.3151    6.1881   21.7620 C.ar    1  UNL1        0.0317
     28 C          -4.4450    5.6928   22.8789 C.ar    1  UNL1        0.1386
     29 F          -3.9950    6.6369   23.9543 F       1  UNL1       -0.2044
     30 C           0.5670    2.5052   24.6113 C.3     1  UNL1        0.4234
     31 F           1.9928    2.1265   24.3397 F       1  UNL1       -0.1674
     32 F           0.1507    1.0773   24.4169 F       1  UNL1       -0.1674
     33 F           0.9833    3.9331   24.8056 F       1  UNL1       -0.1674
@<TRIPOS>BOND
     1    18    19    1
     2    19    20    2
     3    19    21    2
     4    19    10    1
     5    10    11   ar
     6    11    12   ar
     7    12    13   ar
     8    13    14   ar
     9    13    15    1
    10    15    16    1
    11     1    16    1
    12     1     2    1
    13     2     3    1
    14     3     4    1
    15     3     5    1
    16     5    22    1
    17    22    23   ar
    18    23    24   ar
    19    24    25    1
    20    24    26   ar
    21    26    27   ar
    22    27    28   ar
    23    28    29    1
    24     5     6    1
    25     6     7    1
    26     7    30    1
    27    30    31    1
    28    30    32    1
    29    30    33    1
    30    16    17    1
    31    14    10   ar
    32     7     1    1
    33    17    12    1
    34    28    22   ar
    35     4     8    1
    36     4     9    1
@<TRIPOS>MOLECULE
*****
 33 36 0 0 0
SMALL
GASTEIGER

@<TRIPOS>ATOM
      1 C           4.7297   -0.2034   32.8712 C.3     1  UNL1        0.0954
      2 C           3.3205    0.1808   32.5301 C.3     1  UNL1        0.0371
      3 C           2.6743    1.3479   33.2159 C.3     1  UNL1        0.0841
      4 N           1.2650    1.7321   32.8747 N.3     1  UNL1       -0.3199
      5 C           3.4373    2.1307   34.2430 C.3     1  UNL1        0.1540
      6 O           4.8465    1.7465   34.5842 O.3     1  UNL1       -0.3432
      7 C           5.4927    0.5795   33.8983 C.3     1  UNL1        0.2247
      8 H           0.9023    1.0974   32.1633 H       1  UNL1        0.1189
      9 H           1.2500    2.6874   32.5176 H       1  UNL1        0.1189
     10 N           7.3646   -4.9622   30.0745 N.ar    1  UNL1       -0.1303
     11 C           6.8673   -4.9359   31.4894 C.ar    1  UNL1        0.1195
     12 C           6.2976   -3.5740   31.7553 C.ar    1  UNL1        0.0312
     13 C           6.4428   -2.7586   30.5046 C.ar    1  UNL1        0.0954
     14 N           7.1022   -3.6166   29.4659 N.ar    1  UNL1       -0.1519
     15 C           5.8731   -1.3967   30.7705 C.3     1  UNL1        0.1205
     16 N           5.3759   -1.3704   32.1854 N.3     1  UNL1       -0.2625
     17 C           5.6382   -2.7160   32.7940 C.3     1  UNL1        0.1024
     18 C           8.6570   -7.2963   28.7027 C.3     1  UNL1        0.2042
     19 S           8.0108   -6.1293   29.3886 S.O2    1  UNL1        0.0828
     20 O           7.1157   -5.9275   28.2019 O.2     1  UNL1       -0.1508
     21 O           8.9059   -6.3311   30.5752 O.2     1  UNL1       -0.1508
     22 C           2.7911    3.2978   34.9289 C.ar    1  UNL1        0.0355
     23 C           2.6454    4.6049   34.2077 C.ar    1  UNL1        0.0300
     24 C           1.9992    5.7720   34.8936 C.ar    1  UNL1        0.1400
     25 F           1.8536    7.0792   34.1724 F       1  UNL1       -0.2042
     26 C           1.4987    5.6319   36.3007 C.ar    1  UNL1        0.0319
     27 C           1.6444    4.3247   37.0218 C.ar    1  UNL1        0.0317
     28 C           2.2906    3.1577   36.3359 C.ar    1  UNL1        0.1386
     29 F           2.4362    1.8505   37.0572 F       1  UNL1       -0.2044
     30 C           6.9020    0.1953   34.2396 C.3     1  UNL1        0.4234
     31 F           8.3112   -0.1889   34.5808 F       1  UNL1       -0.1674
     32 F           7.4004    0.9747   33.0588 F       1  UNL1       -0.1674
     33 F           6.4036   -0.5841   35.4202 F       1  UNL1       -0.1674
@<TRIPOS>BOND
     1    18    19    1
     2    19    20    2
     3    19    21    2
     4    19    10    1
     5    10    11   ar
     6    11    12   ar
     7    12    13   ar
     8    13    14   ar
     9    13    15    1
    10    15    16    1
    11     1    16    1
    12     1     2    1
    13     2     3    1
    14     3     4    1
    15     3     5    1
    16     5    22    1
    17    22    23   ar
    18    23    24   ar
    19    24    25    1
    20    24    26   ar
    21    26    27   ar
    22    27    28   ar
    23    28    29    1
    24     5     6    1
    25     6     7    1
    26     7    30    1
    27    30    31    1
    28    30    32    1
    29    30    33    1
    30    16    17    1
    31    14    10   ar
    32     7     1    1
    33    17    12    1
    34    28    22   ar
    35     4     8    1
    36     4     9    1
@<TRIPOS>MOLECULE
*****
 33 36 0 0 0
SMALL
GASTEIGER

@<TRIPOS>ATOM
      1 C           1.3997    2.0783   27.5661 C.3     1  UNL1        0.0954
      2 C           2.5075    2.4994   26.6467 C.3     1  UNL1        0.0371
      3 C           2.4431    2.1556   25.1880 C.3     1  UNL1        0.0841
      4 N           3.5510    2.5768   24.2686 N.3     1  UNL1       -0.3199
      5 C           1.2709    1.3908   24.6488 C.3     1  UNL1        0.1540
      6 O           0.1631    0.9697   25.5682 O.3     1  UNL1       -0.3432
      7 C           0.2275    1.3134   27.0269 C.3     1  UNL1        0.2247
      8 H           4.2598    3.0826   24.7997 H       1  UNL1        0.1189
      9 H           3.1756    3.1830   23.5392 H       1  UNL1        0.1189
     10 N           1.6624    3.4801   33.5140 N.ar    1  UNL1       -0.1303
     11 C           1.0820    4.3397   32.4304 C.ar    1  UNL1        0.1195
     12 C           1.2280    3.6072   31.1295 C.ar    1  UNL1        0.0312
     13 C           1.8986    2.2950   31.4092 C.ar    1  UNL1        0.0954
     14 N           2.1671    2.2164   32.8829 N.ar    1  UNL1       -0.1519
     15 C           2.0445    1.5625   30.1083 C.3     1  UNL1        0.1205
     16 N           1.4642    2.4221   29.0248 N.3     1  UNL1       -0.2625
     17 C           0.9595    3.6858   29.6558 C.3     1  UNL1        0.1024
     18 C           1.7913    4.1677   36.4313 C.3     1  UNL1        0.2042
     19 S           1.7269    3.8239   34.9727 S.O2    1  UNL1        0.0828
     20 O           1.2816    5.2224   34.6627 O.2     1  UNL1       -0.1508
     21 O           2.1721    2.4255   35.2826 O.2     1  UNL1       -0.1508
     22 C           1.2065    1.0470   23.1902 C.ar    1  UNL1        0.0355
     23 C           0.3046    1.8222   22.2760 C.ar    1  UNL1        0.0300
     24 C           0.2402    1.4784   20.8174 C.ar    1  UNL1        0.1400
     25 F          -0.6617    2.2537   19.9032 F       1  UNL1       -0.2042
     26 C           1.0776    0.3594   20.2729 C.ar    1  UNL1        0.0319
     27 C           1.9794   -0.4158   21.1870 C.ar    1  UNL1        0.0317
     28 C           2.0439   -0.0720   22.6456 C.ar    1  UNL1        0.1386
     29 F           2.9458   -0.8473   23.5598 F       1  UNL1       -0.2044
     30 C          -0.8804    0.8923   27.9463 C.3     1  UNL1        0.4234
     31 F          -1.9882    0.4711   28.8657 F       1  UNL1       -0.1674
     32 F          -1.6655    2.1101   27.5581 F       1  UNL1       -0.1674
     33 F          -0.0953   -0.3254   28.3345 F       1  UNL1       -0.1674
@<TRIPOS>BOND
     1    18    19    1
     2    19    20    2
     3    19    21    2
     4    19    10    1
     5    10    11   ar
     6    11    12   ar
     7    12    13   ar
     8    13    14   ar
     9    13    15    1
    10    15    16    1
    11     1    16    1
    12     1     2    1
    13     2     3    1
    14     3     4    1
    15     3     5    1
    16     5    22    1
    17    22    23   ar
    18    23    24   ar
    19    24    25    1
    20    24    26   ar
    21    26    27   ar
    22    27    28   ar
    23    28    29    1
    24     5     6    1
    25     6     7    1
    26     7    30    1
    27    30    31    1
    28    30    32    1
    29    30    33    1
    30    16    17    1
    31    14    10   ar
    32     7     1    1
    33    17    12    1
    34    28    22   ar
    35     4     8    1
    36     4     9    1
@<TRIPOS>MOLECULE
*****
 33 36 0 0 0
SMALL
GASTEIGER

@<TRIPOS>ATOM
      1 C           1.2313    2.0072   27.7240 C.3     1  UNL1        0.0954
      2 C           2.1509    2.6879   26.7540 C.3     1  UNL1        0.0371
      3 C           1.8723    2.6190   25.2817 C.3     1  UNL1        0.0841
      4 N           2.7921    3.2998   24.3118 N.3     1  UNL1       -0.3199
      5 C           0.6742    1.8694   24.7794 C.3     1  UNL1        0.1540
      6 O          -0.2455    1.1887   25.7493 O.3     1  UNL1       -0.3432
      7 C           0.0331    1.2576   27.2216 C.3     1  UNL1        0.2247
      8 H           3.5471    3.7570   24.8228 H       1  UNL1        0.1189
      9 H           2.2703    3.9968   23.7804 H       1  UNL1        0.1189
     10 N           2.3671    2.2882   33.7275 N.ar    1  UNL1       -0.1303
     11 C           2.9459    1.2927   32.7663 C.ar    1  UNL1        0.1195
     12 C           2.3974    1.5919   31.4026 C.ar    1  UNL1        0.0312
     13 C           1.4795    2.7724   31.5211 C.ar    1  UNL1        0.0954
     14 N           1.4608    3.2027   32.9579 N.ar    1  UNL1       -0.1519
     15 C           0.9309    3.0716   30.1574 C.3     1  UNL1        0.1205
     16 N           1.5098    2.0761   29.1963 N.3     1  UNL1       -0.2625
     17 C           2.4161    1.1616   29.9658 C.3     1  UNL1        0.1024
     18 C           2.9242    2.4260   36.6721 C.3     1  UNL1        0.2042
     19 S           2.6457    2.3571   35.1998 S.O2    1  UNL1        0.0828
     20 O           3.6524    1.2538   35.0610 O.2     1  UNL1       -0.1508
     21 O           1.6389    3.4603   35.3387 O.2     1  UNL1       -0.1508
     22 C           0.3956    1.8005   23.3071 C.ar    1  UNL1        0.0355
     23 C           0.9155    0.6491   22.4985 C.ar    1  UNL1        0.0300
     24 C           0.6370    0.5802   21.0262 C.ar    1  UNL1        0.1400
     25 F           1.1570   -0.5713   20.2176 F       1  UNL1       -0.2042
     26 C          -0.1615    1.6627   20.3625 C.ar    1  UNL1        0.0319
     27 C          -0.6814    2.8141   21.1711 C.ar    1  UNL1        0.0317
     28 C          -0.4029    2.8830   22.6434 C.ar    1  UNL1        0.1386
     29 F          -0.9229    4.0345   23.4520 F       1  UNL1       -0.2044
     30 C          -0.8866    0.5769   28.1916 C.3     1  UNL1        0.4234
     31 F          -1.8063   -0.1039   29.1615 F       1  UNL1       -0.1674
     32 F          -1.8864    1.6818   28.0191 F       1  UNL1       -0.1674
     33 F           0.1131   -0.5280   28.3641 F       1  UNL1       -0.1674
@<TRIPOS>BOND
     1    18    19    1
     2    19    20    2
     3    19    21    2
     4    19    10    1
     5    10    11   ar
     6    11    12   ar
     7    12    13   ar
     8    13    14   ar
     9    13    15    1
    10    15    16    1
    11     1    16    1
    12     1     2    1
    13     2     3    1
    14     3     4    1
    15     3     5    1
    16     5    22    1
    17    22    23   ar
    18    23    24   ar
    19    24    25    1
    20    24    26   ar
    21    26    27   ar
    22    27    28   ar
    23    28    29    1
    24     5     6    1
    25     6     7    1
    26     7    30    1
    27    30    31    1
    28    30    32    1
    29    30    33    1
    30    16    17    1
    31    14    10   ar
    32     7     1    1
    33    17    12    1
    34    28    22   ar
    35     4     8    1
    36     4     9    1
@<TRIPOS>MOLECULE
*****
 33 36 0 0 0
SMALL
GASTEIGER

@<TRIPOS>ATOM
      1 C           3.9138   -0.7408   25.0710 C.3     1  UNL1        0.0954
      2 C           2.9149   -0.5403   23.9702 C.3     1  UNL1        0.0371
      3 C           3.2325   -0.9963   22.5769 C.3     1  UNL1        0.0841
      4 N           2.2335   -0.7958   21.4761 N.3     1  UNL1       -0.3199
      5 C           4.5491   -1.6529   22.2845 C.3     1  UNL1        0.1540
      6 O           5.5480   -1.8534   23.3854 O.3     1  UNL1       -0.3432
      7 C           5.2304   -1.3973   24.7786 C.3     1  UNL1        0.2247
      8 H           1.4022   -0.3385   21.8505 H       1  UNL1        0.1189
      9 H           1.9755   -1.7006   21.0821 H       1  UNL1        0.1189
     10 N           2.6187    1.1190   30.7522 N.ar    1  UNL1       -0.1303
     11 C           2.5991   -0.2987   30.2625 C.ar    1  UNL1        0.1195
     12 C           2.9800   -0.2934   28.8117 C.ar    1  UNL1        0.0312
     13 C           3.2350    1.1276   28.4047 C.ar    1  UNL1        0.0954
     14 N           3.0117    2.0005   29.6039 N.ar    1  UNL1       -0.1519
     15 C           3.6159    1.1330   26.9538 C.3     1  UNL1        0.1205
     16 N           3.5962   -0.2847   26.4642 N.3     1  UNL1       -0.2625
     17 C           3.2032   -1.1662   27.6124 C.3     1  UNL1        0.1024
     18 C           1.9835    2.0311   33.5387 C.3     1  UNL1        0.2042
     19 S           2.3011    1.5750   32.1454 S.O2    1  UNL1        0.0828
     20 O           0.8413    1.6073   31.8021 O.2     1  UNL1       -0.1508
     21 O           3.7609    1.5428   32.4888 O.2     1  UNL1       -0.1508
     22 C           4.8667   -2.1090   20.8913 C.ar    1  UNL1        0.0355
     23 C           4.5636   -3.5181   20.4760 C.ar    1  UNL1        0.0300
     24 C           4.8812   -3.9742   19.0828 C.ar    1  UNL1        0.1400
     25 F           4.5781   -5.3834   18.6675 F       1  UNL1       -0.2042
     26 C           5.5019   -3.0211   18.1048 C.ar    1  UNL1        0.0319
     27 C           5.8050   -1.6120   18.5201 C.ar    1  UNL1        0.0317
     28 C           5.4874   -1.1560   19.9133 C.ar    1  UNL1        0.1386
     29 F           5.7905    0.2532   20.3286 F       1  UNL1       -0.2044
     30 C           6.2294   -1.5979   25.8795 C.3     1  UNL1        0.4234
     31 F           7.2284   -1.7984   26.9803 F       1  UNL1       -0.1674
     32 F           6.6263   -0.1545   25.7822 F       1  UNL1       -0.1674
     33 F           5.8326   -3.0411   25.9766 F       1  UNL1       -0.1674
@<TRIPOS>BOND
     1    18    19    1
     2    19    20    2
     3    19    21    2
     4    19    10    1
     5    10    11   ar
     6    11    12   ar
     7    12    13   ar
     8    13    14   ar
     9    13    15    1
    10    15    16    1
    11     1    16    1
    12     1     2    1
    13     2     3    1
    14     3     4    1
    15     3     5    1
    16     5    22    1
    17    22    23   ar
    18    23    24   ar
    19    24    25    1
    20    24    26   ar
    21    26    27   ar
    22    27    28   ar
    23    28    29    1
    24     5     6    1
    25     6     7    1
    26     7    30    1
    27    30    31    1
    28    30    32    1
    29    30    33    1
    30    16    17    1
    31    14    10   ar
    32     7     1    1
    33    17    12    1
    34    28    22   ar
    35     4     8    1
    36     4     9    1
@<TRIPOS>MOLECULE
*****
 33 36 0 0 0
SMALL
GASTEIGER

@<TRIPOS>ATOM
      1 C           1.5530    2.0640   28.3749 C.3     1  UNL1        0.0954
      2 C           2.4670    3.1503   28.8591 C.3     1  UNL1        0.0371
      3 C           2.5591    3.4551   30.3249 C.3     1  UNL1        0.0841
      4 N           3.4731    4.5415   30.8090 N.3     1  UNL1       -0.3199
      5 C           1.7372    2.6736   31.3065 C.3     1  UNL1        0.1540
      6 O           0.8232    1.5873   30.8224 O.3     1  UNL1       -0.3432
      7 C           0.7311    1.2825   29.3565 C.3     1  UNL1        0.2247
      8 H           3.9504    4.9642   30.0128 H       1  UNL1        0.1189
      9 H           4.1628    4.1460   31.4480 H       1  UNL1        0.1189
     10 N           1.1774    0.8211   22.3978 N.ar    1  UNL1       -0.1303
     11 C           2.1753    0.2438   23.3574 C.ar    1  UNL1        0.1195
     12 C           1.9024    0.8226   24.7141 C.ar    1  UNL1        0.0312
     13 C           0.7359    1.7578   24.5929 C.ar    1  UNL1        0.0954
     14 N           0.2878    1.7568   23.1614 N.ar    1  UNL1       -0.1519
     15 C           0.4630    2.3366   25.9496 C.3     1  UNL1        0.1205
     16 N           1.4609    1.7592   26.9091 N.3     1  UNL1       -0.2625
     17 C           2.3505    0.8235   26.1456 C.3     1  UNL1        0.1024
     18 C           0.9932    0.2115   19.4662 C.3     1  UNL1        0.2042
     19 S           1.0853    0.5163   20.9320 S.O2    1  UNL1        0.0828
     20 O          -0.3091    1.0686   20.9048 O.2     1  UNL1       -0.1508
     21 O           2.4797   -0.0359   20.9592 O.2     1  UNL1       -0.1508
     22 C           1.8293    2.9784   32.7723 C.ar    1  UNL1        0.0355
     23 C           1.2068    4.2288   33.3189 C.ar    1  UNL1        0.0300
     24 C           1.2989    4.5336   34.7848 C.ar    1  UNL1        0.1400
     25 F           0.6763    5.7842   35.3313 F       1  UNL1       -0.2042
     26 C           2.0135    3.5880   35.7040 C.ar    1  UNL1        0.0319
     27 C           2.6361    2.3376   35.1574 C.ar    1  UNL1        0.0317
     28 C           2.5439    2.0328   33.6916 C.ar    1  UNL1        0.1386
     29 F           3.1665    0.7823   33.1450 F       1  UNL1       -0.2044
     30 C          -0.1829    0.1961   28.8724 C.3     1  UNL1        0.4234
     31 F          -1.0970   -0.8902   28.3883 F       1  UNL1       -0.1674
     32 F           0.9434   -0.7908   28.9604 F       1  UNL1       -0.1674
     33 F          -1.3092    1.1829   28.7844 F       1  UNL1       -0.1674
@<TRIPOS>BOND
     1    18    19    1
     2    19    20    2
     3    19    21    2
     4    19    10    1
     5    10    11   ar
     6    11    12   ar
     7    12    13   ar
     8    13    14   ar
     9    13    15    1
    10    15    16    1
    11     1    16    1
    12     1     2    1
    13     2     3    1
    14     3     4    1
    15     3     5    1
    16     5    22    1
    17    22    23   ar
    18    23    24   ar
    19    24    25    1
    20    24    26   ar
    21    26    27   ar
    22    27    28   ar
    23    28    29    1
    24     5     6    1
    25     6     7    1
    26     7    30    1
    27    30    31    1
    28    30    32    1
    29    30    33    1
    30    16    17    1
    31    14    10   ar
    32     7     1    1
    33    17    12    1
    34    28    22   ar
    35     4     8    1
    36     4     9    1
