@<TRIPOS>MOLECULE
*****
 17 19 0 0 0
SMALL
GASTEIGER

@<TRIPOS>ATOM
      1 C          -7.9945  -19.5400   19.8819 C.3     1  UNL1        0.0896
      2 N          -9.0721  -18.7056   20.5081 N.3     1  UNL1       -0.2712
      3 C         -10.4962  -18.6128   20.0460 C.3     1  UNL1        0.0725
      4 C         -11.2191  -17.6672   20.9588 C.3     1  UNL1        0.0210
      5 C         -12.5460  -17.0255   21.2372 C.3     1  UNL1        0.0018
      6 C         -12.3888  -16.1371   22.4356 C.3     1  UNL1        0.0004
      7 C         -10.9648  -16.2298   22.8978 C.3     1  UNL1        0.0054
      8 C         -10.2419  -17.1755   21.9850 C.3     1  UNL1        0.0349
      9 C          -8.9150  -17.8172   21.7066 C.3     1  UNL1        0.0762
     10 C          -9.2646  -16.6838   23.0113 C.ar    1  UNL1       -0.0206
     11 C          -8.0895  -15.8521   22.5901 C.ar    1  UNL1       -0.0033
     12 C          -7.1123  -15.3604   23.6165 C.ar    1  UNL1        0.0119
     13 C          -7.3102  -15.7004   25.0639 C.ar    1  UNL1        0.0682
     14 CL         -6.3330  -15.2087   26.0902 Cl      1  UNL1       -0.0814
     15 C          -8.4853  -16.5322   25.4851 C.ar    1  UNL1        0.0679
     16 CL         -8.6831  -16.8722   26.9326 Cl      1  UNL1       -0.0814
     17 C          -9.4625  -17.0238   24.4588 C.ar    1  UNL1        0.0080
@<TRIPOS>BOND
     1     1     2    1
     2     2     3    1
     3     4     3    1
     4     4     5    1
     5     5     6    1
     6     6     7    1
     7     7     8    1
     8     8    10    1
     9    10    11   ar
    10    11    12   ar
    11    12    13   ar
    12    13    14    1
    13    13    15   ar
    14    15    16    1
    15    15    17   ar
    16     8     9    1
    17     9     2    1
    18     8     4    1
    19    17    10   ar
@<TRIPOS>MOLECULE
*****
 17 19 0 0 0
SMALL
GASTEIGER

@<TRIPOS>ATOM
      1 C         -11.0118  -15.5634   20.0228 C.3     1  UNL1        0.0896
      2 N         -10.7621  -16.7256   20.9375 N.3     1  UNL1       -0.2712
      3 C         -11.4525  -18.0561   20.8814 C.3     1  UNL1        0.0725
      4 C         -10.8951  -18.9142   21.9783 C.3     1  UNL1        0.0210
      5 C         -10.9774  -20.2668   22.6214 C.3     1  UNL1        0.0018
      6 C          -9.9934  -20.3026   23.7530 C.3     1  UNL1        0.0004
      7 C          -9.3030  -18.9721   23.8092 C.3     1  UNL1        0.0054
      8 C          -9.8603  -18.1140   22.7123 C.3     1  UNL1        0.0349
      9 C          -9.7780  -16.7614   22.0692 C.3     1  UNL1        0.0762
     10 C          -8.8254  -17.3138   23.4464 C.ar    1  UNL1       -0.0206
     11 C          -7.4649  -17.1169   22.8463 C.ar    1  UNL1       -0.0033
     12 C          -6.4301  -16.3167   23.5804 C.ar    1  UNL1        0.0119
     13 C          -6.7559  -15.7134   24.9145 C.ar    1  UNL1        0.0682
     14 CL         -5.7210  -14.9133   25.6485 Cl      1  UNL1       -0.0814
     15 C          -8.1164  -15.9103   25.5146 C.ar    1  UNL1        0.0679
     16 CL         -8.4421  -15.3070   26.8487 Cl      1  UNL1       -0.0814
     17 C          -9.1512  -16.7105   24.7805 C.ar    1  UNL1        0.0080
@<TRIPOS>BOND
     1     1     2    1
     2     2     3    1
     3     4     3    1
     4     4     5    1
     5     5     6    1
     6     6     7    1
     7     7     8    1
     8     8    10    1
     9    10    11   ar
    10    11    12   ar
    11    12    13   ar
    12    13    14    1
    13    13    15   ar
    14    15    16    1
    15    15    17   ar
    16     8     9    1
    17     9     2    1
    18     8     4    1
    19    17    10   ar
@<TRIPOS>MOLECULE
*****
 17 19 0 0 0
SMALL
GASTEIGER

@<TRIPOS>ATOM
      1 C         -11.4569  -15.6236   19.3362 C.3     1  UNL1        0.0896
      2 N         -11.5466  -16.4059   20.6127 N.3     1  UNL1       -0.2712
      3 C         -12.7954  -16.6648   21.4024 C.3     1  UNL1        0.0725
      4 C         -12.4238  -17.4857   22.6016 C.3     1  UNL1        0.0210
      5 C         -12.9660  -18.1529   23.8307 C.3     1  UNL1        0.0018
      6 C         -11.8226  -18.8139   24.5419 C.3     1  UNL1        0.0004
      7 C         -10.5737  -18.5550   23.7523 C.3     1  UNL1        0.0054
      8 C         -10.9453  -17.7341   22.5531 C.3     1  UNL1        0.0349
      9 C         -10.4031  -17.0669   21.3240 C.3     1  UNL1        0.0762
     10 C          -9.4668  -17.9826   22.5046 C.ar    1  UNL1       -0.0206
     11 C          -8.9372  -19.2351   21.8715 C.ar    1  UNL1       -0.0033
     12 C          -7.4586  -19.4835   21.8231 C.ar    1  UNL1        0.0119
     13 C          -6.5099  -18.4795   22.4078 C.ar    1  UNL1        0.0682
     14 CL         -5.0314  -18.7280   22.3593 Cl      1  UNL1       -0.0814
     15 C          -7.0396  -17.2271   23.0409 C.ar    1  UNL1        0.0679
     16 CL         -6.0908  -16.2231   23.6255 Cl      1  UNL1       -0.0814
     17 C          -8.5181  -16.9787   23.0893 C.ar    1  UNL1        0.0080
@<TRIPOS>BOND
     1     1     2    1
     2     2     3    1
     3     4     3    1
     4     4     5    1
     5     5     6    1
     6     6     7    1
     7     7     8    1
     8     8    10    1
     9    10    11   ar
    10    11    12   ar
    11    12    13   ar
    12    13    14    1
    13    13    15   ar
    14    15    16    1
    15    15    17   ar
    16     8     9    1
    17     9     2    1
    18     8     4    1
    19    17    10   ar
@<TRIPOS>MOLECULE
*****
 17 19 0 0 0
SMALL
GASTEIGER

@<TRIPOS>ATOM
      1 C          -5.1168  -16.2583   24.0474 C.3     1  UNL1        0.0896
      2 N          -4.8793  -17.3676   23.0661 N.3     1  UNL1       -0.2712
      3 C          -3.5417  -17.8923   22.6352 C.3     1  UNL1        0.0725
      4 C          -3.7733  -18.9959   21.6461 C.3     1  UNL1        0.0210
      5 C          -3.0898  -20.0022   20.7686 C.3     1  UNL1        0.0018
      6 C          -4.1481  -20.7816   20.0458 C.3     1  UNL1        0.0004
      7 C          -5.4857  -20.2570   20.4766 C.3     1  UNL1        0.0054
      8 C          -5.2541  -19.1534   21.4657 C.3     1  UNL1        0.0349
      9 C          -5.9376  -18.1470   22.3432 C.3     1  UNL1        0.0762
     10 C          -6.7348  -19.3108   21.2852 C.ar    1  UNL1       -0.0206
     11 C          -7.3401  -19.1964   19.9175 C.ar    1  UNL1       -0.0033
     12 C          -8.8209  -19.3538   19.7372 C.ar    1  UNL1        0.0119
     13 C          -9.6963  -19.6257   20.9244 C.ar    1  UNL1        0.0682
     14 CL        -11.1771  -19.7831   20.7440 Cl      1  UNL1       -0.0814
     15 C          -9.0911  -19.7401   22.2921 C.ar    1  UNL1        0.0679
     16 CL         -9.9666  -20.0120   23.4794 Cl      1  UNL1       -0.0814
     17 C          -7.6103  -19.5827   22.4725 C.ar    1  UNL1        0.0080
@<TRIPOS>BOND
     1     1     2    1
     2     2     3    1
     3     4     3    1
     4     4     5    1
     5     5     6    1
     6     6     7    1
     7     7     8    1
     8     8    10    1
     9    10    11   ar
    10    11    12   ar
    11    12    13   ar
    12    13    14    1
    13    13    15   ar
    14    15    16    1
    15    15    17   ar
    16     8     9    1
    17     9     2    1
    18     8     4    1
    19    17    10   ar
@<TRIPOS>MOLECULE
*****
 17 19 0 0 0
SMALL
GASTEIGER

@<TRIPOS>ATOM
      1 C         -11.4391  -15.6414   19.2843 C.3     1  UNL1        0.0896
      2 N         -11.5188  -16.4053   20.5727 N.3     1  UNL1       -0.2712
      3 C         -12.7726  -16.7292   21.3297 C.3     1  UNL1        0.0725
      4 C         -12.3873  -17.5036   22.5552 C.3     1  UNL1        0.0210
      5 C         -12.9241  -18.1823   23.7804 C.3     1  UNL1        0.0018
      6 C         -11.7639  -18.7566   24.5380 C.3     1  UNL1        0.0004
      7 C         -10.5100  -18.4328   23.7811 C.3     1  UNL1        0.0054
      8 C         -10.8953  -17.6583   22.5556 C.3     1  UNL1        0.0349
      9 C         -10.3585  -16.9796   21.3304 C.3     1  UNL1        0.0762
     10 C          -9.4033  -17.8131   22.5560 C.ar    1  UNL1       -0.0206
     11 C          -8.5443  -16.7993   23.2519 C.ar    1  UNL1       -0.0033
     12 C          -7.0523  -16.9542   23.2523 C.ar    1  UNL1        0.0119
     13 C          -6.4194  -18.1227   22.5567 C.ar    1  UNL1        0.0682
     14 CL         -4.9274  -18.2775   22.5572 Cl      1  UNL1       -0.0814
     15 C          -7.2784  -19.1365   21.8608 C.ar    1  UNL1        0.0679
     16 CL         -6.6454  -20.3051   21.1652 Cl      1  UNL1       -0.0814
     17 C          -8.7704  -18.9817   21.8604 C.ar    1  UNL1        0.0080
@<TRIPOS>BOND
     1     1     2    1
     2     2     3    1
     3     4     3    1
     4     4     5    1
     5     5     6    1
     6     6     7    1
     7     7     8    1
     8     8    10    1
     9    10    11   ar
    10    11    12   ar
    11    12    13   ar
    12    13    14    1
    13    13    15   ar
    14    15    16    1
    15    15    17   ar
    16     8     9    1
    17     9     2    1
    18     8     4    1
    19    17    10   ar
@<TRIPOS>MOLECULE
*****
 17 19 0 0 0
SMALL
GASTEIGER

@<TRIPOS>ATOM
      1 C          -4.6951  -16.2553   23.9553 C.3     1  UNL1        0.0896
      2 N          -4.9970  -17.4053   23.0410 N.3     1  UNL1       -0.2712
      3 C          -3.9915  -18.1988   22.2603 C.3     1  UNL1        0.0725
      4 C          -4.7306  -19.2477   21.4836 C.3     1  UNL1        0.0210
      5 C          -4.5659  -20.3864   20.5211 C.3     1  UNL1        0.0018
      6 C          -5.9265  -20.9450   20.2268 C.3     1  UNL1        0.0004
      7 C          -6.9321  -20.1516   21.0073 C.3     1  UNL1        0.0054
      8 C          -6.1930  -19.1026   21.7841 C.3     1  UNL1        0.0349
      9 C          -6.3577  -17.9640   22.7466 C.3     1  UNL1        0.0762
     10 C          -7.6554  -18.9575   22.0846 C.ar    1  UNL1       -0.0206
     11 C          -8.3702  -20.0217   22.8635 C.ar    1  UNL1       -0.0033
     12 C          -9.8327  -19.8765   23.1640 C.ar    1  UNL1        0.0119
     13 C         -10.5802  -18.6672   22.6857 C.ar    1  UNL1        0.0682
     14 CL        -12.0426  -18.5221   22.9862 Cl      1  UNL1       -0.0814
     15 C          -9.8653  -17.6031   21.9068 C.ar    1  UNL1        0.0679
     16 CL        -10.6129  -16.3938   21.4285 Cl      1  UNL1       -0.0814
     17 C          -8.4029  -17.7483   21.6063 C.ar    1  UNL1        0.0080
@<TRIPOS>BOND
     1     1     2    1
     2     2     3    1
     3     4     3    1
     4     4     5    1
     5     5     6    1
     6     6     7    1
     7     7     8    1
     8     8    10    1
     9    10    11   ar
    10    11    12   ar
    11    12    13   ar
    12    13    14    1
    13    13    15   ar
    14    15    16    1
    15    15    17   ar
    16     8     9    1
    17     9     2    1
    18     8     4    1
    19    17    10   ar
@<TRIPOS>MOLECULE
*****
 17 19 0 0 0
SMALL
GASTEIGER

@<TRIPOS>ATOM
      1 C         -11.7232  -15.6081   19.3091 C.3     1  UNL1        0.0896
      2 N         -11.6568  -16.4752   20.5311 N.3     1  UNL1       -0.2712
      3 C         -12.6598  -16.5060   21.6461 C.3     1  UNL1        0.0725
      4 C         -12.1986  -17.5137   22.6569 C.3     1  UNL1        0.0210
      5 C         -12.5335  -18.1555   23.9707 C.3     1  UNL1        0.0018
      6 C         -11.4524  -19.1443   24.2924 C.3     1  UNL1        0.0004
      7 C         -10.4494  -19.1136   23.1775 C.3     1  UNL1        0.0054
      8 C         -10.9106  -18.1059   22.1667 C.3     1  UNL1        0.0349
      9 C         -10.5757  -17.4641   20.8529 C.3     1  UNL1        0.0762
     10 C          -9.6225  -18.6980   21.6764 C.ar    1  UNL1       -0.0206
     11 C          -8.3896  -18.6203   22.5272 C.ar    1  UNL1       -0.0033
     12 C          -7.1015  -19.2124   22.0369 C.ar    1  UNL1        0.0119
     13 C          -7.0465  -19.8822   20.6959 C.ar    1  UNL1        0.0682
     14 CL         -5.7585  -20.4744   20.2056 Cl      1  UNL1       -0.0814
     15 C          -8.2795  -19.9600   19.8451 C.ar    1  UNL1        0.0679
     16 CL         -8.2244  -20.6298   18.5042 Cl      1  UNL1       -0.0814
     17 C          -9.5675  -19.3678   20.3355 C.ar    1  UNL1        0.0080
@<TRIPOS>BOND
     1     1     2    1
     2     2     3    1
     3     4     3    1
     4     4     5    1
     5     5     6    1
     6     6     7    1
     7     7     8    1
     8     8    10    1
     9    10    11   ar
    10    11    12   ar
    11    12    13   ar
    12    13    14    1
    13    13    15   ar
    14    15    16    1
    15    15    17   ar
    16     8     9    1
    17     9     2    1
    18     8     4    1
    19    17    10   ar
@<TRIPOS>MOLECULE
*****
 17 19 0 0 0
SMALL
GASTEIGER

@<TRIPOS>ATOM
      1 C          -6.5971  -15.0392   24.8151 C.3     1  UNL1        0.0896
      2 N          -6.7629  -16.2447   23.9381 N.3     1  UNL1       -0.2712
      3 C          -5.6624  -16.9783   23.2304 C.3     1  UNL1        0.0725
      4 C          -6.2776  -18.1153   22.4697 C.3     1  UNL1        0.0210
      5 C          -5.9777  -19.2714   21.5622 C.3     1  UNL1        0.0018
      6 C          -7.2731  -19.9550   21.2389 C.3     1  UNL1        0.0004
      7 C          -8.3736  -19.2215   21.9465 C.3     1  UNL1        0.0054
      8 C          -7.7584  -18.0845   22.7072 C.3     1  UNL1        0.0349
      9 C          -8.0583  -16.9284   23.6147 C.3     1  UNL1        0.0762
     10 C          -9.2391  -18.0536   22.9448 C.ar    1  UNL1       -0.0206
     11 C          -9.8185  -18.7224   24.1560 C.ar    1  UNL1       -0.0033
     12 C         -11.2993  -18.6915   24.3935 C.ar    1  UNL1        0.0119
     13 C         -12.2006  -17.9919   23.4198 C.ar    1  UNL1        0.0682
     14 CL        -13.6813  -17.9610   23.6574 Cl      1  UNL1       -0.0814
     15 C         -11.6212  -17.3231   22.2086 C.ar    1  UNL1        0.0679
     16 CL        -12.5226  -16.6234   21.2350 Cl      1  UNL1       -0.0814
     17 C         -10.1404  -17.3540   21.9711 C.ar    1  UNL1        0.0080
@<TRIPOS>BOND
     1     1     2    1
     2     2     3    1
     3     4     3    1
     4     4     5    1
     5     5     6    1
     6     6     7    1
     7     7     8    1
     8     8    10    1
     9    10    11   ar
    10    11    12   ar
    11    12    13   ar
    12    13    14    1
    13    13    15   ar
    14    15    16    1
    15    15    17   ar
    16     8     9    1
    17     9     2    1
    18     8     4    1
    19    17    10   ar
@<TRIPOS>MOLECULE
*****
 17 19 0 0 0
SMALL
GASTEIGER

@<TRIPOS>ATOM
      1 C          -5.2161  -15.3603   24.3572 C.3     1  UNL1        0.0896
      2 N          -5.5819  -16.5762   23.5588 N.3     1  UNL1       -0.2712
      3 C          -4.6225  -17.5802   22.9915 C.3     1  UNL1        0.0725
      4 C          -5.4191  -18.6261   22.2695 C.3     1  UNL1        0.0210
      5 C          -5.3185  -19.8930   21.4727 C.3     1  UNL1        0.0018
      6 C          -6.7081  -20.3185   21.1013 C.3     1  UNL1        0.0004
      7 C          -7.6675  -19.3147   21.6685 C.3     1  UNL1        0.0054
      8 C          -6.8709  -18.2687   22.3905 C.3     1  UNL1        0.0349
      9 C          -6.9716  -17.0018   23.1873 C.3     1  UNL1        0.0762
     10 C          -8.3227  -17.9112   22.5115 C.ar    1  UNL1       -0.0206
     11 C          -8.8936  -16.8012   21.6798 C.ar    1  UNL1       -0.0033
     12 C         -10.3454  -16.4438   21.8008 C.ar    1  UNL1        0.0119
     13 C         -11.2261  -17.1964   22.7535 C.ar    1  UNL1        0.0682
     14 CL        -12.6779  -16.8390   22.8745 Cl      1  UNL1       -0.0814
     15 C         -10.6552  -18.3065   23.5853 C.ar    1  UNL1        0.0679
     16 CL        -11.5360  -19.0591   24.5380 Cl      1  UNL1       -0.0814
     17 C          -9.2034  -18.6639   23.4642 C.ar    1  UNL1        0.0080
@<TRIPOS>BOND
     1     1     2    1
     2     2     3    1
     3     4     3    1
     4     4     5    1
     5     5     6    1
     6     6     7    1
     7     7     8    1
     8     8    10    1
     9    10    11   ar
    10    11    12   ar
    11    12    13   ar
    12    13    14    1
    13    13    15   ar
    14    15    16    1
    15    15    17   ar
    16     8     9    1
    17     9     2    1
    18     8     4    1
    19    17    10   ar
