@<TRIPOS>MOLECULE
*****
 15 16 0 0 0
SMALL
GASTEIGER

@<TRIPOS>ATOM
      1 C          -7.4267  -19.0165   21.8178 C.1     1  UNL1       -0.0405
      2 C          -8.8531  -18.7583   22.2031 C.1     1  UNL1       -0.0583
      3 C          -2.3697  -17.9165   22.2837 C.3     1  UNL1        0.0521
      4 C          -3.4717  -18.7247   21.6654 C.ar    1  UNL1        0.0600
      5 C          -3.1473  -19.7912   20.6618 C.ar    1  UNL1        0.0148
      6 C          -4.2493  -20.5994   20.0435 C.ar    1  UNL1        0.0034
      7 C          -5.6757  -20.3412   20.4288 C.ar    1  UNL1        0.0276
      8 C          -6.0002  -19.2748   21.4324 C.ar    1  UNL1        0.1224
      9 N          -4.8982  -18.4665   22.0507 N.ar    1  UNL1       -0.2414
     10 C         -10.2797  -18.5000   22.5885 C.ar    1  UNL1        0.0420
     11 C         -10.7559  -18.8364   23.9705 C.ar    1  UNL1        0.0082
     12 C         -12.1823  -18.5781   24.3558 C.ar    1  UNL1        0.0006
     13 C         -13.1325  -17.9834   23.3591 C.ar    1  UNL1        0.0000
     14 C         -12.6563  -17.6471   21.9771 C.ar    1  UNL1        0.0006
     15 C         -11.2299  -17.9053   21.5918 C.ar    1  UNL1        0.0082
@<TRIPOS>BOND
     1     3     4    1
     2     4     5   ar
     3     5     6   ar
     4     6     7   ar
     5     7     8   ar
     6     8     1    1
     7     1     2    3
     8     2    10    1
     9    10    11   ar
    10    11    12   ar
    11    12    13   ar
    12    13    14   ar
    13    14    15   ar
    14     8     9   ar
    15     9     4   ar
    16    15    10   ar
@<TRIPOS>MOLECULE
*****
 15 16 0 0 0
SMALL
GASTEIGER

@<TRIPOS>ATOM
      1 C          -8.2098  -18.8314   22.4197 C.1     1  UNL1       -0.0405
      2 C          -6.7764  -19.0834   22.0568 C.1     1  UNL1       -0.0583
      3 C         -12.8369  -16.7501   21.2977 C.3     1  UNL1        0.0521
      4 C         -11.9568  -17.5388   22.2215 C.ar    1  UNL1        0.0600
      5 C         -12.5102  -18.0756   23.5082 C.ar    1  UNL1        0.0148
      6 C         -11.6302  -18.8643   24.4320 C.ar    1  UNL1        0.0034
      7 C         -10.1968  -19.1162   24.0692 C.ar    1  UNL1        0.0276
      8 C          -9.6433  -18.5795   22.7826 C.ar    1  UNL1        0.1224
      9 N         -10.5234  -17.7908   21.8587 N.ar    1  UNL1       -0.2414
     10 C          -5.3429  -19.3353   21.6939 C.ar    1  UNL1        0.0420
     11 C          -5.0086  -20.1476   20.4780 C.ar    1  UNL1        0.0082
     12 C          -3.5751  -20.3995   20.1152 C.ar    1  UNL1        0.0006
     13 C          -2.4759  -19.8391   20.9683 C.ar    1  UNL1        0.0000
     14 C          -2.8102  -19.0269   22.1842 C.ar    1  UNL1        0.0006
     15 C          -4.2436  -18.7750   22.5470 C.ar    1  UNL1        0.0082
@<TRIPOS>BOND
     1     3     4    1
     2     4     5   ar
     3     5     6   ar
     4     6     7   ar
     5     7     8   ar
     6     8     1    1
     7     1     2    3
     8     2    10    1
     9    10    11   ar
    10    11    12   ar
    11    12    13   ar
    12    13    14   ar
    13    14    15   ar
    14     8     9   ar
    15     9     4   ar
    16    15    10   ar
@<TRIPOS>MOLECULE
*****
 15 16 0 0 0
SMALL
GASTEIGER

@<TRIPOS>ATOM
      1 C          -8.4757  -18.5952   21.6981 C.1     1  UNL1       -0.0405
      2 C          -7.0144  -18.9075   21.5680 C.1     1  UNL1       -0.0583
      3 C         -12.8356  -18.5606   24.5248 C.3     1  UNL1        0.0521
      4 C         -12.1170  -18.2656   23.2416 C.ar    1  UNL1        0.0600
      5 C         -12.8597  -17.6584   22.0886 C.ar    1  UNL1        0.0148
      6 C         -12.1412  -17.3635   20.8053 C.ar    1  UNL1        0.0034
      7 C         -10.6798  -17.6757   20.6752 C.ar    1  UNL1        0.0276
      8 C          -9.9371  -18.2829   21.8282 C.ar    1  UNL1        0.1224
      9 N         -10.6557  -18.5779   23.1115 N.ar    1  UNL1       -0.2414
     10 C          -5.5530  -19.2198   21.4379 C.ar    1  UNL1        0.0420
     11 C          -5.0720  -20.1102   20.3308 C.ar    1  UNL1        0.0082
     12 C          -3.6106  -20.4225   20.2008 C.ar    1  UNL1        0.0006
     13 C          -2.6303  -19.8442   21.1777 C.ar    1  UNL1        0.0000
     14 C          -3.1113  -18.9537   22.2848 C.ar    1  UNL1        0.0006
     15 C          -4.5726  -18.6415   22.4149 C.ar    1  UNL1        0.0082
@<TRIPOS>BOND
     1     3     4    1
     2     4     5   ar
     3     5     6   ar
     4     6     7   ar
     5     7     8   ar
     6     8     1    1
     7     1     2    3
     8     2    10    1
     9    10    11   ar
    10    11    12   ar
    11    12    13   ar
    12    13    14   ar
    13    14    15   ar
    14     8     9   ar
    15     9     4   ar
    16    15    10   ar
@<TRIPOS>MOLECULE
*****
 15 16 0 0 0
SMALL
GASTEIGER

@<TRIPOS>ATOM
      1 C          -6.6327  -19.1948   20.7242 C.1     1  UNL1       -0.0405
      2 C          -5.1687  -18.9749   20.4828 C.1     1  UNL1       -0.0583
      3 C         -10.5766  -20.0351   24.0014 C.3     1  UNL1        0.0521
      4 C         -10.0686  -19.8350   22.6042 C.ar    1  UNL1        0.0600
      5 C         -11.0247  -19.8549   21.4486 C.ar    1  UNL1        0.0148
      6 C         -10.5167  -19.6548   20.0515 C.ar    1  UNL1        0.0034
      7 C          -9.0528  -19.4348   19.8100 C.ar    1  UNL1        0.0276
      8 C          -8.0967  -19.4149   20.9656 C.ar    1  UNL1        0.1224
      9 N          -8.6047  -19.6150   22.3628 N.ar    1  UNL1       -0.2414
     10 C          -3.7046  -18.7549   20.2414 C.ar    1  UNL1        0.0420
     11 C          -2.7001  -19.2100   21.2581 C.ar    1  UNL1        0.0082
     12 C          -1.2362  -18.9900   21.0166 C.ar    1  UNL1        0.0006
     13 C          -0.7767  -18.3148   19.7584 C.ar    1  UNL1        0.0000
     14 C          -1.7812  -17.8597   18.7417 C.ar    1  UNL1        0.0006
     15 C          -3.2452  -18.0797   18.9832 C.ar    1  UNL1        0.0082
@<TRIPOS>BOND
     1     3     4    1
     2     4     5   ar
     3     5     6   ar
     4     6     7   ar
     5     7     8   ar
     6     8     1    1
     7     1     2    3
     8     2    10    1
     9    10    11   ar
    10    11    12   ar
    11    12    13   ar
    12    13    14   ar
    13    14    15   ar
    14     8     9   ar
    15     9     4   ar
    16    15    10   ar
@<TRIPOS>MOLECULE
*****
 15 16 0 0 0
SMALL
GASTEIGER

@<TRIPOS>ATOM
      1 C          -7.2075  -18.2002   22.4651 C.1     1  UNL1       -0.0405
      2 C          -8.6857  -18.1303   22.7100 C.1     1  UNL1       -0.0583
      3 C          -3.2100  -19.4367   19.3843 C.3     1  UNL1        0.0521
      4 C          -3.7305  -18.8884   20.6798 C.ar    1  UNL1        0.0600
      5 C          -2.7728  -18.4100   21.7305 C.ar    1  UNL1        0.0148
      6 C          -3.2933  -17.8617   23.0260 C.ar    1  UNL1        0.0034
      7 C          -4.7715  -17.7917   23.2709 C.ar    1  UNL1        0.0276
      8 C          -5.7292  -18.2701   22.2203 C.ar    1  UNL1        0.1224
      9 N          -5.2087  -18.8184   20.9247 N.ar    1  UNL1       -0.2414
     10 C         -10.1640  -18.0604   22.9549 C.ar    1  UNL1        0.0420
     11 C         -11.0543  -17.3572   21.9737 C.ar    1  UNL1        0.0082
     12 C         -12.5325  -17.2874   22.2186 C.ar    1  UNL1        0.0006
     13 C         -13.1203  -17.9207   23.4447 C.ar    1  UNL1        0.0000
     14 C         -12.2300  -18.6239   24.4259 C.ar    1  UNL1        0.0006
     15 C         -10.7518  -18.6937   24.1810 C.ar    1  UNL1        0.0082
@<TRIPOS>BOND
     1     3     4    1
     2     4     5   ar
     3     5     6   ar
     4     6     7   ar
     5     7     8   ar
     6     8     1    1
     7     1     2    3
     8     2    10    1
     9    10    11   ar
    10    11    12   ar
    11    12    13   ar
    12    13    14   ar
    13    14    15   ar
    14     8     9   ar
    15     9     4   ar
    16    15    10   ar
@<TRIPOS>MOLECULE
*****
 15 16 0 0 0
SMALL
GASTEIGER

@<TRIPOS>ATOM
      1 C          -5.8669  -19.0145   21.6366 C.1     1  UNL1       -0.0405
      2 C          -7.2977  -19.0601   22.0847 C.1     1  UNL1       -0.0583
      3 C          -2.2743  -17.5100   18.1973 C.3     1  UNL1        0.0521
      4 C          -2.6398  -18.2167   19.4689 C.ar    1  UNL1        0.0600
      5 C          -1.5746  -18.8778   20.2924 C.ar    1  UNL1        0.0148
      6 C          -1.9401  -19.5845   21.5640 C.ar    1  UNL1        0.0034
      7 C          -3.3709  -19.6300   22.0121 C.ar    1  UNL1        0.0276
      8 C          -4.4361  -18.9690   21.1886 C.ar    1  UNL1        0.1224
      9 N          -4.0706  -18.2623   19.9170 N.ar    1  UNL1       -0.2414
     10 C          -8.7285  -19.1057   22.5328 C.ar    1  UNL1        0.0420
     11 C          -9.1589  -20.1022   23.5680 C.ar    1  UNL1        0.0082
     12 C         -10.5897  -20.1477   24.0160 C.ar    1  UNL1        0.0006
     13 C         -11.5901  -19.1967   23.4289 C.ar    1  UNL1        0.0000
     14 C         -11.1597  -18.2002   22.3937 C.ar    1  UNL1        0.0006
     15 C          -9.7289  -18.1546   21.9457 C.ar    1  UNL1        0.0082
@<TRIPOS>BOND
     1     3     4    1
     2     4     5   ar
     3     5     6   ar
     4     6     7   ar
     5     7     8   ar
     6     8     1    1
     7     1     2    3
     8     2    10    1
     9    10    11   ar
    10    11    12   ar
    11    12    13   ar
    12    13    14   ar
    13    14    15   ar
    14     8     9   ar
    15     9     4   ar
    16    15    10   ar
@<TRIPOS>MOLECULE
*****
 15 16 0 0 0
SMALL
GASTEIGER

@<TRIPOS>ATOM
      1 C          -7.7470  -18.5274   21.7191 C.1     1  UNL1       -0.0405
      2 C          -6.2524  -18.6222   21.8025 C.1     1  UNL1       -0.0583
      3 C         -12.1451  -15.9022   22.5939 C.3     1  UNL1        0.0521
      4 C         -11.4408  -17.1198   22.0731 C.ar    1  UNL1        0.0600
      5 C         -12.2310  -18.2425   21.4690 C.ar    1  UNL1        0.0148
      6 C         -11.5267  -19.4601   20.9482 C.ar    1  UNL1        0.0034
      7 C         -10.0320  -19.5551   21.0316 C.ar    1  UNL1        0.0276
      8 C          -9.2418  -18.4324   21.6357 C.ar    1  UNL1        0.1224
      9 N          -9.9461  -17.2148   22.1565 N.ar    1  UNL1       -0.2414
     10 C          -4.7577  -18.7172   21.8859 C.ar    1  UNL1        0.0420
     11 C          -4.0035  -17.8481   22.8481 C.ar    1  UNL1        0.0082
     12 C          -2.5089  -17.9430   22.9314 C.ar    1  UNL1        0.0006
     13 C          -1.7684  -18.9071   22.0527 C.ar    1  UNL1        0.0000
     14 C          -2.5226  -19.7762   21.0905 C.ar    1  UNL1        0.0006
     15 C          -4.0172  -19.6813   21.0072 C.ar    1  UNL1        0.0082
@<TRIPOS>BOND
     1     3     4    1
     2     4     5   ar
     3     5     6   ar
     4     6     7   ar
     5     7     8   ar
     6     8     1    1
     7     1     2    3
     8     2    10    1
     9    10    11   ar
    10    11    12   ar
    11    12    13   ar
    12    13    14   ar
    13    14    15   ar
    14     8     9   ar
    15     9     4   ar
    16    15    10   ar
@<TRIPOS>MOLECULE
*****
 15 16 0 0 0
SMALL
GASTEIGER

@<TRIPOS>ATOM
      1 C         -13.7176   -6.1933   19.1450 C.1     1  UNL1       -0.0405
      2 C         -15.0088   -6.9402   19.3022 C.1     1  UNL1       -0.0583
      3 C         -11.1471   -1.7052   18.6452 C.3     1  UNL1        0.0521
      4 C         -11.1410   -3.2024   18.7380 C.ar    1  UNL1        0.0600
      5 C          -9.8437   -3.9525   18.6738 C.ar    1  UNL1        0.0148
      6 C          -9.8377   -5.4497   18.7666 C.ar    1  UNL1        0.0034
      7 C         -11.1289   -6.1966   18.9237 C.ar    1  UNL1        0.0276
      8 C         -12.4262   -5.4464   18.9879 C.ar    1  UNL1        0.1224
      9 N         -12.4323   -3.9493   18.8951 N.ar    1  UNL1       -0.2414
     10 C         -16.3002   -7.6871   19.4593 C.ar    1  UNL1        0.0420
     11 C         -16.3195   -9.1830   19.3498 C.ar    1  UNL1        0.0082
     12 C         -17.6108   -9.9298   19.5069 C.ar    1  UNL1        0.0006
     13 C         -18.8828   -9.1808   19.7734 C.ar    1  UNL1        0.0000
     14 C         -18.8635   -7.6850   19.8829 C.ar    1  UNL1        0.0006
     15 C         -17.5722   -6.9381   19.7258 C.ar    1  UNL1        0.0082
@<TRIPOS>BOND
     1     3     4    1
     2     4     5   ar
     3     5     6   ar
     4     6     7   ar
     5     7     8   ar
     6     8     1    1
     7     1     2    3
     8     2    10    1
     9    10    11   ar
    10    11    12   ar
    11    12    13   ar
    12    13    14   ar
    13    14    15   ar
    14     8     9   ar
    15     9     4   ar
    16    15    10   ar
@<TRIPOS>MOLECULE
*****
 15 16 0 0 0
SMALL
GASTEIGER

@<TRIPOS>ATOM
      1 C          -8.9022  -17.2567   22.6657 C.1     1  UNL1       -0.0405
      2 C          -8.2866  -16.6354   23.8842 C.1     1  UNL1       -0.0583
      3 C          -8.5712  -20.4782   18.6021 C.3     1  UNL1        0.0521
      4 C          -9.3522  -19.4889   19.4153 C.ar    1  UNL1        0.0600
      5 C         -10.7487  -19.1210   19.0099 C.ar    1  UNL1        0.0148
      6 C         -11.5297  -18.1316   19.8231 C.ar    1  UNL1        0.0034
      7 C         -10.9142  -17.5102   21.0416 C.ar    1  UNL1        0.0276
      8 C          -9.5178  -17.8782   21.4470 C.ar    1  UNL1        0.1224
      9 N          -8.7368  -18.8675   20.6339 N.ar    1  UNL1       -0.2414
     10 C          -7.6711  -16.0140   25.1029 C.ar    1  UNL1        0.0420
     11 C          -6.2297  -15.5991   25.0865 C.ar    1  UNL1        0.0082
     12 C          -5.6142  -14.9777   26.3051 C.ar    1  UNL1        0.0006
     13 C          -6.4401  -14.7712   27.5401 C.ar    1  UNL1        0.0000
     14 C          -7.8815  -15.1861   27.5565 C.ar    1  UNL1        0.0006
     15 C          -8.4969  -15.8075   26.3379 C.ar    1  UNL1        0.0082
@<TRIPOS>BOND
     1     3     4    1
     2     4     5   ar
     3     5     6   ar
     4     6     7   ar
     5     7     8   ar
     6     8     1    1
     7     1     2    3
     8     2    10    1
     9    10    11   ar
    10    11    12   ar
    11    12    13   ar
    12    13    14   ar
    13    14    15   ar
    14     8     9   ar
    15     9     4   ar
    16    15    10   ar
