@<TRIPOS>MOLECULE
*****
 24 26 0 0 0
SMALL
GASTEIGER

@<TRIPOS>ATOM
      1 N          -7.4824  -17.6279   22.9340 N.am    1  UNL1       -0.2494
      2 C          -5.9988  -17.4070   22.9225 C.2     1  UNL1        0.2509
      3 O          -5.2627  -16.3257   23.6565 O.2     1  UNL1       -0.2698
      4 C          -5.3805  -18.4573   22.0480 C.ar    1  UNL1        0.0538
      5 C          -3.9569  -18.7339   21.6651 C.ar    1  UNL1        0.0043
      6 C          -3.6347  -19.8804   20.7532 C.ar    1  UNL1        0.0001
      7 C          -4.7362  -20.7505   20.2243 C.ar    1  UNL1       -0.0002
      8 C          -6.1599  -20.4739   20.6073 C.ar    1  UNL1        0.0001
      9 C          -6.4820  -19.3274   21.5191 C.ar    1  UNL1        0.0281
     10 C          -7.7810  -18.8147   22.0667 C.3     1  UNL1        0.1915
     11 O          -8.3773  -19.9437   21.2795 O.3     1  UNL1       -0.3637
     12 H          -7.6713  -20.4290   20.8246 H       1  UNL1        0.2127
     13 C          -9.2048  -18.5381   22.4497 C.ar    1  UNL1        0.0238
     14 C          -9.7968  -19.1957   23.6610 C.ar    1  UNL1        0.0008
     15 C         -11.2205  -18.9191   24.0440 C.ar    1  UNL1        0.0112
     16 C         -12.0520  -17.9850   23.2158 C.ar    1  UNL1        0.0577
     17 CL        -13.4757  -17.7084   23.5988 Cl      1  UNL1       -0.0822
     18 C         -11.4599  -17.3275   22.0046 C.ar    1  UNL1        0.0112
     19 C         -10.0363  -17.6041   21.6215 C.ar    1  UNL1        0.0008
     20 C          -8.4904  -16.8062   23.6816 C.3     1  UNL1        0.1132
     21 N          -7.6932  -14.3731   24.1224 N.3     1  UNL1       -0.3197
     22 C          -8.0324  -15.7418   24.6340 C.3     1  UNL1        0.0870
     23 H          -7.4029  -13.7814   24.9009 H       1  UNL1        0.1189
     24 H          -8.5130  -13.9654   23.6728 H       1  UNL1        0.1189
@<TRIPOS>BOND
     1    21    22    1
     2    22    20    1
     3    20     1    1
     4     1     2   am
     5     2     3    2
     6     2     4    1
     7     4     5   ar
     8     5     6   ar
     9     6     7   ar
    10     7     8   ar
    11     8     9   ar
    12     9    10    1
    13    10    11    1
    14    10    13    1
    15    13    14   ar
    16    14    15   ar
    17    15    16   ar
    18    16    17    1
    19    16    18   ar
    20    18    19   ar
    21    10     1    1
    22    19    13   ar
    23     9     4   ar
    24    21    23    1
    25    21    24    1
    26    11    12    1
@<TRIPOS>MOLECULE
*****
 24 26 0 0 0
SMALL
GASTEIGER

@<TRIPOS>ATOM
      1 N          -6.5281  -17.6929   22.8901 N.am    1  UNL1       -0.2494
      2 C          -5.2181  -17.1075   23.3273 C.2     1  UNL1        0.2509
      3 O          -5.0392  -15.9284   24.2371 O.2     1  UNL1       -0.2698
      4 C          -4.1185  -17.9081   22.6951 C.ar    1  UNL1        0.0538
      5 C          -2.6246  -17.7931   22.7664 C.ar    1  UNL1        0.0043
      6 C          -1.7612  -18.7583   22.0097 C.ar    1  UNL1        0.0001
      7 C          -2.3915  -19.8386   21.1817 C.ar    1  UNL1       -0.0002
      8 C          -3.8854  -19.9537   21.1104 C.ar    1  UNL1        0.0001
      9 C          -4.7488  -18.9884   21.8671 C.ar    1  UNL1        0.0281
     10 C          -6.2381  -18.8554   21.9876 C.3     1  UNL1        0.1915
     11 O          -6.2604  -20.0419   21.0702 O.3     1  UNL1       -0.3637
     12 H          -5.3508  -20.3032   20.8574 H       1  UNL1        0.2127
     13 C          -7.7320  -18.9704   21.9163 C.ar    1  UNL1        0.0238
     14 C          -8.4724  -19.7723   22.9453 C.ar    1  UNL1        0.0008
     15 C          -9.9663  -19.8873   22.8741 C.ar    1  UNL1        0.0112
     16 C         -10.7197  -19.2005   21.7739 C.ar    1  UNL1        0.0577
     17 CL        -12.2137  -19.3155   21.7026 Cl      1  UNL1       -0.0822
     18 C          -9.9793  -18.3986   20.7449 C.ar    1  UNL1        0.0112
     19 C          -8.4855  -18.2836   20.8161 C.ar    1  UNL1        0.0008
     20 C          -7.8892  -17.2020   23.2858 C.3     1  UNL1        0.1132
     21 N          -7.6122  -14.7721   22.4090 N.3     1  UNL1       -0.3197
     22 C          -8.1422  -15.7310   23.4336 C.3     1  UNL1        0.0870
     23 H          -7.8756  -13.8207   22.6655 H       1  UNL1        0.1189
     24 H          -8.0051  -14.9992   21.4955 H       1  UNL1        0.1189
@<TRIPOS>BOND
     1    21    22    1
     2    22    20    1
     3    20     1    1
     4     1     2   am
     5     2     3    2
     6     2     4    1
     7     4     5   ar
     8     5     6   ar
     9     6     7   ar
    10     7     8   ar
    11     8     9   ar
    12     9    10    1
    13    10    11    1
    14    10    13    1
    15    13    14   ar
    16    14    15   ar
    17    15    16   ar
    18    16    17    1
    19    16    18   ar
    20    18    19   ar
    21    10     1    1
    22    19    13   ar
    23     9     4   ar
    24    21    23    1
    25    21    24    1
    26    11    12    1
@<TRIPOS>MOLECULE
*****
 24 26 0 0 0
SMALL
GASTEIGER

@<TRIPOS>ATOM
      1 N          -7.4205  -19.1880   21.3990 N.am    1  UNL1       -0.2494
      2 C          -6.2360  -19.9308   20.8557 C.2     1  UNL1        0.2509
      3 O          -6.2789  -21.0496   19.8575 O.2     1  UNL1       -0.2698
      4 C          -5.0010  -19.3583   21.4858 C.ar    1  UNL1        0.0538
      5 C          -3.5473  -19.6940   21.3308 C.ar    1  UNL1        0.0043
      6 C          -2.5148  -18.9330   22.1085 C.ar    1  UNL1        0.0001
      7 C          -2.9360  -17.8364   23.0412 C.ar    1  UNL1       -0.0002
      8 C          -4.3897  -17.5007   23.1963 C.ar    1  UNL1        0.0001
      9 C          -5.4222  -18.2617   22.4186 C.ar    1  UNL1        0.0281
     10 C          -6.9175  -18.1564   22.3649 C.3     1  UNL1        0.1915
     11 O          -6.7185  -17.0548   23.3632 O.3     1  UNL1       -0.3637
     12 H          -5.7716  -16.9524   23.5473 H       1  UNL1        0.2127
     13 C          -8.3713  -17.8208   22.5199 C.ar    1  UNL1        0.0238
     14 C          -9.2367  -18.6389   23.4320 C.ar    1  UNL1        0.0008
     15 C         -10.6904  -18.3033   23.5871 C.ar    1  UNL1        0.0112
     16 C         -11.2787  -17.1497   22.8301 C.ar    1  UNL1        0.0577
     17 CL        -12.7325  -16.8141   22.9851 Cl      1  UNL1       -0.0822
     18 C         -10.4133  -16.3317   21.9180 C.ar    1  UNL1        0.0112
     19 C          -8.9596  -16.6672   21.7629 C.ar    1  UNL1        0.0008
     20 C          -8.8559  -19.4335   21.0395 C.3     1  UNL1        0.1132
     21 N          -8.9898  -20.4686   18.6603 N.3     1  UNL1       -0.3197
     22 C          -9.2960  -19.3471   19.6082 C.3     1  UNL1        0.0870
     23 H          -9.3595  -20.2436   17.7367 H       1  UNL1        0.1189
     24 H          -9.4220  -21.3280   18.9995 H       1  UNL1        0.1189
@<TRIPOS>BOND
     1    21    22    1
     2    22    20    1
     3    20     1    1
     4     1     2   am
     5     2     3    2
     6     2     4    1
     7     4     5   ar
     8     5     6   ar
     9     6     7   ar
    10     7     8   ar
    11     8     9   ar
    12     9    10    1
    13    10    11    1
    14    10    13    1
    15    13    14   ar
    16    14    15   ar
    17    15    16   ar
    18    16    17    1
    19    16    18   ar
    20    18    19   ar
    21    10     1    1
    22    19    13   ar
    23     9     4   ar
    24    21    23    1
    25    21    24    1
    26    11    12    1
@<TRIPOS>MOLECULE
*****
 24 26 0 0 0
SMALL
GASTEIGER

@<TRIPOS>ATOM
      1 N         -14.7113   -5.6577   19.0696 N.am    1  UNL1       -0.2494
      2 C         -16.1232   -5.6558   19.5761 C.2     1  UNL1        0.2509
      3 O         -16.8889   -4.4555   20.0482 O.2     1  UNL1       -0.2698
      4 C         -16.6350   -7.0649   19.5275 C.ar    1  UNL1        0.0538
      5 C         -17.9571   -7.6661   19.9025 C.ar    1  UNL1        0.0043
      6 C         -18.1836   -9.1400   19.7410 C.ar    1  UNL1        0.0001
      7 C         -17.0879  -10.0128   19.2045 C.ar    1  UNL1       -0.0002
      8 C         -15.7658   -9.4117   18.8295 C.ar    1  UNL1        0.0001
      9 C         -15.5394   -7.9378   18.9910 C.ar    1  UNL1        0.0281
     10 C         -14.3505   -7.0680   18.7080 C.3     1  UNL1        0.1915
     11 O         -13.7133   -8.3527   18.2680 O.3     1  UNL1       -0.3637
     12 H         -14.3456   -9.0804   18.3749 H       1  UNL1        0.2127
     13 C         -13.0283   -6.4668   18.3330 C.ar    1  UNL1        0.0238
     14 C         -12.7969   -5.9770   16.9342 C.ar    1  UNL1        0.0008
     15 C         -11.4748   -5.3759   16.5592 C.ar    1  UNL1        0.0112
     16 C         -10.3842   -5.2644   17.5830 C.ar    1  UNL1        0.0577
     17 CL         -9.0620   -4.6632   17.2080 Cl      1  UNL1       -0.0822
     18 C         -10.6156   -5.7542   18.9817 C.ar    1  UNL1        0.0112
     19 C         -11.9377   -6.3554   19.3568 C.ar    1  UNL1        0.0008
     20 C         -13.8172   -4.4596   18.9463 C.3     1  UNL1        0.1132
     21 N         -14.0887   -3.5416   21.3616 N.3     1  UNL1       -0.3197
     22 C         -13.9818   -3.3011   19.8848 C.3     1  UNL1        0.0870
     23 H         -14.1953   -2.6495   21.8445 H       1  UNL1        0.1189
     24 H         -13.2442   -4.0083   21.6921 H       1  UNL1        0.1189
@<TRIPOS>BOND
     1    21    22    1
     2    22    20    1
     3    20     1    1
     4     1     2   am
     5     2     3    2
     6     2     4    1
     7     4     5   ar
     8     5     6   ar
     9     6     7   ar
    10     7     8   ar
    11     8     9   ar
    12     9    10    1
    13    10    11    1
    14    10    13    1
    15    13    14   ar
    16    14    15   ar
    17    15    16   ar
    18    16    17    1
    19    16    18   ar
    20    18    19   ar
    21    10     1    1
    22    19    13   ar
    23     9     4   ar
    24    21    23    1
    25    21    24    1
    26    11    12    1
@<TRIPOS>MOLECULE
*****
 24 26 0 0 0
SMALL
GASTEIGER

@<TRIPOS>ATOM
      1 N          -7.1965  -17.6254   22.6245 N.am    1  UNL1       -0.2494
      2 C          -8.3553  -16.9166   23.2606 C.2     1  UNL1        0.2509
      3 O          -8.2664  -15.7784   24.2335 O.2     1  UNL1       -0.2698
      4 C          -9.6188  -17.5459   22.7530 C.ar    1  UNL1        0.0538
      5 C         -11.0647  -17.2611   23.0330 C.ar    1  UNL1        0.0043
      6 C         -12.1325  -18.0741   22.3631 C.ar    1  UNL1        0.0001
      7 C         -11.7545  -19.1718   21.4133 C.ar    1  UNL1       -0.0002
      8 C         -10.3087  -19.4566   21.1334 C.ar    1  UNL1        0.0001
      9 C          -9.2408  -18.6436   21.8032 C.ar    1  UNL1        0.0281
     10 C          -7.7437  -18.6928   21.7238 C.3     1  UNL1        0.1915
     11 O          -7.9887  -19.8196   20.7646 O.3     1  UNL1       -0.3637
     12 H          -8.9436  -19.9602   20.6680 H       1  UNL1        0.2127
     13 C          -6.2978  -18.9775   21.4439 C.ar    1  UNL1        0.0238
     14 C          -5.4402  -19.6110   22.4990 C.ar    1  UNL1        0.0008
     15 C          -3.9944  -19.8957   22.2191 C.ar    1  UNL1        0.0112
     16 C          -3.4061  -19.5470   20.8841 C.ar    1  UNL1        0.0577
     17 CL         -1.9602  -19.8317   20.6042 Cl      1  UNL1       -0.0822
     18 C          -4.2637  -18.9134   19.8290 C.ar    1  UNL1        0.0112
     19 C          -5.7095  -18.6287   20.1089 C.ar    1  UNL1        0.0008
     20 C          -5.7451  -17.3205   22.8497 C.3     1  UNL1        0.1132
     21 N          -5.3720  -14.8041   23.3773 N.3     1  UNL1       -0.3197
     22 C          -5.3461  -16.2399   23.8104 C.3     1  UNL1        0.0870
     23 H          -5.0728  -14.2101   24.1507 H       1  UNL1        0.1189
     24 H          -6.3201  -14.5496   23.1002 H       1  UNL1        0.1189
@<TRIPOS>BOND
     1    21    22    1
     2    22    20    1
     3    20     1    1
     4     1     2   am
     5     2     3    2
     6     2     4    1
     7     4     5   ar
     8     5     6   ar
     9     6     7   ar
    10     7     8   ar
    11     8     9   ar
    12     9    10    1
    13    10    11    1
    14    10    13    1
    15    13    14   ar
    16    14    15   ar
    17    15    16   ar
    18    16    17    1
    19    16    18   ar
    20    18    19   ar
    21    10     1    1
    22    19    13   ar
    23     9     4   ar
    24    21    23    1
    25    21    24    1
    26    11    12    1
@<TRIPOS>MOLECULE
*****
 24 26 0 0 0
SMALL
GASTEIGER

@<TRIPOS>ATOM
      1 N         -14.5164   -5.5375   18.5658 N.am    1  UNL1       -0.2494
      2 C         -13.5560   -4.3893   18.6610 C.2     1  UNL1        0.2509
      3 O         -13.9175   -2.9336   18.6423 O.2     1  UNL1       -0.2698
      4 C         -12.1706   -4.9522   18.7781 C.ar    1  UNL1        0.0538
      5 C         -10.8276   -4.2958   18.9025 C.ar    1  UNL1        0.0043
      6 C          -9.5889   -5.1355   19.0042 C.ar    1  UNL1        0.0001
      7 C          -9.6931   -6.6317   18.9814 C.ar    1  UNL1       -0.0002
      8 C         -11.0361   -7.2882   18.8570 C.ar    1  UNL1        0.0001
      9 C         -12.2748   -6.4485   18.7553 C.ar    1  UNL1        0.0281
     10 C         -13.7246   -6.8101   18.6242 C.3     1  UNL1        0.1915
     11 O         -13.2136   -8.2200   18.6565 O.3     1  UNL1       -0.3637
     12 H         -12.2474   -8.2118   18.7418 H       1  UNL1        0.2127
     13 C         -15.0676   -7.4666   18.4997 C.ar    1  UNL1        0.0238
     14 C         -15.6371   -7.7582   17.1430 C.ar    1  UNL1        0.0008
     15 C         -16.9800   -8.4146   17.0185 C.ar    1  UNL1        0.0112
     16 C         -17.7535   -8.7795   18.2508 C.ar    1  UNL1        0.0577
     17 CL        -19.0966   -9.4359   18.1264 Cl      1  UNL1       -0.0822
     18 C         -17.1841   -8.4879   19.6075 C.ar    1  UNL1        0.0112
     19 C         -15.8411   -7.8315   19.7320 C.ar    1  UNL1        0.0008
     20 C         -16.0070   -5.4317   18.4353 C.3     1  UNL1        0.1132
     21 N         -16.3373   -3.8676   20.4833 N.3     1  UNL1       -0.3197
     22 C         -16.7410   -4.3099   19.1080 C.3     1  UNL1        0.0870
     23 H         -16.9387   -3.1006   20.7840 H       1  UNL1        0.1189
     24 H         -15.3671   -3.5532   20.4683 H       1  UNL1        0.1189
@<TRIPOS>BOND
     1    21    22    1
     2    22    20    1
     3    20     1    1
     4     1     2   am
     5     2     3    2
     6     2     4    1
     7     4     5   ar
     8     5     6   ar
     9     6     7   ar
    10     7     8   ar
    11     8     9   ar
    12     9    10    1
    13    10    11    1
    14    10    13    1
    15    13    14   ar
    16    14    15   ar
    17    15    16   ar
    18    16    17    1
    19    16    18   ar
    20    18    19   ar
    21    10     1    1
    22    19    13   ar
    23     9     4   ar
    24    21    23    1
    25    21    24    1
    26    11    12    1
@<TRIPOS>MOLECULE
*****
 24 26 0 0 0
SMALL
GASTEIGER

@<TRIPOS>ATOM
      1 N          -7.1997  -17.8240   22.4741 N.am    1  UNL1       -0.2494
      2 C          -6.6607  -18.5209   21.2601 C.2     1  UNL1        0.2509
      3 O          -5.2122  -18.6742   20.9018 O.2     1  UNL1       -0.2698
      4 C          -7.8245  -19.0377   20.4673 C.ar    1  UNL1        0.0538
      5 C          -7.9010  -19.8032   19.1796 C.ar    1  UNL1        0.0043
      6 C          -9.2358  -20.1912   18.6160 C.ar    1  UNL1        0.0001
      7 C         -10.4941  -19.8136   19.3400 C.ar    1  UNL1       -0.0002
      8 C         -10.4176  -19.0481   20.6276 C.ar    1  UNL1        0.0001
      9 C          -9.0828  -18.6601   21.1912 C.ar    1  UNL1        0.0281
     10 C          -8.6967  -17.9100   22.4315 C.3     1  UNL1        0.1915
     11 O         -10.1776  -17.8360   22.6581 O.3     1  UNL1       -0.3637
     12 H         -10.6386  -18.2846   21.9321 H       1  UNL1        0.2127
     13 C          -8.6201  -17.1444   23.7192 C.ar    1  UNL1        0.0238
     14 C          -8.2342  -15.6949   23.7081 C.ar    1  UNL1        0.0008
     15 C          -8.1576  -14.9293   24.9957 C.ar    1  UNL1        0.0112
     16 C          -8.4670  -15.6132   26.2944 C.ar    1  UNL1        0.0577
     17 CL         -8.3904  -14.8476   27.5821 Cl      1  UNL1       -0.0822
     18 C          -8.8529  -17.0627   26.3055 C.ar    1  UNL1        0.0112
     19 C          -8.9294  -17.8283   25.0179 C.ar    1  UNL1        0.0008
     20 C          -6.3849  -17.1580   23.5430 C.3     1  UNL1        0.1132
     21 N          -3.9789  -16.4843   22.8306 N.3     1  UNL1       -0.3197
     22 C          -4.9025  -17.3789   23.6031 C.3     1  UNL1        0.0870
     23 H          -3.0140  -16.7763   22.9860 H       1  UNL1        0.1189
     24 H          -4.0974  -15.5211   23.1444 H       1  UNL1        0.1189
@<TRIPOS>BOND
     1    21    22    1
     2    22    20    1
     3    20     1    1
     4     1     2   am
     5     2     3    2
     6     2     4    1
     7     4     5   ar
     8     5     6   ar
     9     6     7   ar
    10     7     8   ar
    11     8     9   ar
    12     9    10    1
    13    10    11    1
    14    10    13    1
    15    13    14   ar
    16    14    15   ar
    17    15    16   ar
    18    16    17    1
    19    16    18   ar
    20    18    19   ar
    21    10     1    1
    22    19    13   ar
    23     9     4   ar
    24    21    23    1
    25    21    24    1
    26    11    12    1
@<TRIPOS>MOLECULE
*****
 24 26 0 0 0
SMALL
GASTEIGER

@<TRIPOS>ATOM
      1 N           3.8874   -1.3394   19.8183 N.am    1  UNL1       -0.2494
      2 C           4.9631   -2.3657   19.6191 C.2     1  UNL1        0.2509
      3 O           5.5319   -2.8023   18.3016 O.2     1  UNL1       -0.2698
      4 C           5.3700   -2.8787   20.9686 C.ar    1  UNL1        0.0538
      5 C           6.3846   -3.9000   21.3900 C.ar    1  UNL1        0.0043
      6 C           6.5749   -4.2121   22.8448 C.ar    1  UNL1        0.0001
      7 C           5.7508   -3.5029   23.8781 C.ar    1  UNL1       -0.0002
      8 C           4.7362   -2.4816   23.4567 C.ar    1  UNL1        0.0001
      9 C           4.5459   -2.1695   22.0020 C.ar    1  UNL1        0.0281
     10 C           3.6296   -1.2182   21.2910 C.3     1  UNL1        0.1915
     11 O           3.1596   -0.8834   22.6756 O.3     1  UNL1       -0.3637
     12 H           3.6502   -1.4159   23.3211 H       1  UNL1        0.2127
     13 C           2.6150   -0.1968   20.8696 C.ar    1  UNL1        0.0238
     14 C           1.2153   -0.6224   20.5384 C.ar    1  UNL1        0.0008
     15 C           0.2007    0.3988   20.1170 C.ar    1  UNL1        0.0112
     16 C           0.5859    1.8457   20.0266 C.ar    1  UNL1        0.0577
     17 CL         -0.4287    2.8670   19.6052 Cl      1  UNL1       -0.0822
     18 C           1.9856    2.2713   20.3578 C.ar    1  UNL1        0.0112
     19 C           3.0002    1.2500   20.7792 C.ar    1  UNL1        0.0008
     20 C           3.1917   -0.5696   18.7351 C.3     1  UNL1        0.1132
     21 N           3.7969   -1.2684   16.3071 N.3     1  UNL1       -0.3197
     22 C           3.8973   -0.2916   17.4410 C.3     1  UNL1        0.0870
     23 H           4.3336   -0.9224   15.5117 H       1  UNL1        0.1189
     24 H           2.8193   -1.3760   16.0366 H       1  UNL1        0.1189
@<TRIPOS>BOND
     1    21    22    1
     2    22    20    1
     3    20     1    1
     4     1     2   am
     5     2     3    2
     6     2     4    1
     7     4     5   ar
     8     5     6   ar
     9     6     7   ar
    10     7     8   ar
    11     8     9   ar
    12     9    10    1
    13    10    11    1
    14    10    13    1
    15    13    14   ar
    16    14    15   ar
    17    15    16   ar
    18    16    17    1
    19    16    18   ar
    20    18    19   ar
    21    10     1    1
    22    19    13   ar
    23     9     4   ar
    24    21    23    1
    25    21    24    1
    26    11    12    1
@<TRIPOS>MOLECULE
*****
 24 26 0 0 0
SMALL
GASTEIGER

@<TRIPOS>ATOM
      1 N         -13.8573   -0.9068   18.7700 N.am    1  UNL1       -0.2494
      2 C         -13.8331    0.5816   18.5854 C.2     1  UNL1        0.2509
      3 O         -12.7498    1.3687   17.9093 O.2     1  UNL1       -0.2698
      4 C         -15.0822    1.1448   19.1956 C.ar    1  UNL1        0.0538
      5 C         -15.5975    2.5487   19.3124 C.ar    1  UNL1        0.0043
      6 C         -16.9090    2.8122   19.9908 C.ar    1  UNL1        0.0001
      7 C         -17.7053    1.6718   20.5526 C.ar    1  UNL1       -0.0002
      8 C         -17.1901    0.2680   20.4358 C.ar    1  UNL1        0.0001
      9 C         -15.8785    0.0045   19.7574 C.ar    1  UNL1        0.0281
     10 C         -15.1215   -1.2635   19.4943 C.3     1  UNL1        0.1915
     11 O         -16.2779   -1.9136   20.1942 O.3     1  UNL1       -0.3637
     12 H         -16.9172   -1.2348   20.4614 H       1  UNL1        0.2127
     13 C         -14.6062   -2.6674   19.3775 C.ar    1  UNL1        0.0238
     14 C         -14.8465   -3.4525   18.1222 C.ar    1  UNL1        0.0008
     15 C         -14.3312   -4.8563   18.0054 C.ar    1  UNL1        0.0112
     16 C         -13.5756   -5.4750   19.1439 C.ar    1  UNL1        0.0577
     17 CL        -13.0603   -6.8789   19.0271 Cl      1  UNL1       -0.0822
     18 C         -13.3353   -4.6899   20.3992 C.ar    1  UNL1        0.0112
     19 C         -13.8506   -3.2861   20.5160 C.ar    1  UNL1        0.0008
     20 C         -12.8026   -1.8694   18.3109 C.3     1  UNL1        0.1132
     21 N         -10.4357   -2.7067   18.9794 N.3     1  UNL1       -0.3197
     22 C         -11.3564   -1.5877   18.5920 C.3     1  UNL1        0.0870
     23 H          -9.4972   -2.3376   19.1320 H       1  UNL1        0.1189
     24 H         -10.4108   -3.4006   18.2322 H       1  UNL1        0.1189
@<TRIPOS>BOND
     1    21    22    1
     2    22    20    1
     3    20     1    1
     4     1     2   am
     5     2     3    2
     6     2     4    1
     7     4     5   ar
     8     5     6   ar
     9     6     7   ar
    10     7     8   ar
    11     8     9   ar
    12     9    10    1
    13    10    11    1
    14    10    13    1
    15    13    14   ar
    16    14    15   ar
    17    15    16   ar
    18    16    17    1
    19    16    18   ar
    20    18    19   ar
    21    10     1    1
    22    19    13   ar
    23     9     4   ar
    24    21    23    1
    25    21    24    1
    26    11    12    1
