@<TRIPOS>MOLECULE
*****
 28 31 0 0 0
SMALL
GASTEIGER

@<TRIPOS>ATOM
      1 N          -8.8668  -16.0450   22.9285 N.3     1  UNL1       -0.3206
      2 C          -8.2598  -17.3805   22.6154 C.3     1  UNL1        0.0750
      3 C          -6.8302  -17.4688   22.1701 C.3     1  UNL1        0.1079
      4 N          -6.2233  -18.8043   21.8571 N.pl3   1  UNL1       -0.2906
      5 C          -7.0459  -20.0515   21.9893 C.3     1  UNL1        0.0926
      6 C          -8.4756  -19.9633   22.4345 C.3     1  UNL1        0.0273
      7 C          -9.0825  -18.6277   22.7476 C.3     1  UNL1        0.0422
      8 H          -8.1707  -15.3133   22.7857 H       1  UNL1        0.1189
      9 H          -9.1789  -16.0326   23.8995 H       1  UNL1        0.1189
     10 C          -4.7935  -18.8925   21.4118 C.ar    1  UNL1        0.1529
     11 C          -4.2123  -20.2168   21.0137 C.ar    1  UNL1        0.1349
     12 N          -2.7827  -20.3050   20.5685 N.ar    1  UNL1       -0.2195
     13 C          -1.9342  -19.0690   20.5212 C.ar    1  UNL1        0.1991
     14 N          -0.5046  -19.1572   20.0759 N.ar    1  UNL1       -0.2208
     15 C           0.3439  -17.9212   20.0287 C.ar    1  UNL1        0.1213
     16 C          -0.2373  -16.5968   20.4267 C.ar    1  UNL1        0.1213
     17 N          -1.6669  -16.5086   20.8719 N.ar    1  UNL1       -0.2208
     18 C          -2.5154  -17.7446   20.9192 C.ar    1  UNL1        0.2001
     19 N          -3.9451  -17.6564   21.3645 N.ar    1  UNL1       -0.2074
     20 C         -10.5122  -18.5395   23.1929 C.ar    1  UNL1        0.0087
     21 C         -11.5891  -18.2206   22.1986 C.ar    1  UNL1        0.0300
     22 C         -13.0188  -18.1324   22.6438 C.ar    1  UNL1        0.1672
     23 F         -14.0956  -17.8135   21.6495 F       1  UNL1       -0.2018
     24 C         -13.3715  -18.3631   24.0833 C.ar    1  UNL1        0.1696
     25 F         -14.8013  -18.2749   24.5286 F       1  UNL1       -0.2017
     26 C         -12.2947  -18.6820   25.0776 C.ar    1  UNL1        0.0612
     27 C         -10.8650  -18.7702   24.6324 C.ar    1  UNL1        0.1386
     28 F          -9.7881  -19.0891   25.6267 F       1  UNL1       -0.2044
@<TRIPOS>BOND
     1     2     1    1
     2     2     3    1
     3     3     4    1
     4     4    10    1
     5    10    11   ar
     6    11    12   ar
     7    12    13   ar
     8    13    14   ar
     9    14    15   ar
    10    15    16   ar
    11    16    17   ar
    12    17    18   ar
    13    18    19   ar
    14     4     5    1
    15     5     6    1
    16     6     7    1
    17     7    20    1
    18    20    21   ar
    19    21    22   ar
    20    22    23    1
    21    22    24   ar
    22    24    25    1
    23    24    26   ar
    24    26    27   ar
    25    27    28    1
    26     7     2    1
    27    27    20   ar
    28    19    10   ar
    29    18    13   ar
    30     1     8    1
    31     1     9    1
@<TRIPOS>MOLECULE
*****
 28 31 0 0 0
SMALL
GASTEIGER

@<TRIPOS>ATOM
      1 N          -9.3101  -15.8989   23.8091 N.3     1  UNL1       -0.3206
      2 C          -8.6710  -17.1058   23.1887 C.3     1  UNL1        0.0750
      3 C          -7.1962  -17.1164   22.9151 C.3     1  UNL1        0.1079
      4 N          -6.5571  -18.3233   22.2947 N.pl3   1  UNL1       -0.2906
      5 C          -7.3928  -19.5197   21.9479 C.3     1  UNL1        0.0926
      6 C          -8.8676  -19.5091   22.2215 C.3     1  UNL1        0.0273
      7 C          -9.5067  -18.3022   22.8419 C.3     1  UNL1        0.0422
      8 H          -8.5997  -15.1864   23.9768 H       1  UNL1        0.1189
      9 H          -9.7442  -16.1611   24.6940 H       1  UNL1        0.1189
     10 C          -5.0823  -18.3338   22.0211 C.ar    1  UNL1        0.1529
     11 C          -4.1096  -18.4500   23.1571 C.ar    1  UNL1        0.1349
     12 N          -2.6348  -18.4605   22.8836 N.ar    1  UNL1       -0.2195
     13 C          -2.1326  -18.3548   21.4740 C.ar    1  UNL1        0.1991
     14 N          -0.6579  -18.3654   21.2005 N.ar    1  UNL1       -0.2208
     15 C          -0.1558  -18.2597   19.7910 C.ar    1  UNL1        0.1213
     16 C          -1.1284  -18.1435   18.6551 C.ar    1  UNL1        0.1213
     17 N          -2.6032  -18.1330   18.9286 N.ar    1  UNL1       -0.2208
     18 C          -3.1053  -18.2387   20.3381 C.ar    1  UNL1        0.2001
     19 N          -4.5802  -18.2282   20.6116 N.ar    1  UNL1       -0.2074
     20 C         -10.9815  -18.2917   23.1155 C.ar    1  UNL1        0.0087
     21 C         -11.4901  -18.5790   24.4971 C.ar    1  UNL1        0.0300
     22 C         -12.9648  -18.5685   24.7707 C.ar    1  UNL1        0.1672
     23 F         -13.4734  -18.8559   26.1523 F       1  UNL1       -0.2018
     24 C         -13.9310  -18.2707   23.6627 C.ar    1  UNL1        0.1696
     25 F         -15.4059  -18.2601   23.9363 F       1  UNL1       -0.2017
     26 C         -13.4225  -17.9833   22.2811 C.ar    1  UNL1        0.0612
     27 C         -11.9477  -17.9938   22.0075 C.ar    1  UNL1        0.1386
     28 F         -11.4392  -17.7064   20.6259 F       1  UNL1       -0.2044
@<TRIPOS>BOND
     1     2     1    1
     2     2     3    1
     3     3     4    1
     4     4    10    1
     5    10    11   ar
     6    11    12   ar
     7    12    13   ar
     8    13    14   ar
     9    14    15   ar
    10    15    16   ar
    11    16    17   ar
    12    17    18   ar
    13    18    19   ar
    14     4     5    1
    15     5     6    1
    16     6     7    1
    17     7    20    1
    18    20    21   ar
    19    21    22   ar
    20    22    23    1
    21    22    24   ar
    22    24    25    1
    23    24    26   ar
    24    26    27   ar
    25    27    28    1
    26     7     2    1
    27    27    20   ar
    28    19    10   ar
    29    18    13   ar
    30     1     8    1
    31     1     9    1
@<TRIPOS>MOLECULE
*****
 28 31 0 0 0
SMALL
GASTEIGER

@<TRIPOS>ATOM
      1 N          -4.9183  -17.1849   23.0508 N.3     1  UNL1       -0.3206
      2 C          -5.9281  -17.8771   22.1841 C.3     1  UNL1        0.0750
      3 C          -7.3885  -17.7848   22.5139 C.3     1  UNL1        0.1079
      4 N          -8.3983  -18.4770   21.6472 N.pl3   1  UNL1       -0.2906
      5 C          -7.9478  -19.2614   20.4507 C.3     1  UNL1        0.0926
      6 C          -6.4874  -19.3537   20.1209 C.3     1  UNL1        0.0273
      7 C          -5.4776  -18.6616   20.9877 C.3     1  UNL1        0.0422
      8 H          -5.3968  -16.7035   23.8122 H       1  UNL1        0.1189
      9 H          -4.3991  -16.5070   22.4930 H       1  UNL1        0.1189
     10 C          -9.8587  -18.3847   21.9770 C.ar    1  UNL1        0.1529
     11 C         -10.8537  -18.0795   20.8968 C.ar    1  UNL1        0.1349
     12 N         -12.3141  -17.9872   21.2266 N.ar    1  UNL1       -0.2195
     13 C         -12.7795  -18.2000   22.6366 C.ar    1  UNL1        0.1991
     14 N         -14.2399  -18.1077   22.9663 N.ar    1  UNL1       -0.2208
     15 C         -14.7053  -18.3205   24.3763 C.ar    1  UNL1        0.1213
     16 C         -13.7103  -18.6257   25.4565 C.ar    1  UNL1        0.1213
     17 N         -12.2499  -18.7180   25.1268 N.ar    1  UNL1       -0.2208
     18 C         -11.7845  -18.5052   23.7168 C.ar    1  UNL1        0.2001
     19 N         -10.3241  -18.5975   23.3870 N.ar    1  UNL1       -0.2074
     20 C          -4.0172  -18.7539   20.6578 C.ar    1  UNL1        0.0087
     21 C          -3.5001  -18.1746   19.3745 C.ar    1  UNL1        0.0300
     22 C          -2.0397  -18.2669   19.0446 C.ar    1  UNL1        0.1672
     23 F          -1.5226  -17.6876   17.7613 F       1  UNL1       -0.2018
     24 C          -1.0965  -18.9385   19.9981 C.ar    1  UNL1        0.1696
     25 F           0.3639  -19.0308   19.6683 F       1  UNL1       -0.2017
     26 C          -1.6136  -19.5178   21.2815 C.ar    1  UNL1        0.0612
     27 C          -3.0739  -19.4255   21.6113 C.ar    1  UNL1        0.1386
     28 F          -3.5911  -20.0048   22.8947 F       1  UNL1       -0.2044
@<TRIPOS>BOND
     1     2     1    1
     2     2     3    1
     3     3     4    1
     4     4    10    1
     5    10    11   ar
     6    11    12   ar
     7    12    13   ar
     8    13    14   ar
     9    14    15   ar
    10    15    16   ar
    11    16    17   ar
    12    17    18   ar
    13    18    19   ar
    14     4     5    1
    15     5     6    1
    16     6     7    1
    17     7    20    1
    18    20    21   ar
    19    21    22   ar
    20    22    23    1
    21    22    24   ar
    22    24    25    1
    23    24    26   ar
    24    26    27   ar
    25    27    28    1
    26     7     2    1
    27    27    20   ar
    28    19    10   ar
    29    18    13   ar
    30     1     8    1
    31     1     9    1
@<TRIPOS>MOLECULE
*****
 28 31 0 0 0
SMALL
GASTEIGER

@<TRIPOS>ATOM
      1 N         -14.1642   -5.0480   20.4976 N.3     1  UNL1       -0.3206
      2 C         -13.9162   -3.8273   19.6620 C.3     1  UNL1        0.0750
      3 C         -14.7001   -2.5736   19.9145 C.3     1  UNL1        0.1079
      4 N         -14.4521   -1.3529   19.0789 N.pl3   1  UNL1       -0.2906
      5 C         -13.4203   -1.3858   17.9907 C.3     1  UNL1        0.0926
      6 C         -12.6364   -2.6395   17.7382 C.3     1  UNL1        0.0273
      7 C         -12.8843   -3.8602   18.5738 C.3     1  UNL1        0.0422
      8 H         -14.8925   -4.8485   21.1833 H       1  UNL1        0.1189
      9 H         -13.3048   -5.3097   20.9808 H       1  UNL1        0.1189
     10 C         -15.2361   -0.0992   19.3315 C.ar    1  UNL1        0.1529
     11 C         -14.9194    1.1506   18.5648 C.ar    1  UNL1        0.1349
     12 N         -15.7033    2.4043   18.8174 N.ar    1  UNL1       -0.2195
     13 C         -16.8039    2.4082   19.8366 C.ar    1  UNL1        0.1991
     14 N         -17.5878    3.6618   20.0891 N.ar    1  UNL1       -0.2208
     15 C         -18.6883    3.6657   21.1082 C.ar    1  UNL1        0.1213
     16 C         -19.0050    2.4159   21.8748 C.ar    1  UNL1        0.1213
     17 N         -18.2211    1.1622   21.6223 N.ar    1  UNL1       -0.2208
     18 C         -17.1206    1.1584   20.6032 C.ar    1  UNL1        0.2001
     19 N         -16.3366   -0.0953   20.3506 N.ar    1  UNL1       -0.2074
     20 C         -12.1004   -5.1139   18.3212 C.ar    1  UNL1        0.0087
     21 C         -10.8630   -5.3984   19.1200 C.ar    1  UNL1        0.0300
     22 C         -10.0791   -6.6521   18.8674 C.ar    1  UNL1        0.1672
     23 F          -8.8417   -6.9366   19.6662 F       1  UNL1       -0.2018
     24 C         -10.5325   -7.6212   17.8162 C.ar    1  UNL1        0.1696
     25 F          -9.7486   -8.8749   17.5636 F       1  UNL1       -0.2017
     26 C         -11.7699   -7.3366   17.0174 C.ar    1  UNL1        0.0612
     27 C         -12.5538   -6.0830   17.2700 C.ar    1  UNL1        0.1386
     28 F         -13.7912   -5.7985   16.4712 F       1  UNL1       -0.2044
@<TRIPOS>BOND
     1     2     1    1
     2     2     3    1
     3     3     4    1
     4     4    10    1
     5    10    11   ar
     6    11    12   ar
     7    12    13   ar
     8    13    14   ar
     9    14    15   ar
    10    15    16   ar
    11    16    17   ar
    12    17    18   ar
    13    18    19   ar
    14     4     5    1
    15     5     6    1
    16     6     7    1
    17     7    20    1
    18    20    21   ar
    19    21    22   ar
    20    22    23    1
    21    22    24   ar
    22    24    25    1
    23    24    26   ar
    24    26    27   ar
    25    27    28    1
    26     7     2    1
    27    27    20   ar
    28    19    10   ar
    29    18    13   ar
    30     1     8    1
    31     1     9    1
@<TRIPOS>MOLECULE
*****
 28 31 0 0 0
SMALL
GASTEIGER

@<TRIPOS>ATOM
      1 N         -12.8060   -3.0686   19.9644 N.3     1  UNL1       -0.3206
      2 C         -12.4207   -2.3051   18.7322 C.3     1  UNL1        0.0750
      3 C         -12.9185   -0.9044   18.5314 C.3     1  UNL1        0.1079
      4 N         -12.5331   -0.1409   17.2991 N.pl3   1  UNL1       -0.2906
      5 C         -11.6500   -0.7780   16.2676 C.3     1  UNL1        0.0926
      6 C         -11.1521   -2.1786   16.4684 C.3     1  UNL1        0.0273
      7 C         -11.5375   -2.9421   17.7007 C.3     1  UNL1        0.0422
      8 H         -13.4045   -2.4874   20.5513 H       1  UNL1        0.1189
      9 H         -11.9656   -3.3236   20.4832 H       1  UNL1        0.1189
     10 C         -13.0310    1.2598   17.0984 C.ar    1  UNL1        0.1529
     11 C         -14.4740    1.5028   16.7685 C.ar    1  UNL1        0.1349
     12 N         -14.9719    2.9034   16.5678 N.ar    1  UNL1       -0.2195
     13 C         -14.0268    4.0611   16.6970 C.ar    1  UNL1        0.1991
     14 N         -14.5247    5.4617   16.4963 N.ar    1  UNL1       -0.2208
     15 C         -13.5797    6.6194   16.6254 C.ar    1  UNL1        0.1213
     16 C         -12.1367    6.3764   16.9553 C.ar    1  UNL1        0.1213
     17 N         -11.6388    4.9758   17.1560 N.ar    1  UNL1       -0.2208
     18 C         -12.5839    3.8182   17.0269 C.ar    1  UNL1        0.2001
     19 N         -12.0860    2.4174   17.2276 N.ar    1  UNL1       -0.2074
     20 C         -11.0396   -4.3428   17.9014 C.ar    1  UNL1        0.0087
     21 C         -10.0164   -4.6306   18.9598 C.ar    1  UNL1        0.0300
     22 C          -9.5185   -6.0313   19.1606 C.ar    1  UNL1        0.1672
     23 F          -8.4954   -6.3191   20.2190 F       1  UNL1       -0.2018
     24 C         -10.0438   -7.1441   18.3029 C.ar    1  UNL1        0.1696
     25 F          -9.5459   -8.5448   18.5036 F       1  UNL1       -0.2017
     26 C         -11.0670   -6.8563   17.2444 C.ar    1  UNL1        0.0612
     27 C         -11.5648   -5.4557   17.0437 C.ar    1  UNL1        0.1386
     28 F         -12.5880   -5.1678   15.9852 F       1  UNL1       -0.2044
@<TRIPOS>BOND
     1     2     1    1
     2     2     3    1
     3     3     4    1
     4     4    10    1
     5    10    11   ar
     6    11    12   ar
     7    12    13   ar
     8    13    14   ar
     9    14    15   ar
    10    15    16   ar
    11    16    17   ar
    12    17    18   ar
    13    18    19   ar
    14     4     5    1
    15     5     6    1
    16     6     7    1
    17     7    20    1
    18    20    21   ar
    19    21    22   ar
    20    22    23    1
    21    22    24   ar
    22    24    25    1
    23    24    26   ar
    24    26    27   ar
    25    27    28    1
    26     7     2    1
    27    27    20   ar
    28    19    10   ar
    29    18    13   ar
    30     1     8    1
    31     1     9    1
@<TRIPOS>MOLECULE
*****
 28 31 0 0 0
SMALL
GASTEIGER

@<TRIPOS>ATOM
      1 N           3.4507    0.0363   17.4873 N.3     1  UNL1       -0.3206
      2 C           2.5119    0.2195   18.6428 C.3     1  UNL1        0.0750
      3 C           1.4233    1.2487   18.5687 C.3     1  UNL1        0.1079
      4 N           0.4845    1.4319   19.7241 N.pl3   1  UNL1       -0.2906
      5 C           0.6344    0.5860   20.9537 C.3     1  UNL1        0.0926
      6 C           1.7230   -0.4432   21.0278 C.3     1  UNL1        0.0273
      7 C           2.6618   -0.6264   19.8723 C.3     1  UNL1        0.0422
      8 H           3.2051    0.6888   16.7428 H       1  UNL1        0.1189
      9 H           3.3787   -0.9197   17.1390 H       1  UNL1        0.1189
     10 C          -0.6042    2.4612   19.6500 C.ar    1  UNL1        0.1529
     11 C          -0.5890    3.4918   18.5602 C.ar    1  UNL1        0.1349
     12 N          -1.6777    4.5210   18.4860 N.ar    1  UNL1       -0.2195
     13 C          -2.7816    4.5196   19.5016 C.ar    1  UNL1        0.1991
     14 N          -3.8702    5.5488   19.4274 N.ar    1  UNL1       -0.2208
     15 C          -4.9741    5.5475   20.4430 C.ar    1  UNL1        0.1213
     16 C          -4.9893    4.5169   21.5328 C.ar    1  UNL1        0.1213
     17 N          -3.9006    3.4877   21.6070 N.ar    1  UNL1       -0.2208
     18 C          -2.7968    3.4891   20.5914 C.ar    1  UNL1        0.2001
     19 N          -1.7081    2.4598   20.6656 N.ar    1  UNL1       -0.2074
     20 C           3.7505   -1.6557   19.9465 C.ar    1  UNL1        0.0087
     21 C           3.5359   -3.0182   19.3570 C.ar    1  UNL1        0.0300
     22 C           4.6246   -4.0474   19.4311 C.ar    1  UNL1        0.1672
     23 F           4.4099   -5.4099   18.8416 F       1  UNL1       -0.2018
     24 C           5.9278   -3.7141   20.0948 C.ar    1  UNL1        0.1696
     25 F           7.0165   -4.7434   20.1689 F       1  UNL1       -0.2017
     26 C           6.1424   -2.3516   20.6843 C.ar    1  UNL1        0.0612
     27 C           5.0538   -1.3224   20.6101 C.ar    1  UNL1        0.1386
     28 F           5.2684    0.0401   21.1996 F       1  UNL1       -0.2044
@<TRIPOS>BOND
     1     2     1    1
     2     2     3    1
     3     3     4    1
     4     4    10    1
     5    10    11   ar
     6    11    12   ar
     7    12    13   ar
     8    13    14   ar
     9    14    15   ar
    10    15    16   ar
    11    16    17   ar
    12    17    18   ar
    13    18    19   ar
    14     4     5    1
    15     5     6    1
    16     6     7    1
    17     7    20    1
    18    20    21   ar
    19    21    22   ar
    20    22    23    1
    21    22    24   ar
    22    24    25    1
    23    24    26   ar
    24    26    27   ar
    25    27    28    1
    26     7     2    1
    27    27    20   ar
    28    19    10   ar
    29    18    13   ar
    30     1     8    1
    31     1     9    1
@<TRIPOS>MOLECULE
*****
 28 31 0 0 0
SMALL
GASTEIGER

@<TRIPOS>ATOM
      1 N           7.6867   -4.7539   20.8994 N.3     1  UNL1       -0.3206
      2 C           7.0907   -4.3227   22.2067 C.3     1  UNL1        0.0750
      3 C           7.6528   -4.8447   23.4957 C.3     1  UNL1        0.1079
      4 N           7.0569   -4.4135   24.8029 N.pl3   1  UNL1       -0.2906
      5 C           5.8988   -3.4603   24.8211 C.3     1  UNL1        0.0926
      6 C           5.3368   -2.9383   23.5321 C.3     1  UNL1        0.0273
      7 C           5.9327   -3.3695   22.2249 C.3     1  UNL1        0.0422
      8 H           8.4585   -5.3977   21.0735 H       1  UNL1        0.1189
      9 H           8.0327   -3.9362   20.3973 H       1  UNL1        0.1189
     10 C           7.6190   -4.9355   26.0919 C.ar    1  UNL1        0.1529
     11 C           8.9726   -5.5816   26.1128 C.ar    1  UNL1        0.1349
     12 N           9.5347   -6.1036   27.4017 N.ar    1  UNL1       -0.2195
     13 C           8.7433   -5.9796   28.6699 C.ar    1  UNL1        0.1991
     14 N           9.3054   -6.5016   29.9589 N.ar    1  UNL1       -0.2208
     15 C           8.5140   -6.3776   31.2270 C.ar    1  UNL1        0.1213
     16 C           7.1604   -5.7315   31.2062 C.ar    1  UNL1        0.1213
     17 N           6.5982   -5.2095   29.9172 N.ar    1  UNL1       -0.2208
     18 C           7.3897   -5.3335   28.6491 C.ar    1  UNL1        0.2001
     19 N           6.8275   -4.8115   27.3601 N.ar    1  UNL1       -0.2074
     20 C           5.3706   -2.8475   20.9358 C.ar    1  UNL1        0.0087
     21 C           5.8833   -1.5605   20.3607 C.ar    1  UNL1        0.0300
     22 C           5.3212   -1.0385   19.0717 C.ar    1  UNL1        0.1672
     23 F           5.8340    0.2485   18.4966 F       1  UNL1       -0.2018
     24 C           4.2464   -1.8034   18.3579 C.ar    1  UNL1        0.1696
     25 F           3.6843   -1.2814   17.0689 F       1  UNL1       -0.2017
     26 C           3.7337   -3.0904   18.9330 C.ar    1  UNL1        0.0612
     27 C           4.2958   -3.6124   20.2220 C.ar    1  UNL1        0.1386
     28 F           3.7831   -4.8994   20.7971 F       1  UNL1       -0.2044
@<TRIPOS>BOND
     1     2     1    1
     2     2     3    1
     3     3     4    1
     4     4    10    1
     5    10    11   ar
     6    11    12   ar
     7    12    13   ar
     8    13    14   ar
     9    14    15   ar
    10    15    16   ar
    11    16    17   ar
    12    17    18   ar
    13    18    19   ar
    14     4     5    1
    15     5     6    1
    16     6     7    1
    17     7    20    1
    18    20    21   ar
    19    21    22   ar
    20    22    23    1
    21    22    24   ar
    22    24    25    1
    23    24    26   ar
    24    26    27   ar
    25    27    28    1
    26     7     2    1
    27    27    20   ar
    28    19    10   ar
    29    18    13   ar
    30     1     8    1
    31     1     9    1
@<TRIPOS>MOLECULE
*****
 28 31 0 0 0
SMALL
GASTEIGER

@<TRIPOS>ATOM
      1 N           7.2495    0.8398   34.7429 N.3     1  UNL1       -0.3206
      2 C           6.5207   -0.3124   34.1175 C.3     1  UNL1        0.0750
      3 C           7.2457   -1.2464   33.1944 C.3     1  UNL1        0.1079
      4 N           6.5168   -2.3986   32.5690 N.pl3   1  UNL1       -0.2906
      5 C           5.0630   -2.6169   32.8666 C.3     1  UNL1        0.0926
      6 C           4.3380   -1.6829   33.7897 C.3     1  UNL1        0.0273
      7 C           5.0669   -0.5307   34.4151 C.3     1  UNL1        0.0422
      8 H           8.2213    0.8361   34.4328 H       1  UNL1        0.1189
      9 H           7.2164    0.7521   35.7586 H       1  UNL1        0.1189
     10 C           7.2419   -3.3325   31.6459 C.ar    1  UNL1        0.1529
     11 C           8.6728   -3.6928   31.9155 C.ar    1  UNL1        0.1349
     12 N           9.3979   -4.6267   30.9925 N.ar    1  UNL1       -0.2195
     13 C           8.6920   -5.2004   29.7997 C.ar    1  UNL1        0.1991
     14 N           9.4171   -6.1343   28.8767 N.ar    1  UNL1       -0.2208
     15 C           8.7112   -6.7080   27.6839 C.ar    1  UNL1        0.1213
     16 C           7.2803   -6.3478   27.4143 C.ar    1  UNL1        0.1213
     17 N           6.5553   -5.4139   28.3373 N.ar    1  UNL1       -0.2208
     18 C           7.2611   -4.8402   29.5300 C.ar    1  UNL1        0.2001
     19 N           6.5360   -3.9062   30.4531 N.ar    1  UNL1       -0.2074
     20 C           4.3418    0.4033   35.3382 C.ar    1  UNL1        0.0087
     21 C           4.4329    0.2109   36.8231 C.ar    1  UNL1        0.0300
     22 C           3.7079    1.1448   37.7462 C.ar    1  UNL1        0.1672
     23 F           3.7990    0.9525   39.2310 F       1  UNL1       -0.2018
     24 C           2.8918    2.2710   37.1845 C.ar    1  UNL1        0.1696
     25 F           2.1667    3.2050   38.1076 F       1  UNL1       -0.2017
     26 C           2.8007    2.4633   35.6996 C.ar    1  UNL1        0.0612
     27 C           3.5257    1.5294   34.7765 C.ar    1  UNL1        0.1386
     28 F           3.4346    1.7218   33.2917 F       1  UNL1       -0.2044
@<TRIPOS>BOND
     1     2     1    1
     2     2     3    1
     3     3     4    1
     4     4    10    1
     5    10    11   ar
     6    11    12   ar
     7    12    13   ar
     8    13    14   ar
     9    14    15   ar
    10    15    16   ar
    11    16    17   ar
    12    17    18   ar
    13    18    19   ar
    14     4     5    1
    15     5     6    1
    16     6     7    1
    17     7    20    1
    18    20    21   ar
    19    21    22   ar
    20    22    23    1
    21    22    24   ar
    22    24    25    1
    23    24    26   ar
    24    26    27   ar
    25    27    28    1
    26     7     2    1
    27    27    20   ar
    28    19    10   ar
    29    18    13   ar
    30     1     8    1
    31     1     9    1
@<TRIPOS>MOLECULE
*****
 28 31 0 0 0
SMALL
GASTEIGER

@<TRIPOS>ATOM
      1 N           2.8651   -0.9248   22.5549 N.3     1  UNL1       -0.3206
      2 C           2.5259   -0.3490   21.2120 C.3     1  UNL1        0.0750
      3 C           1.3940    0.6261   21.0783 C.3     1  UNL1        0.1079
      4 N           1.0547    1.2019   19.7354 N.pl3   1  UNL1       -0.2906
      5 C           1.8474    0.8027   18.5262 C.3     1  UNL1        0.0926
      6 C           2.9793   -0.1724   18.6599 C.3     1  UNL1        0.0273
      7 C           3.3185   -0.7483   20.0028 C.3     1  UNL1        0.0422
      8 H           2.2296   -0.5466   23.2574 H       1  UNL1        0.1189
      9 H           3.8249   -0.6794   22.7975 H       1  UNL1        0.1189
     10 C          -0.0772    2.1771   19.6017 C.ar    1  UNL1        0.1529
     11 C          -0.1045    3.1417   18.4534 C.ar    1  UNL1        0.1349
     12 N          -1.2364    4.1168   18.3197 N.ar    1  UNL1       -0.2195
     13 C          -2.3411    4.1274   19.3344 C.ar    1  UNL1        0.1991
     14 N          -3.4730    5.1025   19.2007 N.ar    1  UNL1       -0.2208
     15 C          -4.5776    5.1130   20.2153 C.ar    1  UNL1        0.1213
     16 C          -4.5504    4.1483   21.3637 C.ar    1  UNL1        0.1213
     17 N          -3.4185    3.1732   21.4974 N.ar    1  UNL1       -0.2208
     18 C          -2.3139    3.1627   20.4827 C.ar    1  UNL1        0.2001
     19 N          -1.1819    2.1876   20.6164 N.ar    1  UNL1       -0.2074
     20 C           4.4505   -1.7234   20.1365 C.ar    1  UNL1        0.0087
     21 C           5.7965   -1.2510   20.6004 C.ar    1  UNL1        0.0300
     22 C           6.9284   -2.2261   20.7341 C.ar    1  UNL1        0.1672
     23 F           8.2744   -1.7537   21.1980 F       1  UNL1       -0.2018
     24 C           6.7144   -3.6735   20.4039 C.ar    1  UNL1        0.1696
     25 F           7.8464   -4.6487   20.5375 F       1  UNL1       -0.2017
     26 C           5.3684   -4.1459   19.9400 C.ar    1  UNL1        0.0612
     27 C           4.2365   -3.1708   19.8063 C.ar    1  UNL1        0.1386
     28 F           2.8905   -3.6432   19.3424 F       1  UNL1       -0.2044
@<TRIPOS>BOND
     1     2     1    1
     2     2     3    1
     3     3     4    1
     4     4    10    1
     5    10    11   ar
     6    11    12   ar
     7    12    13   ar
     8    13    14   ar
     9    14    15   ar
    10    15    16   ar
    11    16    17   ar
    12    17    18   ar
    13    18    19   ar
    14     4     5    1
    15     5     6    1
    16     6     7    1
    17     7    20    1
    18    20    21   ar
    19    21    22   ar
    20    22    23    1
    21    22    24   ar
    22    24    25    1
    23    24    26   ar
    24    26    27   ar
    25    27    28    1
    26     7     2    1
    27    27    20   ar
    28    19    10   ar
    29    18    13   ar
    30     1     8    1
    31     1     9    1
