@<TRIPOS>MOLECULE
*****
 26 29 0 0 0
SMALL
GASTEIGER

@<TRIPOS>ATOM
      1 C          -4.5842  -18.7454   20.5150 C.ar    1  UNL1        0.0001
      2 C          -5.0509  -18.6081   21.9339 C.ar    1  UNL1        0.0000
      3 C          -6.4962  -18.8236   22.2722 C.ar    1  UNL1        0.0001
      4 C          -7.4749  -19.1763   21.1916 C.ar    1  UNL1        0.0030
      5 C          -8.9204  -19.3917   21.5300 C.ar    1  UNL1        0.0352
      6 C          -9.8991  -19.7444   20.4494 C.ar    1  UNL1        0.1336
      7 O         -11.3444  -19.9598   20.7877 O.3     1  UNL1       -0.5055
      8 C          -9.4324  -19.8817   19.0304 C.ar    1  UNL1        0.0366
      9 C          -7.9870  -19.6662   18.6921 C.ar    1  UNL1        0.0031
     10 C          -7.0083  -19.3135   19.7727 C.ar    1  UNL1        0.0002
     11 C          -5.5629  -19.0981   19.4344 C.ar    1  UNL1        0.0000
     12 H         -11.6360  -19.8741   21.6740 H       1  UNL1        0.2922
     13 O          -0.8839  -17.7522   17.0048 O.3     1  UNL1       -0.5055
     14 C          -1.2887  -18.0334   18.4215 C.ar    1  UNL1        0.1337
     15 C          -0.2480  -18.0991   19.4999 C.ar    1  UNL1        0.0366
     16 C          -0.6528  -18.3802   20.9166 C.ar    1  UNL1        0.0031
     17 C          -2.0982  -18.5957   21.2550 C.ar    1  UNL1        0.0002
     18 C          -3.1388  -18.5300   20.1767 C.ar    1  UNL1        0.0030
     19 C          -2.7340  -18.2488   18.7599 C.ar    1  UNL1        0.0366
     20 H           0.0189  -17.6176   16.7934 H       1  UNL1        0.2922
     21 C          -9.3870  -19.2544   22.9489 C.ar    1  UNL1        0.0221
     22 C          -9.8442  -17.9213   23.4624 C.ar    1  UNL1        0.0032
     23 C         -10.3108  -17.7841   24.8814 C.ar    1  UNL1        0.0207
     24 C         -10.3203  -18.9799   25.7868 C.ar    1  UNL1        0.0989
     25 N          -9.8632  -20.3131   25.2732 N.ar    1  UNL1       -0.2423
     26 C          -9.3965  -20.4504   23.8543 C.ar    1  UNL1        0.0989
@<TRIPOS>BOND
     1    13    14    1
     2    14    15   ar
     3    15    16   ar
     4    16    17   ar
     5    17    18   ar
     6    18     1    1
     7     1     2   ar
     8     2     3   ar
     9     3     4   ar
    10     4     5   ar
    11     5    21    1
    12    21    22   ar
    13    22    23   ar
    14    23    24   ar
    15    24    25   ar
    16    25    26   ar
    17     5     6   ar
    18     6     7    1
    19     6     8   ar
    20     8     9   ar
    21     9    10   ar
    22    10    11   ar
    23    18    19   ar
    24    19    14   ar
    25    11     1   ar
    26    10     4   ar
    27    26    21   ar
    28    13    20    1
    29     7    12    1
@<TRIPOS>MOLECULE
*****
 26 29 0 0 0
SMALL
GASTEIGER

@<TRIPOS>ATOM
      1 C         -15.1043   -7.3446   18.0299 C.ar    1  UNL1        0.0001
      2 C         -15.3693   -5.9094   17.6835 C.ar    1  UNL1        0.0000
      3 C         -14.2609   -4.9019   17.7627 C.ar    1  UNL1        0.0001
      4 C         -12.8876   -5.3295   18.1882 C.ar    1  UNL1        0.0030
      5 C         -11.7792   -4.3219   18.2673 C.ar    1  UNL1        0.0352
      6 C         -10.4058   -4.7495   18.6928 C.ar    1  UNL1        0.1336
      7 O          -9.2974   -3.7420   18.7719 O.3     1  UNL1       -0.5055
      8 C         -10.1409   -6.1848   19.0391 C.ar    1  UNL1        0.0366
      9 C         -11.2493   -7.1923   18.9600 C.ar    1  UNL1        0.0031
     10 C         -12.6226   -6.7647   18.5345 C.ar    1  UNL1        0.0002
     11 C         -13.7310   -7.7722   18.4554 C.ar    1  UNL1        0.0000
     12 H          -9.4629   -2.8454   18.5555 H       1  UNL1        0.2922
     13 O         -16.9632  -12.0814   19.0820 O.3     1  UNL1       -0.5055
     14 C         -17.1421  -10.7206   18.4769 C.ar    1  UNL1        0.1337
     15 C         -18.4295  -10.3675   17.7926 C.ar    1  UNL1        0.0366
     16 C         -18.6084   -9.0067   17.1875 C.ar    1  UNL1        0.0031
     17 C         -17.5000   -7.9990   17.2666 C.ar    1  UNL1        0.0002
     18 C         -16.2127   -8.3522   17.9508 C.ar    1  UNL1        0.0030
     19 C         -16.0338   -9.7130   18.5560 C.ar    1  UNL1        0.0366
     20 H         -17.6556  -12.7109   19.0326 H       1  UNL1        0.2922
     21 C         -12.0441   -2.8867   17.9209 C.ar    1  UNL1        0.0221
     22 C         -12.5073   -1.9324   18.9814 C.ar    1  UNL1        0.0032
     23 C         -12.7723   -0.4971   18.6350 C.ar    1  UNL1        0.0207
     24 C         -12.5741   -0.0163   17.2281 C.ar    1  UNL1        0.0989
     25 N         -12.1109   -0.9706   16.1675 N.ar    1  UNL1       -0.2423
     26 C         -11.8460   -2.4058   16.5139 C.ar    1  UNL1        0.0989
@<TRIPOS>BOND
     1    13    14    1
     2    14    15   ar
     3    15    16   ar
     4    16    17   ar
     5    17    18   ar
     6    18     1    1
     7     1     2   ar
     8     2     3   ar
     9     3     4   ar
    10     4     5   ar
    11     5    21    1
    12    21    22   ar
    13    22    23   ar
    14    23    24   ar
    15    24    25   ar
    16    25    26   ar
    17     5     6   ar
    18     6     7    1
    19     6     8   ar
    20     8     9   ar
    21     9    10   ar
    22    10    11   ar
    23    18    19   ar
    24    19    14   ar
    25    11     1   ar
    26    10     4   ar
    27    26    21   ar
    28    13    20    1
    29     7    12    1
@<TRIPOS>MOLECULE
*****
 26 29 0 0 0
SMALL
GASTEIGER

@<TRIPOS>ATOM
      1 C         -13.7353   -5.7112   19.1178 C.ar    1  UNL1        0.0001
      2 C         -14.4833   -7.0013   18.9559 C.ar    1  UNL1        0.0000
      3 C         -15.9781   -7.0219   19.0780 C.ar    1  UNL1        0.0001
      4 C         -16.7250   -5.7525   19.3621 C.ar    1  UNL1        0.0030
      5 C         -18.2199   -5.7732   19.4842 C.ar    1  UNL1        0.0352
      6 C         -18.9668   -4.5038   19.7683 C.ar    1  UNL1        0.1336
      7 O         -20.4617   -4.5244   19.8905 O.3     1  UNL1       -0.5055
      8 C         -18.2188   -3.2136   19.9302 C.ar    1  UNL1        0.0366
      9 C         -16.7240   -3.1930   19.8081 C.ar    1  UNL1        0.0031
     10 C         -15.9771   -4.4624   19.5240 C.ar    1  UNL1        0.0002
     11 C         -14.4822   -4.4418   19.4019 C.ar    1  UNL1        0.0000
     12 H         -20.9289   -5.3303   19.7893 H       1  UNL1        0.2922
     13 O          -9.2268   -8.2431   18.6046 O.3     1  UNL1       -0.5055
     14 C          -9.9862   -6.9565   18.7390 C.ar    1  UNL1        0.1337
     15 C          -9.2506   -5.6492   18.7513 C.ar    1  UNL1        0.0366
     16 C         -10.0100   -4.3626   18.8858 C.ar    1  UNL1        0.0031
     17 C         -11.5049   -4.3833   19.0079 C.ar    1  UNL1        0.0002
     18 C         -12.2404   -5.6905   18.9956 C.ar    1  UNL1        0.0030
     19 C         -11.4810   -6.9771   18.8612 C.ar    1  UNL1        0.0366
     20 H          -8.2930   -8.2302   18.5283 H       1  UNL1        0.2922
     21 C         -18.9679   -7.0632   19.3223 C.ar    1  UNL1        0.0221
     22 C         -19.3203   -7.8824   20.5285 C.ar    1  UNL1        0.0032
     23 C         -20.0683   -9.1725   20.3665 C.ar    1  UNL1        0.0207
     24 C         -20.4638   -9.6434   18.9984 C.ar    1  UNL1        0.0989
     25 N         -20.1114   -8.8243   17.7922 N.ar    1  UNL1       -0.2423
     26 C         -19.3634   -7.5343   17.9542 C.ar    1  UNL1        0.0989
@<TRIPOS>BOND
     1    13    14    1
     2    14    15   ar
     3    15    16   ar
     4    16    17   ar
     5    17    18   ar
     6    18     1    1
     7     1     2   ar
     8     2     3   ar
     9     3     4   ar
    10     4     5   ar
    11     5    21    1
    12    21    22   ar
    13    22    23   ar
    14    23    24   ar
    15    24    25   ar
    16    25    26   ar
    17     5     6   ar
    18     6     7    1
    19     6     8   ar
    20     8     9   ar
    21     9    10   ar
    22    10    11   ar
    23    18    19   ar
    24    19    14   ar
    25    11     1   ar
    26    10     4   ar
    27    26    21   ar
    28    13    20    1
    29     7    12    1
@<TRIPOS>MOLECULE
*****
 26 29 0 0 0
SMALL
GASTEIGER

@<TRIPOS>ATOM
      1 C          -9.6152  -17.9120   23.0746 C.ar    1  UNL1        0.0001
      2 C          -8.8901  -18.9311   22.2465 C.ar    1  UNL1        0.0000
      3 C          -7.4004  -18.8492   22.0917 C.ar    1  UNL1        0.0001
      4 C          -6.6358  -17.7482   22.7649 C.ar    1  UNL1        0.0030
      5 C          -5.1460  -17.6664   22.6099 C.ar    1  UNL1        0.0352
      6 C          -4.3813  -16.5654   23.2831 C.ar    1  UNL1        0.1336
      7 O          -2.8916  -16.4835   23.1282 O.3     1  UNL1       -0.5055
      8 C          -5.1065  -15.5463   24.1112 C.ar    1  UNL1        0.0366
      9 C          -6.5962  -15.6282   24.2661 C.ar    1  UNL1        0.0031
     10 C          -7.3608  -16.7291   23.5929 C.ar    1  UNL1        0.0002
     11 C          -8.8505  -16.8110   23.7478 C.ar    1  UNL1        0.0000
     12 H          -2.4387  -17.1201   22.6110 H       1  UNL1        0.2922
     13 O         -13.7875  -18.8577   26.0237 O.3     1  UNL1       -0.5055
     14 C         -13.1911  -18.4667   24.7041 C.ar    1  UNL1        0.1337
     15 C         -14.0844  -18.1575   23.5394 C.ar    1  UNL1        0.0366
     16 C         -13.4880  -17.7665   22.2198 C.ar    1  UNL1        0.0031
     17 C         -11.9982  -17.6847   22.0649 C.ar    1  UNL1        0.0002
     18 C         -11.1050  -17.9938   23.2295 C.ar    1  UNL1        0.0030
     19 C         -11.7014  -18.3849   24.5491 C.ar    1  UNL1        0.0366
     20 H         -14.7181  -18.9089   26.1205 H       1  UNL1        0.2922
     21 C          -4.4209  -18.6855   21.7819 C.ar    1  UNL1        0.0221
     22 C          -4.9565  -19.0773   20.4366 C.ar    1  UNL1        0.0032
     23 C          -4.2314  -20.0965   19.6086 C.ar    1  UNL1        0.0207
     24 C          -2.9708  -20.7237   20.1257 C.ar    1  UNL1        0.0989
     25 N          -2.4352  -20.3318   21.4710 N.ar    1  UNL1       -0.2423
     26 C          -3.1603  -19.3127   22.2990 C.ar    1  UNL1        0.0989
@<TRIPOS>BOND
     1    13    14    1
     2    14    15   ar
     3    15    16   ar
     4    16    17   ar
     5    17    18   ar
     6    18     1    1
     7     1     2   ar
     8     2     3   ar
     9     3     4   ar
    10     4     5   ar
    11     5    21    1
    12    21    22   ar
    13    22    23   ar
    14    23    24   ar
    15    24    25   ar
    16    25    26   ar
    17     5     6   ar
    18     6     7    1
    19     6     8   ar
    20     8     9   ar
    21     9    10   ar
    22    10    11   ar
    23    18    19   ar
    24    19    14   ar
    25    11     1   ar
    26    10     4   ar
    27    26    21   ar
    28    13    20    1
    29     7    12    1
@<TRIPOS>MOLECULE
*****
 26 29 0 0 0
SMALL
GASTEIGER

@<TRIPOS>ATOM
      1 C          -9.8812  -17.1132   23.4607 C.ar    1  UNL1        0.0001
      2 C          -8.7403  -17.3899   22.5270 C.ar    1  UNL1        0.0000
      3 C          -7.3382  -17.0452   22.9332 C.ar    1  UNL1        0.0001
      4 C          -7.0768  -16.4239   24.2732 C.ar    1  UNL1        0.0030
      5 C          -5.6746  -16.0792   24.6795 C.ar    1  UNL1        0.0352
      6 C          -5.4133  -15.4578   26.0195 C.ar    1  UNL1        0.1336
      7 O          -4.0111  -15.1131   26.4257 O.3     1  UNL1       -0.5055
      8 C          -6.5542  -15.1811   26.9532 C.ar    1  UNL1        0.0366
      9 C          -7.9563  -15.5258   26.5470 C.ar    1  UNL1        0.0031
     10 C          -8.2177  -16.1472   25.2070 C.ar    1  UNL1        0.0002
     11 C          -9.6198  -16.4919   24.8007 C.ar    1  UNL1        0.0000
     12 H          -3.2984  -15.2860   25.8425 H       1  UNL1        0.2922
     13 O         -14.7240  -18.4988   24.7364 O.3     1  UNL1       -0.5055
     14 C         -13.7048  -18.1507   23.6924 C.ar    1  UNL1        0.1337
     15 C         -14.0879  -18.1473   22.2421 C.ar    1  UNL1        0.0366
     16 C         -13.0687  -17.7992   21.1980 C.ar    1  UNL1        0.0031
     17 C         -11.6664  -17.4545   21.6042 C.ar    1  UNL1        0.0002
     18 C         -11.2834  -17.4579   23.0545 C.ar    1  UNL1        0.0030
     19 C         -12.3026  -17.8060   24.0985 C.ar    1  UNL1        0.0366
     20 H         -15.5999  -18.7141   24.4827 H       1  UNL1        0.2922
     21 C          -4.5338  -16.3559   23.7457 C.ar    1  UNL1        0.0221
     22 C          -3.8901  -17.7107   23.7288 C.ar    1  UNL1        0.0032
     23 C          -2.7492  -17.9873   22.7950 C.ar    1  UNL1        0.0207
     24 C          -2.2521  -16.9092   21.8782 C.ar    1  UNL1        0.0989
     25 N          -2.8957  -15.5545   21.8952 N.ar    1  UNL1       -0.2423
     26 C          -4.0365  -15.2778   22.8289 C.ar    1  UNL1        0.0989
@<TRIPOS>BOND
     1    13    14    1
     2    14    15   ar
     3    15    16   ar
     4    16    17   ar
     5    17    18   ar
     6    18     1    1
     7     1     2   ar
     8     2     3   ar
     9     3     4   ar
    10     4     5   ar
    11     5    21    1
    12    21    22   ar
    13    22    23   ar
    14    23    24   ar
    15    24    25   ar
    16    25    26   ar
    17     5     6   ar
    18     6     7    1
    19     6     8   ar
    20     8     9   ar
    21     9    10   ar
    22    10    11   ar
    23    18    19   ar
    24    19    14   ar
    25    11     1   ar
    26    10     4   ar
    27    26    21   ar
    28    13    20    1
    29     7    12    1
@<TRIPOS>MOLECULE
*****
 26 29 0 0 0
SMALL
GASTEIGER

@<TRIPOS>ATOM
      1 C           7.2070   -4.5992   27.6723 C.ar    1  UNL1        0.0001
      2 C           6.8615   -3.4859   26.7283 C.ar    1  UNL1        0.0000
      3 C           7.0910   -3.6530   25.2555 C.ar    1  UNL1        0.0001
      4 C           7.6659   -4.9335   24.7265 C.ar    1  UNL1        0.0030
      5 C           7.8954   -5.1006   23.2536 C.ar    1  UNL1        0.0352
      6 C           8.4704   -6.3811   22.7247 C.ar    1  UNL1        0.1336
      7 O           8.6998   -6.5482   21.2518 O.3     1  UNL1       -0.5055
      8 C           8.8159   -7.4944   23.6687 C.ar    1  UNL1        0.0366
      9 C           8.5865   -7.3273   25.1415 C.ar    1  UNL1        0.0031
     10 C           8.0115   -6.0468   25.6705 C.ar    1  UNL1        0.0002
     11 C           7.7820   -5.8797   27.1433 C.ar    1  UNL1        0.0000
     12 H           8.4840   -5.8528   20.6621 H       1  UNL1        0.2922
     13 O           7.0165   -6.6218   32.4548 O.3     1  UNL1       -0.5055
     14 C           6.8823   -5.4435   31.5364 C.ar    1  UNL1        0.1337
     15 C           6.5187   -4.0980   32.0910 C.ar    1  UNL1        0.0366
     16 C           6.3845   -2.9196   31.1727 C.ar    1  UNL1        0.0031
     17 C           6.6139   -3.0867   29.6997 C.ar    1  UNL1        0.0002
     18 C           6.9776   -4.4321   29.1452 C.ar    1  UNL1        0.0030
     19 C           7.1118   -5.6105   30.0636 C.ar    1  UNL1        0.0366
     20 H           6.8732   -6.5175   33.3749 H       1  UNL1        0.2922
     21 C           7.5499   -3.9873   22.3097 C.ar    1  UNL1        0.0221
     22 C           6.1489   -3.8511   21.7913 C.ar    1  UNL1        0.0032
     23 C           5.8034   -2.7377   20.8473 C.ar    1  UNL1        0.0207
     24 C           6.8588   -1.7605   20.4218 C.ar    1  UNL1        0.0989
     25 N           8.2598   -1.8967   20.9401 N.ar    1  UNL1       -0.2423
     26 C           8.6053   -3.0100   21.8841 C.ar    1  UNL1        0.0989
@<TRIPOS>BOND
     1    13    14    1
     2    14    15   ar
     3    15    16   ar
     4    16    17   ar
     5    17    18   ar
     6    18     1    1
     7     1     2   ar
     8     2     3   ar
     9     3     4   ar
    10     4     5   ar
    11     5    21    1
    12    21    22   ar
    13    22    23   ar
    14    23    24   ar
    15    24    25   ar
    16    25    26   ar
    17     5     6   ar
    18     6     7    1
    19     6     8   ar
    20     8     9   ar
    21     9    10   ar
    22    10    11   ar
    23    18    19   ar
    24    19    14   ar
    25    11     1   ar
    26    10     4   ar
    27    26    21   ar
    28    13    20    1
    29     7    12    1
@<TRIPOS>MOLECULE
*****
 26 29 0 0 0
SMALL
GASTEIGER

@<TRIPOS>ATOM
      1 C           2.4892   -0.3765   21.3102 C.ar    1  UNL1        0.0001
      2 C           2.7709   -0.4745   22.7802 C.ar    1  UNL1        0.0000
      3 C           2.0056    0.3774   23.7490 C.ar    1  UNL1        0.0001
      4 C           0.9585    1.3273   23.2478 C.ar    1  UNL1        0.0030
      5 C           0.1932    2.1792   24.2166 C.ar    1  UNL1        0.0352
      6 C          -0.8539    3.1291   23.7154 C.ar    1  UNL1        0.1336
      7 O          -1.6192    3.9810   24.6842 O.3     1  UNL1       -0.5055
      8 C          -1.1357    3.2272   22.2453 C.ar    1  UNL1        0.0366
      9 C          -0.3704    2.3753   21.2765 C.ar    1  UNL1        0.0031
     10 C           0.6767    1.4253   21.7778 C.ar    1  UNL1        0.0002
     11 C           1.4421    0.5735   20.8090 C.ar    1  UNL1        0.0000
     12 H          -1.4432    3.9198   25.6025 H       1  UNL1        0.2922
     13 O           4.0033   -1.4104   16.4483 O.3     1  UNL1       -0.5055
     14 C           4.0115   -1.7453   17.9104 C.ar    1  UNL1        0.1337
     15 C           4.7851   -2.9321   18.4036 C.ar    1  UNL1        0.0366
     16 C           4.7933   -3.2670   19.8658 C.ar    1  UNL1        0.0031
     17 C           4.0279   -2.4151   20.8346 C.ar    1  UNL1        0.0002
     18 C           3.2545   -1.2284   20.3414 C.ar    1  UNL1        0.0030
     19 C           3.2463   -0.8934   18.8792 C.ar    1  UNL1        0.0366
     20 H           4.4814   -1.9425   15.8431 H       1  UNL1        0.2922
     21 C           0.4750    2.0811   25.6866 C.ar    1  UNL1        0.0221
     22 C          -0.3544    1.1781   26.5507 C.ar    1  UNL1        0.0032
     23 C          -0.0725    1.0800   28.0207 C.ar    1  UNL1        0.0207
     24 C           1.0386    1.8851   28.6267 C.ar    1  UNL1        0.0989
     25 N           1.8680    2.7881   27.7626 N.ar    1  UNL1       -0.2423
     26 C           1.5862    2.8862   26.2926 C.ar    1  UNL1        0.0989
@<TRIPOS>BOND
     1    13    14    1
     2    14    15   ar
     3    15    16   ar
     4    16    17   ar
     5    17    18   ar
     6    18     1    1
     7     1     2   ar
     8     2     3   ar
     9     3     4   ar
    10     4     5   ar
    11     5    21    1
    12    21    22   ar
    13    22    23   ar
    14    23    24   ar
    15    24    25   ar
    16    25    26   ar
    17     5     6   ar
    18     6     7    1
    19     6     8   ar
    20     8     9   ar
    21     9    10   ar
    22    10    11   ar
    23    18    19   ar
    24    19    14   ar
    25    11     1   ar
    26    10     4   ar
    27    26    21   ar
    28    13    20    1
    29     7    12    1
@<TRIPOS>MOLECULE
*****
 26 29 0 0 0
SMALL
GASTEIGER

@<TRIPOS>ATOM
      1 C           3.4520   -1.3452   22.0121 C.ar    1  UNL1        0.0001
      2 C           2.4557   -0.2386   21.8313 C.ar    1  UNL1        0.0000
      3 C           1.9646    0.5303   23.0219 C.ar    1  UNL1        0.0001
      4 C           2.4698    0.1926   24.3933 C.ar    1  UNL1        0.0030
      5 C           1.9786    0.9616   25.5839 C.ar    1  UNL1        0.0352
      6 C           2.4838    0.6238   26.9553 C.ar    1  UNL1        0.1336
      7 O           1.9927    1.3927   28.1459 O.3     1  UNL1       -0.5055
      8 C           3.4802   -0.4829   27.1361 C.ar    1  UNL1        0.0366
      9 C           3.9713   -1.2518   25.9455 C.ar    1  UNL1        0.0031
     10 C           3.4661   -0.9140   24.5741 C.ar    1  UNL1        0.0002
     11 C           3.9572   -1.6829   23.3835 C.ar    1  UNL1        0.0000
     12 H           1.3703    2.0840   28.0330 H       1  UNL1        0.2922
     13 O           4.2908   -1.6630   16.8939 O.3     1  UNL1       -0.5055
     14 C           4.3626   -2.2730   18.2624 C.ar    1  UNL1        0.1337
     15 C           4.9255   -3.6520   18.4403 C.ar    1  UNL1        0.0366
     16 C           4.9973   -4.2621   19.8087 C.ar    1  UNL1        0.0031
     17 C           4.5061   -3.4931   20.9994 C.ar    1  UNL1        0.0002
     18 C           3.9432   -2.1142   20.8215 C.ar    1  UNL1        0.0030
     19 C           3.8714   -1.5042   19.4530 C.ar    1  UNL1        0.0366
     20 H           4.5976   -2.1433   16.1502 H       1  UNL1        0.2922
     21 C           0.9823    2.0682   25.4031 C.ar    1  UNL1        0.0221
     22 C          -0.4863    1.7777   25.4959 C.ar    1  UNL1        0.0032
     23 C          -1.4826    2.8844   25.3151 C.ar    1  UNL1        0.0207
     24 C          -1.0103    4.2815   25.0415 C.ar    1  UNL1        0.0989
     25 N           0.4584    4.5720   24.9487 N.ar    1  UNL1       -0.2423
     26 C           1.4547    3.4654   25.1295 C.ar    1  UNL1        0.0989
@<TRIPOS>BOND
     1    13    14    1
     2    14    15   ar
     3    15    16   ar
     4    16    17   ar
     5    17    18   ar
     6    18     1    1
     7     1     2   ar
     8     2     3   ar
     9     3     4   ar
    10     4     5   ar
    11     5    21    1
    12    21    22   ar
    13    22    23   ar
    14    23    24   ar
    15    24    25   ar
    16    25    26   ar
    17     5     6   ar
    18     6     7    1
    19     6     8   ar
    20     8     9   ar
    21     9    10   ar
    22    10    11   ar
    23    18    19   ar
    24    19    14   ar
    25    11     1   ar
    26    10     4   ar
    27    26    21   ar
    28    13    20    1
    29     7    12    1
@<TRIPOS>MOLECULE
*****
 26 29 0 0 0
SMALL
GASTEIGER

@<TRIPOS>ATOM
      1 C           5.6906   -3.2018   23.7811 C.ar    1  UNL1        0.0001
      2 C           4.6624   -2.1106   23.8290 C.ar    1  UNL1        0.0000
      3 C           4.0563   -1.5950   22.5575 C.ar    1  UNL1        0.0001
      4 C           4.4784   -2.1704   21.2382 C.ar    1  UNL1        0.0030
      5 C           3.8723   -1.6547   19.9667 C.ar    1  UNL1        0.0352
      6 C           4.2944   -2.2301   18.6473 C.ar    1  UNL1        0.1336
      7 O           3.6883   -1.7145   17.3758 O.3     1  UNL1       -0.5055
      8 C           5.3226   -3.3213   18.5995 C.ar    1  UNL1        0.0366
      9 C           5.9286   -3.8370   19.8709 C.ar    1  UNL1        0.0031
     10 C           5.5066   -3.2615   21.1903 C.ar    1  UNL1        0.0002
     11 C           6.1126   -3.7772   22.4618 C.ar    1  UNL1        0.0000
     12 H           3.0460   -1.0329   17.4057 H       1  UNL1        0.2922
     13 O           6.7329   -2.6020   28.8362 O.3     1  UNL1       -0.5055
     14 C           6.8179   -3.4176   27.5802 C.ar    1  UNL1        0.1337
     15 C           7.5089   -4.7489   27.5957 C.ar    1  UNL1        0.0366
     16 C           7.5938   -5.5645   26.3396 C.ar    1  UNL1        0.0031
     17 C           6.9877   -5.0487   25.0681 C.ar    1  UNL1        0.0002
     18 C           6.2967   -3.7175   25.0527 C.ar    1  UNL1        0.0030
     19 C           6.2118   -2.9019   26.3087 C.ar    1  UNL1        0.0366
     20 H           7.1115   -2.9241   29.6305 H       1  UNL1        0.2922
     21 C           2.8441   -0.5636   20.0145 C.ar    1  UNL1        0.0221
     22 C           1.3986   -0.9039   20.2257 C.ar    1  UNL1        0.0032
     23 C           0.3704    0.1873   20.2735 C.ar    1  UNL1        0.0207
     24 C           0.7878    1.6187   20.1103 C.ar    1  UNL1        0.0989
     25 N           2.2334    1.9591   19.8992 N.ar    1  UNL1       -0.2423
     26 C           3.2615    0.8680   19.8513 C.ar    1  UNL1        0.0989
@<TRIPOS>BOND
     1    13    14    1
     2    14    15   ar
     3    15    16   ar
     4    16    17   ar
     5    17    18   ar
     6    18     1    1
     7     1     2   ar
     8     2     3   ar
     9     3     4   ar
    10     4     5   ar
    11     5    21    1
    12    21    22   ar
    13    22    23   ar
    14    23    24   ar
    15    24    25   ar
    16    25    26   ar
    17     5     6   ar
    18     6     7    1
    19     6     8   ar
    20     8     9   ar
    21     9    10   ar
    22    10    11   ar
    23    18    19   ar
    24    19    14   ar
    25    11     1   ar
    26    10     4   ar
    27    26    21   ar
    28    13    20    1
    29     7    12    1
