@<TRIPOS>MOLECULE
*****
 35 38 0 0 0
SMALL
GASTEIGER

@<TRIPOS>ATOM
      1 C          -7.9467  -15.4556   22.8120 C.3     1  UNL1        0.1556
      2 O          -8.0312  -14.5871   21.5919 O.3     1  UNL1       -0.3805
      3 H          -7.9469  -13.6562   21.8512 H       1  UNL1        0.2105
      4 C          -7.7587  -14.8334   24.1639 C.3     1  UNL1        0.1007
      5 N          -6.3852  -14.4480   24.6278 N.3     1  UNL1       -0.2972
      6 H          -6.0439  -13.7382   23.9796 H       1  UNL1        0.1233
      7 C          -4.7831  -15.0834   23.3910 C.3     1  UNL1        0.0161
      8 C          -5.3105  -15.4888   24.7354 C.3     1  UNL1        0.0461
      9 C          -5.8378  -15.8943   26.0799 C.3     1  UNL1        0.0161
     10 C          -4.2357  -16.5297   24.8431 C.3     1  UNL1        0.0408
     11 C          -3.9756  -17.4606   23.6960 C.ar    1  UNL1       -0.0209
     12 C          -2.6013  -17.5533   23.1021 C.ar    1  UNL1       -0.0042
     13 C          -2.3412  -18.4842   21.9551 C.ar    1  UNL1       -0.0003
     14 C          -3.4554  -19.3225   21.4019 C.ar    1  UNL1       -0.0000
     15 C          -3.1952  -20.2534   20.2549 C.ar    1  UNL1       -0.0000
     16 C          -4.3094  -21.0917   19.7019 C.ar    1  UNL1       -0.0000
     17 C          -5.6837  -20.9991   20.2958 C.ar    1  UNL1       -0.0000
     18 C          -5.9438  -20.0682   21.4428 C.ar    1  UNL1       -0.0000
     19 C          -4.8297  -19.2299   21.9959 C.ar    1  UNL1       -0.0003
     20 C          -5.0898  -18.2989   23.1430 C.ar    1  UNL1       -0.0042
     21 C          -8.0500  -16.9462   22.6803 C.3     1  UNL1        0.1729
     22 O          -8.2265  -17.5690   21.3272 O.3     1  UNL1       -0.3492
     23 C          -9.4851  -18.3190   21.0051 C.3     1  UNL1        0.1375
     24 C         -10.7095  -18.1271   21.8501 C.ar    1  UNL1        0.0056
     25 C         -10.9744  -19.0452   23.0063 C.ar    1  UNL1       -0.0019
     26 C         -12.1988  -18.8533   23.8512 C.ar    1  UNL1       -0.0002
     27 C         -13.1585  -17.7432   23.5399 C.ar    1  UNL1        0.0000
     28 C         -12.8936  -16.8251   22.3837 C.ar    1  UNL1        0.0009
     29 C         -11.6691  -17.0170   21.5387 C.ar    1  UNL1        0.0123
     30 C         -11.4042  -16.0989   20.3825 C.2     1  UNL1        0.0726
     31 O         -10.2539  -15.2186   19.9932 O.co2   1  UNL1       -0.5446
     32 O         -12.4354  -15.9319   19.3059 O.co2   1  UNL1       -0.5446
     33 C          -9.5192  -19.2609   19.8382 C.3     1  UNL1        0.0315
     34 C          -8.7991  -20.1010   18.8255 C.3     1  UNL1        0.0028
     35 C         -10.2983  -20.0520   18.8298 C.3     1  UNL1        0.0028
@<TRIPOS>UNITY_ATOM_ATTR
31 1
charge -1
@<TRIPOS>BOND
     1     7     8    1
     2     8     9    1
     3     8    10    1
     4    10    11    1
     5    11    12   ar
     6    12    13   ar
     7    13    14   ar
     8    14    15   ar
     9    15    16   ar
    10    16    17   ar
    11    17    18   ar
    12    18    19   ar
    13    19    20   ar
    14     8     5    1
    15     5     4    1
    16     4     1    1
    17     1     2    1
    18     1    21    1
    19    21    22    1
    20    22    23    1
    21    23    24    1
    22    24    25   ar
    23    25    26   ar
    24    26    27   ar
    25    27    28   ar
    26    28    29   ar
    27    29    30    1
    28    30    31   ar
    29    30    32   ar
    30    23    33    1
    31    33    34    1
    32    34    35    1
    33    20    11   ar
    34    29    24   ar
    35    35    33    1
    36    19    14   ar
    37     5     6    1
    38     2     3    1
@<TRIPOS>MOLECULE
*****
 35 38 0 0 0
SMALL
GASTEIGER

@<TRIPOS>ATOM
      1 C         -10.9085  -16.9013   21.0094 C.3     1  UNL1        0.1556
      2 O         -10.6711  -15.9172   19.9024 O.3     1  UNL1       -0.3805
      3 H         -10.2486  -16.3677   19.1544 H       1  UNL1        0.2105
      4 C         -10.4997  -18.3345   20.8393 C.3     1  UNL1        0.1007
      5 N          -9.5831  -18.7249   19.7179 N.3     1  UNL1       -0.2972
      6 H         -10.1596  -19.1837   19.0125 H       1  UNL1        0.1233
      7 C          -8.7710  -19.6595   21.4403 C.3     1  UNL1        0.0161
      8 C          -8.4186  -19.6325   19.9826 C.3     1  UNL1        0.0461
      9 C          -8.0662  -19.6055   18.5248 C.3     1  UNL1        0.0161
     10 C          -7.2540  -20.5402   20.2472 C.3     1  UNL1        0.0408
     11 C          -5.9341  -19.9638   20.6666 C.ar    1  UNL1       -0.0209
     12 C          -5.6042  -19.8277   22.1236 C.ar    1  UNL1       -0.0042
     13 C          -4.2844  -19.2514   22.5430 C.ar    1  UNL1       -0.0003
     14 C          -3.2945  -18.8113   21.5055 C.ar    1  UNL1       -0.0000
     15 C          -1.9746  -18.2350   21.9249 C.ar    1  UNL1       -0.0000
     16 C          -0.9848  -17.7948   20.8874 C.ar    1  UNL1       -0.0000
     17 C          -1.3147  -17.9310   19.4305 C.ar    1  UNL1       -0.0000
     18 C          -2.6346  -18.5072   19.0111 C.ar    1  UNL1       -0.0000
     19 C          -3.6244  -18.9474   20.0486 C.ar    1  UNL1       -0.0003
     20 C          -4.9443  -19.5237   19.6292 C.ar    1  UNL1       -0.0042
     21 C         -11.5546  -16.4522   22.2864 C.3     1  UNL1        0.1729
     22 O         -10.7170  -15.8712   23.3868 O.3     1  UNL1       -0.3492
     23 C          -9.8423  -16.7649   24.2152 C.3     1  UNL1        0.1375
     24 C          -8.5556  -16.2405   24.7803 C.ar    1  UNL1        0.0056
     25 C          -8.3385  -16.2272   26.2645 C.ar    1  UNL1       -0.0019
     26 C          -7.0517  -15.7028   26.8295 C.ar    1  UNL1       -0.0002
     27 C          -5.9820  -15.1918   25.9104 C.ar    1  UNL1        0.0000
     28 C          -6.1991  -15.2051   24.4263 C.ar    1  UNL1        0.0009
     29 C          -7.4859  -15.7295   23.8612 C.ar    1  UNL1        0.0123
     30 C          -7.7031  -15.7429   22.3771 C.2     1  UNL1        0.0726
     31 O          -8.1842  -14.7258   21.3852 O.co2   1  UNL1       -0.5446
     32 O          -7.4138  -16.9854   21.5880 O.co2   1  UNL1       -0.5446
     33 C         -10.2544  -18.1829   24.4786 C.3     1  UNL1        0.0315
     34 C         -11.3056  -19.2528   24.4715 C.3     1  UNL1        0.0028
     35 C          -9.9168  -19.5691   24.9418 C.3     1  UNL1        0.0028
@<TRIPOS>UNITY_ATOM_ATTR
31 1
charge -1
@<TRIPOS>BOND
     1     7     8    1
     2     8     9    1
     3     8    10    1
     4    10    11    1
     5    11    12   ar
     6    12    13   ar
     7    13    14   ar
     8    14    15   ar
     9    15    16   ar
    10    16    17   ar
    11    17    18   ar
    12    18    19   ar
    13    19    20   ar
    14     8     5    1
    15     5     4    1
    16     4     1    1
    17     1     2    1
    18     1    21    1
    19    21    22    1
    20    22    23    1
    21    23    24    1
    22    24    25   ar
    23    25    26   ar
    24    26    27   ar
    25    27    28   ar
    26    28    29   ar
    27    29    30    1
    28    30    31   ar
    29    30    32   ar
    30    23    33    1
    31    33    34    1
    32    34    35    1
    33    20    11   ar
    34    29    24   ar
    35    35    33    1
    36    19    14   ar
    37     5     6    1
    38     2     3    1
@<TRIPOS>MOLECULE
*****
 35 38 0 0 0
SMALL
GASTEIGER

@<TRIPOS>ATOM
      1 C         -11.0216  -16.7336   21.3759 C.3     1  UNL1        0.1556
      2 O         -11.3020  -15.7295   20.2973 O.3     1  UNL1       -0.3805
      3 H         -11.1383  -16.1321   19.4302 H       1  UNL1        0.2105
      4 C         -10.5629  -18.1150   21.0136 C.3     1  UNL1        0.1007
      5 N          -9.5930  -18.3117   19.8863 N.3     1  UNL1       -0.2972
      6 H         -10.1388  -18.6054   19.0761 H       1  UNL1        0.1233
      7 C          -7.9731  -18.5505   21.2348 C.3     1  UNL1        0.0161
      8 C          -8.4668  -19.2923   20.0283 C.3     1  UNL1        0.0461
      9 C          -8.9606  -20.0341   18.8217 C.3     1  UNL1        0.0161
     10 C          -7.3407  -20.2729   20.1703 C.3     1  UNL1        0.0408
     11 C          -5.9777  -19.7960   20.5766 C.ar    1  UNL1       -0.0209
     12 C          -5.5425  -19.9006   22.0083 C.ar    1  UNL1       -0.0042
     13 C          -4.1797  -19.4237   22.4146 C.ar    1  UNL1       -0.0003
     14 C          -3.2519  -18.8423   21.3893 C.ar    1  UNL1       -0.0000
     15 C          -1.8890  -18.3654   21.7957 C.ar    1  UNL1       -0.0000
     16 C          -0.9614  -17.7840   20.7703 C.ar    1  UNL1       -0.0000
     17 C          -1.3966  -17.6794   19.3387 C.ar    1  UNL1       -0.0000
     18 C          -2.7594  -18.1562   18.9323 C.ar    1  UNL1       -0.0000
     19 C          -3.6871  -18.7377   19.9576 C.ar    1  UNL1       -0.0003
     20 C          -5.0500  -19.2146   19.5513 C.ar    1  UNL1       -0.0042
     21 C         -11.1999  -16.3563   22.8166 C.3     1  UNL1        0.1729
     22 O         -10.0333  -15.8423   23.6072 O.3     1  UNL1       -0.3492
     23 C          -9.0632  -16.8054   24.2249 C.3     1  UNL1        0.1375
     24 C          -7.6574  -16.3707   24.5161 C.ar    1  UNL1        0.0056
     25 C          -6.6110  -16.4487   23.4442 C.ar    1  UNL1       -0.0019
     26 C          -5.2052  -16.0141   23.7354 C.ar    1  UNL1       -0.0002
     27 C          -4.8458  -15.5014   25.0985 C.ar    1  UNL1        0.0000
     28 C          -5.8923  -15.4234   26.1704 C.ar    1  UNL1        0.0009
     29 C          -7.2981  -15.8581   25.8791 C.ar    1  UNL1        0.0123
     30 C          -8.3445  -15.7801   26.9510 C.2     1  UNL1        0.0726
     31 O          -9.0749  -14.6501   27.6139 O.co2   1  UNL1       -0.5446
     32 O          -8.8636  -17.0364   27.5853 O.co2   1  UNL1       -0.5446
     33 C          -9.4989  -18.2031   24.5513 C.3     1  UNL1        0.0315
     34 C          -9.4793  -19.6730   24.2529 C.3     1  UNL1        0.0028
     35 C         -10.2732  -19.1541   25.4150 C.3     1  UNL1        0.0028
@<TRIPOS>UNITY_ATOM_ATTR
31 1
charge -1
@<TRIPOS>BOND
     1     7     8    1
     2     8     9    1
     3     8    10    1
     4    10    11    1
     5    11    12   ar
     6    12    13   ar
     7    13    14   ar
     8    14    15   ar
     9    15    16   ar
    10    16    17   ar
    11    17    18   ar
    12    18    19   ar
    13    19    20   ar
    14     8     5    1
    15     5     4    1
    16     4     1    1
    17     1     2    1
    18     1    21    1
    19    21    22    1
    20    22    23    1
    21    23    24    1
    22    24    25   ar
    23    25    26   ar
    24    26    27   ar
    25    27    28   ar
    26    28    29   ar
    27    29    30    1
    28    30    31   ar
    29    30    32   ar
    30    23    33    1
    31    33    34    1
    32    34    35    1
    33    20    11   ar
    34    29    24   ar
    35    35    33    1
    36    19    14   ar
    37     5     6    1
    38     2     3    1
@<TRIPOS>MOLECULE
*****
 35 38 0 0 0
SMALL
GASTEIGER

@<TRIPOS>ATOM
      1 C          -8.4910  -16.1401   25.1254 C.3     1  UNL1        0.1556
      2 O          -9.0942  -17.3107   25.8436 O.3     1  UNL1       -0.3805
      3 H          -8.8499  -17.2753   26.7817 H       1  UNL1        0.2105
      4 C          -7.6576  -15.1461   25.8789 C.3     1  UNL1        0.1007
      5 N          -6.3273  -14.7169   25.3345 N.3     1  UNL1       -0.2972
      6 H          -6.5062  -14.2800   24.4304 H       1  UNL1        0.1233
      7 C          -5.1261  -15.3004   23.6864 C.3     1  UNL1        0.0161
      8 C          -5.2430  -15.7306   25.1186 C.3     1  UNL1        0.0461
      9 C          -5.3599  -16.1608   26.5508 C.3     1  UNL1        0.0161
     10 C          -4.1586  -16.7443   24.9026 C.3     1  UNL1        0.0408
     11 C          -3.9391  -17.3287   23.5387 C.ar    1  UNL1       -0.0209
     12 C          -4.9024  -18.3406   22.9924 C.ar    1  UNL1       -0.0042
     13 C          -4.6829  -18.9250   21.6285 C.ar    1  UNL1       -0.0003
     14 C          -3.5002  -18.4976   20.8108 C.ar    1  UNL1       -0.0000
     15 C          -3.2808  -19.0821   19.4469 C.ar    1  UNL1       -0.0000
     16 C          -2.0981  -18.6547   18.6293 C.ar    1  UNL1       -0.0000
     17 C          -1.1348  -17.6429   19.1756 C.ar    1  UNL1       -0.0000
     18 C          -1.3543  -17.0584   20.5394 C.ar    1  UNL1       -0.0000
     19 C          -2.5370  -17.4858   21.3571 C.ar    1  UNL1       -0.0003
     20 C          -2.7565  -16.9014   22.7210 C.ar    1  UNL1       -0.0042
     21 C          -8.7210  -15.9634   23.6537 C.3     1  UNL1        0.1729
     22 O          -8.3119  -17.0426   22.6957 O.3     1  UNL1       -0.3492
     23 C          -9.3535  -17.9120   22.0559 C.3     1  UNL1        0.1375
     24 C         -10.7525  -17.9277   22.5966 C.ar    1  UNL1        0.0056
     25 C         -11.0740  -18.7305   23.8223 C.ar    1  UNL1       -0.0019
     26 C         -12.4730  -18.7462   24.3630 C.ar    1  UNL1       -0.0002
     27 C         -13.5507  -17.9591   23.6780 C.ar    1  UNL1        0.0000
     28 C         -13.2293  -17.1563   22.4523 C.ar    1  UNL1        0.0009
     29 C         -11.8301  -17.1407   21.9117 C.ar    1  UNL1        0.0123
     30 C         -11.5087  -16.3379   20.6860 C.2     1  UNL1        0.0726
     31 O         -12.1163  -16.2354   19.3185 O.co2   1  UNL1       -0.5446
     32 O         -10.3475  -15.3883   20.6946 O.co2   1  UNL1       -0.5446
     33 C          -8.9960  -18.7657   20.8755 C.3     1  UNL1        0.0315
     34 C          -7.9997  -19.6089   20.1364 C.3     1  UNL1        0.0028
     35 C          -9.3731  -19.4010   19.5701 C.3     1  UNL1        0.0028
@<TRIPOS>UNITY_ATOM_ATTR
31 1
charge -1
@<TRIPOS>BOND
     1     7     8    1
     2     8     9    1
     3     8    10    1
     4    10    11    1
     5    11    12   ar
     6    12    13   ar
     7    13    14   ar
     8    14    15   ar
     9    15    16   ar
    10    16    17   ar
    11    17    18   ar
    12    18    19   ar
    13    19    20   ar
    14     8     5    1
    15     5     4    1
    16     4     1    1
    17     1     2    1
    18     1    21    1
    19    21    22    1
    20    22    23    1
    21    23    24    1
    22    24    25   ar
    23    25    26   ar
    24    26    27   ar
    25    27    28   ar
    26    28    29   ar
    27    29    30    1
    28    30    31   ar
    29    30    32   ar
    30    23    33    1
    31    33    34    1
    32    34    35    1
    33    20    11   ar
    34    29    24   ar
    35    35    33    1
    36    19    14   ar
    37     5     6    1
    38     2     3    1
@<TRIPOS>MOLECULE
*****
 35 38 0 0 0
SMALL
GASTEIGER

@<TRIPOS>ATOM
      1 C          -8.5239  -16.2328   25.0985 C.3     1  UNL1        0.1556
      2 O          -9.1903  -17.3550   25.8380 O.3     1  UNL1       -0.3805
      3 H          -8.9888  -17.2834   26.7841 H       1  UNL1        0.2105
      4 C          -7.7005  -15.2265   25.8464 C.3     1  UNL1        0.1007
      5 N          -6.4047  -14.7394   25.2686 N.3     1  UNL1       -0.2972
      6 H          -6.6188  -14.3544   24.3486 H       1  UNL1        0.1233
      7 C          -5.1201  -15.2466   23.6584 C.3     1  UNL1        0.0161
      8 C          -5.2609  -15.6921   25.0838 C.3     1  UNL1        0.0461
      9 C          -5.4016  -16.1375   26.5092 C.3     1  UNL1        0.0161
     10 C          -4.1170  -16.6447   24.8991 C.3     1  UNL1        0.0408
     11 C          -3.8484  -17.2413   23.5492 C.ar    1  UNL1       -0.0209
     12 C          -4.7441  -18.3189   23.0139 C.ar    1  UNL1       -0.0042
     13 C          -4.4755  -18.9156   21.6642 C.ar    1  UNL1       -0.0003
     14 C          -3.3113  -18.4346   20.8497 C.ar    1  UNL1       -0.0000
     15 C          -3.0428  -19.0313   19.4999 C.ar    1  UNL1       -0.0000
     16 C          -1.8786  -18.5503   18.6855 C.ar    1  UNL1       -0.0000
     17 C          -0.9829  -17.4727   19.2209 C.ar    1  UNL1       -0.0000
     18 C          -1.2515  -16.8761   20.5706 C.ar    1  UNL1       -0.0000
     19 C          -2.4157  -17.3570   21.3850 C.ar    1  UNL1       -0.0003
     20 C          -2.6842  -16.7604   22.7348 C.ar    1  UNL1       -0.0042
     21 C          -8.6810  -16.1170   23.6113 C.3     1  UNL1        0.1729
     22 O          -8.0171  -17.1129   22.7072 O.3     1  UNL1       -0.3492
     23 C          -8.8432  -17.9402   21.7675 C.3     1  UNL1        0.1375
     24 C         -10.3348  -17.7835   21.7436 C.ar    1  UNL1        0.0056
     25 C         -10.9749  -16.8462   20.7629 C.ar    1  UNL1       -0.0019
     26 C         -12.4664  -16.6894   20.7390 C.ar    1  UNL1       -0.0002
     27 C         -13.3180  -17.4700   21.6959 C.ar    1  UNL1        0.0000
     28 C         -12.6780  -18.4072   22.6767 C.ar    1  UNL1        0.0009
     29 C         -11.1863  -18.5640   22.7005 C.ar    1  UNL1        0.0123
     30 C         -10.5463  -19.5012   23.6813 C.2     1  UNL1        0.0726
     31 O          -9.5203  -20.5893   23.5656 O.co2   1  UNL1       -0.5446
     32 O         -10.9262  -19.4437   25.1313 O.co2   1  UNL1       -0.5446
     33 C          -8.1778  -18.9243   20.8516 C.3     1  UNL1        0.0315
     34 C          -7.1818  -20.0235   20.6288 C.3     1  UNL1        0.0028
     35 C          -8.0211  -19.5294   19.4881 C.3     1  UNL1        0.0028
@<TRIPOS>UNITY_ATOM_ATTR
31 1
charge -1
@<TRIPOS>BOND
     1     7     8    1
     2     8     9    1
     3     8    10    1
     4    10    11    1
     5    11    12   ar
     6    12    13   ar
     7    13    14   ar
     8    14    15   ar
     9    15    16   ar
    10    16    17   ar
    11    17    18   ar
    12    18    19   ar
    13    19    20   ar
    14     8     5    1
    15     5     4    1
    16     4     1    1
    17     1     2    1
    18     1    21    1
    19    21    22    1
    20    22    23    1
    21    23    24    1
    22    24    25   ar
    23    25    26   ar
    24    26    27   ar
    25    27    28   ar
    26    28    29   ar
    27    29    30    1
    28    30    31   ar
    29    30    32   ar
    30    23    33    1
    31    33    34    1
    32    34    35    1
    33    20    11   ar
    34    29    24   ar
    35    35    33    1
    36    19    14   ar
    37     5     6    1
    38     2     3    1
@<TRIPOS>MOLECULE
*****
 35 38 0 0 0
SMALL
GASTEIGER

@<TRIPOS>ATOM
      1 C         -10.5936  -15.9688   19.8344 C.3     1  UNL1        0.1556
      2 O         -11.1349  -15.0560   18.7742 O.3     1  UNL1       -0.3805
      3 H         -11.7589  -15.5444   18.2147 H       1  UNL1        0.2105
      4 C         -11.0436  -17.3984   19.8943 C.3     1  UNL1        0.1007
      5 N         -10.2336  -18.4684   19.2240 N.3     1  UNL1       -0.2972
      6 H         -10.8889  -19.0502   18.7019 H       1  UNL1        0.1233
      7 C         -10.4845  -19.4843   21.0693 C.3     1  UNL1        0.0161
      8 C          -9.3906  -19.3971   20.0467 C.3     1  UNL1        0.0461
      9 C          -8.2967  -19.3099   19.0241 C.3     1  UNL1        0.0161
     10 C          -8.5475  -20.3258   20.8694 C.3     1  UNL1        0.0408
     11 C          -7.0731  -20.0826   21.0005 C.ar    1  UNL1       -0.0209
     12 C          -6.1055  -20.8782   20.1754 C.ar    1  UNL1       -0.0042
     13 C          -4.6312  -20.6351   20.3064 C.ar    1  UNL1       -0.0003
     14 C          -4.1244  -19.5963   21.2626 C.ar    1  UNL1       -0.0000
     15 C          -2.6501  -19.3532   21.3936 C.ar    1  UNL1       -0.0000
     16 C          -2.1434  -18.3144   22.3497 C.ar    1  UNL1       -0.0000
     17 C          -3.1110  -17.5188   23.1747 C.ar    1  UNL1       -0.0000
     18 C          -4.5853  -17.7619   23.0437 C.ar    1  UNL1       -0.0000
     19 C          -5.0920  -18.8007   22.0876 C.ar    1  UNL1       -0.0003
     20 C          -6.5664  -19.0438   21.9565 C.ar    1  UNL1       -0.0042
     21 C          -9.6024  -15.4519   20.8345 C.3     1  UNL1        0.1729
     22 O          -9.0010  -16.3834   21.8448 O.3     1  UNL1       -0.3492
     23 C          -9.5544  -16.4373   23.2380 C.3     1  UNL1        0.1375
     24 C         -10.9352  -16.9726   23.4763 C.ar    1  UNL1        0.0056
     25 C         -12.1267  -16.2452   22.9275 C.ar    1  UNL1       -0.0019
     26 C         -13.5075  -16.7805   23.1659 C.ar    1  UNL1       -0.0002
     27 C         -13.6968  -18.0432   23.9531 C.ar    1  UNL1        0.0000
     28 C         -12.5053  -18.7707   24.5019 C.ar    1  UNL1        0.0009
     29 C         -11.1245  -18.2353   24.2635 C.ar    1  UNL1        0.0123
     30 C          -9.9330  -18.9627   24.8123 C.2     1  UNL1        0.0726
     31 O          -9.0361  -20.0420   24.2826 O.co2   1  UNL1       -0.5446
     32 O          -9.4206  -18.6354   26.1836 O.co2   1  UNL1       -0.5446
     33 C          -8.7269  -15.9560   24.3928 C.3     1  UNL1        0.0315
     34 C          -8.6325  -15.3093   25.7429 C.3     1  UNL1        0.0028
     35 C          -7.3881  -15.7689   25.0428 C.3     1  UNL1        0.0028
@<TRIPOS>UNITY_ATOM_ATTR
31 1
charge -1
@<TRIPOS>BOND
     1     7     8    1
     2     8     9    1
     3     8    10    1
     4    10    11    1
     5    11    12   ar
     6    12    13   ar
     7    13    14   ar
     8    14    15   ar
     9    15    16   ar
    10    16    17   ar
    11    17    18   ar
    12    18    19   ar
    13    19    20   ar
    14     8     5    1
    15     5     4    1
    16     4     1    1
    17     1     2    1
    18     1    21    1
    19    21    22    1
    20    22    23    1
    21    23    24    1
    22    24    25   ar
    23    25    26   ar
    24    26    27   ar
    25    27    28   ar
    26    28    29   ar
    27    29    30    1
    28    30    31   ar
    29    30    32   ar
    30    23    33    1
    31    33    34    1
    32    34    35    1
    33    20    11   ar
    34    29    24   ar
    35    35    33    1
    36    19    14   ar
    37     5     6    1
    38     2     3    1
@<TRIPOS>MOLECULE
*****
 35 38 0 0 0
SMALL
GASTEIGER

@<TRIPOS>ATOM
      1 C          -7.9884  -15.5620   26.5490 C.3     1  UNL1        0.1556
      2 O          -8.8586  -15.1444   27.6972 O.3     1  UNL1       -0.3805
      3 H          -8.4307  -14.4204   28.1805 H       1  UNL1        0.2105
      4 C          -6.6790  -14.8702   26.3099 C.3     1  UNL1        0.1007
      5 N          -6.0548  -14.8967   24.9462 N.3     1  UNL1       -0.2972
      6 H          -6.7824  -15.1916   24.2950 H       1  UNL1        0.1233
      7 C          -4.8007  -15.2595   23.2742 C.3     1  UNL1        0.0161
      8 C          -4.8610  -15.7665   24.6846 C.3     1  UNL1        0.0461
      9 C          -4.9214  -16.2736   26.0950 C.3     1  UNL1        0.0161
     10 C          -3.6673  -16.6363   24.4230 C.3     1  UNL1        0.0408
     11 C          -3.6754  -17.5934   23.2679 C.ar    1  UNL1       -0.0209
     12 C          -2.4818  -17.6885   22.3645 C.ar    1  UNL1       -0.0042
     13 C          -2.4898  -18.6455   21.2094 C.ar    1  UNL1       -0.0003
     14 C          -3.6915  -19.5074   20.9578 C.ar    1  UNL1       -0.0000
     15 C          -3.6995  -20.4643   19.8028 C.ar    1  UNL1       -0.0000
     16 C          -4.9011  -21.3261   19.5512 C.ar    1  UNL1       -0.0000
     17 C          -6.0947  -21.2309   20.4546 C.ar    1  UNL1       -0.0000
     18 C          -6.0867  -20.2740   21.6097 C.ar    1  UNL1       -0.0000
     19 C          -4.8851  -19.4122   21.8612 C.ar    1  UNL1       -0.0003
     20 C          -4.8770  -18.4551   23.0163 C.ar    1  UNL1       -0.0042
     21 C          -8.4275  -16.6713   25.6398 C.3     1  UNL1        0.1729
     22 O          -9.8299  -16.6947   25.1082 O.3     1  UNL1       -0.3492
     23 C         -10.1994  -17.6456   24.0085 C.3     1  UNL1        0.1375
     24 C         -10.8978  -17.1386   22.7817 C.ar    1  UNL1        0.0056
     25 C         -12.3794  -17.3195   22.6334 C.ar    1  UNL1       -0.0019
     26 C         -13.0779  -16.8125   21.4066 C.ar    1  UNL1       -0.0002
     27 C         -12.2947  -16.1245   20.3280 C.ar    1  UNL1        0.0000
     28 C         -10.8130  -15.9435   20.4763 C.ar    1  UNL1        0.0009
     29 C         -10.1146  -16.4506   21.7032 C.ar    1  UNL1        0.0123
     30 C          -8.6329  -16.2696   21.8515 C.2     1  UNL1        0.0726
     31 O          -7.4391  -17.0925   21.4675 O.co2   1  UNL1       -0.5446
     32 O          -8.0903  -15.0370   22.5121 O.co2   1  UNL1       -0.5446
     33 C          -9.8704  -19.1035   24.1357 C.3     1  UNL1        0.0315
     34 C          -9.9916  -20.4028   24.8753 C.3     1  UNL1        0.0028
     35 C          -9.1794  -20.3294   23.6164 C.3     1  UNL1        0.0028
@<TRIPOS>UNITY_ATOM_ATTR
31 1
charge -1
@<TRIPOS>BOND
     1     7     8    1
     2     8     9    1
     3     8    10    1
     4    10    11    1
     5    11    12   ar
     6    12    13   ar
     7    13    14   ar
     8    14    15   ar
     9    15    16   ar
    10    16    17   ar
    11    17    18   ar
    12    18    19   ar
    13    19    20   ar
    14     8     5    1
    15     5     4    1
    16     4     1    1
    17     1     2    1
    18     1    21    1
    19    21    22    1
    20    22    23    1
    21    23    24    1
    22    24    25   ar
    23    25    26   ar
    24    26    27   ar
    25    27    28   ar
    26    28    29   ar
    27    29    30    1
    28    30    31   ar
    29    30    32   ar
    30    23    33    1
    31    33    34    1
    32    34    35    1
    33    20    11   ar
    34    29    24   ar
    35    35    33    1
    36    19    14   ar
    37     5     6    1
    38     2     3    1
@<TRIPOS>MOLECULE
*****
 35 38 0 0 0
SMALL
GASTEIGER

@<TRIPOS>ATOM
      1 C           4.6853   -0.9013   17.1471 C.3     1  UNL1        0.1556
      2 O           3.6135   -1.2413   16.1543 O.3     1  UNL1       -0.3805
      3 H           3.5024   -2.2042   16.1154 H       1  UNL1        0.2105
      4 C           5.3917   -1.9948   17.8922 C.3     1  UNL1        0.1007
      5 N           4.6680   -3.2669   18.2211 N.3     1  UNL1       -0.2972
      6 H           3.6845   -3.1118   17.9998 H       1  UNL1        0.1233
      7 C           6.0564   -3.1767   19.8224 C.3     1  UNL1        0.0161
      8 C           4.7165   -3.8184   19.6152 C.3     1  UNL1        0.0461
      9 C           3.3766   -4.4601   19.4079 C.3     1  UNL1        0.0161
     10 C           4.7650   -4.3699   21.0093 C.3     1  UNL1        0.0408
     11 C           4.7617   -3.4382   22.1849 C.ar    1  UNL1       -0.0209
     12 C           5.7879   -3.5937   23.2679 C.ar    1  UNL1       -0.0042
     13 C           5.7848   -2.6621   24.4435 C.ar    1  UNL1       -0.0003
     14 C           4.7554   -1.5749   24.5361 C.ar    1  UNL1       -0.0000
     15 C           4.7522   -0.6433   25.7117 C.ar    1  UNL1       -0.0000
     16 C           3.7229    0.4438   25.8043 C.ar    1  UNL1       -0.0000
     17 C           2.6967    0.5993   24.7214 C.ar    1  UNL1       -0.0000
     18 C           2.6999   -0.3323   23.5458 C.ar    1  UNL1       -0.0000
     19 C           3.7292   -1.4194   23.4532 C.ar    1  UNL1       -0.0003
     20 C           3.7324   -2.3511   22.2775 C.ar    1  UNL1       -0.0042
     21 C           5.0508    0.5323   17.3947 C.3     1  UNL1        0.1729
     22 O           4.2134    1.3718   18.3133 O.3     1  UNL1       -0.3492
     23 C           3.8425    0.8553   19.6720 C.3     1  UNL1        0.1375
     24 C           4.7798    1.0441   20.8277 C.ar    1  UNL1        0.0056
     25 C           5.9514    0.1237   21.0013 C.ar    1  UNL1       -0.0019
     26 C           6.8887    0.3125   22.1570 C.ar    1  UNL1       -0.0002
     27 C           6.6545    1.4218   23.1392 C.ar    1  UNL1        0.0000
     28 C           5.4829    2.3423   22.9656 C.ar    1  UNL1        0.0009
     29 C           4.5456    2.1534   21.8098 C.ar    1  UNL1        0.0123
     30 C           3.3740    3.0739   21.6362 C.2     1  UNL1        0.0726
     31 O           1.9521    3.0521   22.1132 O.co2   1  UNL1       -0.5446
     32 O           3.5203    4.3302   20.8297 O.co2   1  UNL1       -0.5446
     33 C           2.5343    0.1500   19.8748 C.3     1  UNL1        0.0315
     34 C           1.7295   -1.1157   19.8894 C.3     1  UNL1        0.0028
     35 C           1.0733    0.1941   20.2114 C.3     1  UNL1        0.0028
@<TRIPOS>UNITY_ATOM_ATTR
31 1
charge -1
@<TRIPOS>BOND
     1     7     8    1
     2     8     9    1
     3     8    10    1
     4    10    11    1
     5    11    12   ar
     6    12    13   ar
     7    13    14   ar
     8    14    15   ar
     9    15    16   ar
    10    16    17   ar
    11    17    18   ar
    12    18    19   ar
    13    19    20   ar
    14     8     5    1
    15     5     4    1
    16     4     1    1
    17     1     2    1
    18     1    21    1
    19    21    22    1
    20    22    23    1
    21    23    24    1
    22    24    25   ar
    23    25    26   ar
    24    26    27   ar
    25    27    28   ar
    26    28    29   ar
    27    29    30    1
    28    30    31   ar
    29    30    32   ar
    30    23    33    1
    31    33    34    1
    32    34    35    1
    33    20    11   ar
    34    29    24   ar
    35    35    33    1
    36    19    14   ar
    37     5     6    1
    38     2     3    1
@<TRIPOS>MOLECULE
*****
 35 38 0 0 0
SMALL
GASTEIGER

@<TRIPOS>ATOM
      1 C           5.0931   -0.9545   17.2256 C.3     1  UNL1        0.1556
      2 O           3.9066   -1.1983   16.3408 O.3     1  UNL1       -0.3805
      3 H           3.6820   -2.1418   16.3537 H       1  UNL1        0.2105
      4 C           5.7307   -2.0983   17.9572 C.3     1  UNL1        0.1007
      5 N           4.9615   -3.3661   18.1831 N.3     1  UNL1       -0.2972
      6 H           4.0422   -3.2318   17.7620 H       1  UNL1        0.1233
      7 C           6.1614   -3.5742   19.9200 C.3     1  UNL1        0.0161
      8 C           4.7298   -3.8642   19.5789 C.3     1  UNL1        0.0461
      9 C           3.2982   -4.1542   19.2378 C.3     1  UNL1        0.0161
     10 C           4.4981   -4.3623   20.9747 C.3     1  UNL1        0.0408
     11 C           4.6140   -3.4201   22.1362 C.ar    1  UNL1       -0.0209
     12 C           5.6626   -3.6473   23.1844 C.ar    1  UNL1       -0.0042
     13 C           5.7785   -2.7052   24.3458 C.ar    1  UNL1       -0.0003
     14 C           4.8459   -1.5358   24.4590 C.ar    1  UNL1       -0.0000
     15 C           4.9619   -0.5936   25.6204 C.ar    1  UNL1       -0.0000
     16 C           4.0293    0.5757   25.7335 C.ar    1  UNL1       -0.0000
     17 C           2.9807    0.8029   24.6853 C.ar    1  UNL1       -0.0000
     18 C           2.8647   -0.1392   23.5239 C.ar    1  UNL1       -0.0000
     19 C           3.7973   -1.3085   23.4107 C.ar    1  UNL1       -0.0003
     20 C           3.6814   -2.2507   22.2493 C.ar    1  UNL1       -0.0042
     21 C           5.6420    0.4330   17.3788 C.3     1  UNL1        0.1729
     22 O           4.9976    1.3933   18.3342 O.3     1  UNL1       -0.3492
     23 C           4.5840    0.9290   19.6993 C.3     1  UNL1        0.1375
     24 C           3.1295    0.7653   20.0271 C.ar    1  UNL1        0.0056
     25 C           2.4420   -0.5401   19.7561 C.ar    1  UNL1       -0.0019
     26 C           0.9875   -0.7039   20.0838 C.ar    1  UNL1       -0.0002
     27 C           0.2203    0.4377   20.6825 C.ar    1  UNL1        0.0000
     28 C           0.9078    1.7430   20.9535 C.ar    1  UNL1        0.0009
     29 C           2.3625    1.9068   20.6257 C.ar    1  UNL1        0.0123
     30 C           3.0500    3.2121   20.8967 C.2     1  UNL1        0.0726
     31 O           3.2584    4.4653   20.0992 O.co2   1  UNL1       -0.5446
     32 O           3.7177    3.4478   22.2191 O.co2   1  UNL1       -0.5446
     33 C           5.6250    0.6286   20.7367 C.3     1  UNL1        0.0315
     34 C           6.7538   -0.2240   21.2354 C.3     1  UNL1        0.0028
     35 C           6.2992    0.9611   22.0347 C.3     1  UNL1        0.0028
@<TRIPOS>UNITY_ATOM_ATTR
31 1
charge -1
@<TRIPOS>BOND
     1     7     8    1
     2     8     9    1
     3     8    10    1
     4    10    11    1
     5    11    12   ar
     6    12    13   ar
     7    13    14   ar
     8    14    15   ar
     9    15    16   ar
    10    16    17   ar
    11    17    18   ar
    12    18    19   ar
    13    19    20   ar
    14     8     5    1
    15     5     4    1
    16     4     1    1
    17     1     2    1
    18     1    21    1
    19    21    22    1
    20    22    23    1
    21    23    24    1
    22    24    25   ar
    23    25    26   ar
    24    26    27   ar
    25    27    28   ar
    26    28    29   ar
    27    29    30    1
    28    30    31   ar
    29    30    32   ar
    30    23    33    1
    31    33    34    1
    32    34    35    1
    33    20    11   ar
    34    29    24   ar
    35    35    33    1
    36    19    14   ar
    37     5     6    1
    38     2     3    1
