@<TRIPOS>MOLECULE
*****
 41 44 0 0 0
SMALL
GASTEIGER

@<TRIPOS>ATOM
      1 C           3.9486   -1.6302   21.1537 C.ar    1  UNL1       -0.0041
      2 C           4.4637   -1.5909   22.5620 C.ar    1  UNL1        0.0028
      3 C           5.4373   -2.6299   23.0336 C.ar    1  UNL1        0.0381
      4 C           6.1130   -2.8457   24.3553 C.ar    1  UNL1        0.0969
      5 N           6.9892   -4.0573   24.2356 N.ar    1  UNL1       -0.2472
      6 N           6.8550   -4.5903   22.8399 N.ar    1  UNL1       -0.1690
      7 C           5.8958   -3.7081   22.0970 C.ar    1  UNL1        0.1021
      8 C           5.3808   -3.7473   20.6888 C.ar    1  UNL1        0.0166
      9 C           4.4072   -2.7083   20.2172 C.ar    1  UNL1       -0.0203
     10 C           3.8921   -2.7476   18.8088 C.3     1  UNL1        0.0311
     11 C           4.9514    0.9519   20.0016 C.3     1  UNL1        0.0310
     12 C           3.4763    0.7000   20.1059 C.ar    1  UNL1       -0.0219
     13 C           2.5027    1.7390   19.6343 C.ar    1  UNL1       -0.0004
     14 C           1.0277    1.4869   19.7386 C.ar    1  UNL1        0.0711
     15 C           0.5263    0.1959   20.3147 C.ar    1  UNL1        0.0038
     16 C           1.5000   -0.8431   20.7863 C.ar    1  UNL1       -0.0004
     17 C           2.9750   -0.5911   20.6820 C.ar    1  UNL1       -0.0043
     18 C           0.0541    2.5260   19.2669 C.3     1  UNL1        0.4186
     19 F          -0.9194    3.5650   18.7952 F       1  UNL1       -0.1659
     20 F           0.2788    2.0927   17.8486 F       1  UNL1       -0.1659
     21 F          -0.1706    2.9594   20.6852 F       1  UNL1       -0.1659
     22 C           7.8487   -4.6346   25.3209 C.3     1  UNL1        0.1274
     23 C           7.5998   -4.2623   26.7525 C.ar    1  UNL1       -0.0001
     24 C           6.7781   -5.1603   27.6292 C.ar    1  UNL1       -0.0023
     25 C           6.5293   -4.7880   29.0607 C.ar    1  UNL1        0.0042
     26 C           7.1022   -3.5176   29.6157 C.ar    1  UNL1        0.0533
     27 C           7.9238   -2.6195   28.7392 C.ar    1  UNL1        0.0042
     28 C           8.1726   -2.9919   27.3076 C.ar    1  UNL1       -0.0023
     29 C           6.8533   -3.1453   31.0473 C.2     1  UNL1        0.2459
     30 O           6.4767   -4.2025   32.0426 O.2     1  UNL1       -0.2701
     31 N           6.9811   -1.7159   31.4837 N.am    1  UNL1       -0.3005
     32 H           7.2282   -1.0220   30.8305 H       1  UNL1        0.1498
     33 C           6.7322   -1.3437   32.9153 C.3     1  UNL1        0.0956
     34 C           5.3892   -0.8212   33.3318 C.3     1  UNL1        0.0629
     35 C           4.1467   -1.5885   32.9892 C.2     1  UNL1        0.0520
     36 O           3.2423   -1.1021   31.8958 O.co2   1  UNL1       -0.5491
     37 O           3.8086   -2.8424   33.7399 O.co2   1  UNL1       -0.5491
     38 C           8.9570   -5.5841   24.9747 C.3     1  UNL1        0.0289
     39 C           8.6398   -6.9989   24.5901 C.3     1  UNL1        0.0023
     40 C           8.0012   -7.9215   25.5856 C.3     1  UNL1        0.0001
     41 C           8.9611   -7.4910   23.2100 C.3     1  UNL1        0.0001
@<TRIPOS>UNITY_ATOM_ATTR
36 1
charge -1
@<TRIPOS>BOND
     1    11    12    1
     2    12    13   ar
     3    13    14   ar
     4    14    18    1
     5    18    19    1
     6    18    20    1
     7    18    21    1
     8    14    15   ar
     9    15    16   ar
    10    16    17   ar
    11    17     1    1
    12     1     2   ar
    13     2     3   ar
    14     3     4   ar
    15     4     5   ar
    16     5    22    1
    17    22    38    1
    18    38    39    1
    19    39    40    1
    20    39    41    1
    21    22    23    1
    22    23    24   ar
    23    24    25   ar
    24    25    26   ar
    25    26    29    1
    26    29    30    2
    27    29    31   am
    28    31    33    1
    29    33    34    1
    30    34    35    1
    31    35    36   ar
    32    35    37   ar
    33    26    27   ar
    34    27    28   ar
    35     5     6   ar
    36     6     7   ar
    37     7     8   ar
    38     8     9   ar
    39     9    10    1
    40    17    12   ar
    41     9     1   ar
    42     7     3   ar
    43    28    23   ar
    44    31    32    1
@<TRIPOS>MOLECULE
*****
 41 44 0 0 0
SMALL
GASTEIGER

@<TRIPOS>ATOM
      1 C           3.1784    0.1402   22.5109 C.ar    1  UNL1       -0.0041
      2 C           2.2725   -0.0040   23.6978 C.ar    1  UNL1        0.0028
      3 C           1.9612    1.1885   24.5528 C.ar    1  UNL1        0.0381
      4 C           1.1091    1.3511   25.7765 C.ar    1  UNL1        0.0969
      5 N           1.1770    2.7881   26.2010 N.ar    1  UNL1       -0.2472
      6 N           2.0710    3.5137   25.2396 N.ar    1  UNL1       -0.1690
      7 C           2.5557    2.5251   24.2210 C.ar    1  UNL1        0.1021
      8 C           3.4615    2.6692   23.0341 C.ar    1  UNL1        0.0166
      9 C           3.7729    1.4767   22.1791 C.ar    1  UNL1       -0.0203
     10 C           4.6788    1.6209   20.9922 C.3     1  UNL1        0.0311
     11 C           1.6569   -0.3195   19.9665 C.3     1  UNL1        0.0310
     12 C           2.7290   -1.2822   20.3836 C.ar    1  UNL1       -0.0219
     13 C           3.0404   -2.4746   19.5286 C.ar    1  UNL1       -0.0004
     14 C           4.1125   -3.4372   19.9458 C.ar    1  UNL1        0.0711
     15 C           4.8732   -3.2074   21.2179 C.ar    1  UNL1        0.0038
     16 C           4.5618   -2.0149   22.0730 C.ar    1  UNL1       -0.0004
     17 C           3.4898   -1.0523   21.6558 C.ar    1  UNL1       -0.0043
     18 C           4.4238   -4.6297   19.0907 C.3     1  UNL1        0.4186
     19 F           4.7350   -5.8221   18.2357 F       1  UNL1       -0.1659
     20 F           3.5815   -5.4906   19.9847 F       1  UNL1       -0.1659
     21 F           5.2661   -3.7688   18.1966 F       1  UNL1       -0.1659
     22 C           0.4742    3.3934   27.3799 C.3     1  UNL1        0.1274
     23 C          -0.9048    3.9617   27.2204 C.ar    1  UNL1       -0.0001
     24 C          -2.0114    3.1047   26.6807 C.ar    1  UNL1       -0.0023
     25 C          -3.3903    3.6731   26.5213 C.ar    1  UNL1        0.0042
     26 C          -3.6628    5.0983   26.9014 C.ar    1  UNL1        0.0533
     27 C          -2.5562    5.9552   27.4411 C.ar    1  UNL1        0.0042
     28 C          -1.1772    5.3869   27.6006 C.ar    1  UNL1       -0.0023
     29 C          -5.0418    5.6665   26.7419 C.2     1  UNL1        0.2459
     30 O          -5.9332    5.8187   27.9386 O.2     1  UNL1       -0.2701
     31 N          -5.5293    6.0825   25.3858 N.am    1  UNL1       -0.3005
     32 H          -4.9442    5.9827   24.6003 H       1  UNL1        0.1498
     33 C          -6.9084    6.6508   25.2264 C.3     1  UNL1        0.0956
     34 C          -7.7904    6.1766   24.1096 C.3     1  UNL1        0.0629
     35 C          -7.8567    4.7159   23.7749 C.2     1  UNL1        0.0520
     36 O          -9.1647    3.9863   23.8569 O.co2   1  UNL1       -0.5491
     37 O          -6.6150    3.9849   23.3581 O.co2   1  UNL1       -0.5491
     38 C           1.1505    3.4305   28.7183 C.3     1  UNL1        0.0289
     39 C           0.5678    2.6725   29.8742 C.3     1  UNL1        0.0023
     40 C           0.0928    1.2626   29.6834 C.3     1  UNL1        0.0001
     41 C           0.4600    3.3245   31.2208 C.3     1  UNL1        0.0001
@<TRIPOS>UNITY_ATOM_ATTR
36 1
charge -1
@<TRIPOS>BOND
     1    11    12    1
     2    12    13   ar
     3    13    14   ar
     4    14    18    1
     5    18    19    1
     6    18    20    1
     7    18    21    1
     8    14    15   ar
     9    15    16   ar
    10    16    17   ar
    11    17     1    1
    12     1     2   ar
    13     2     3   ar
    14     3     4   ar
    15     4     5   ar
    16     5    22    1
    17    22    38    1
    18    38    39    1
    19    39    40    1
    20    39    41    1
    21    22    23    1
    22    23    24   ar
    23    24    25   ar
    24    25    26   ar
    25    26    29    1
    26    29    30    2
    27    29    31   am
    28    31    33    1
    29    33    34    1
    30    34    35    1
    31    35    36   ar
    32    35    37   ar
    33    26    27   ar
    34    27    28   ar
    35     5     6   ar
    36     6     7   ar
    37     7     8   ar
    38     8     9   ar
    39     9    10    1
    40    17    12   ar
    41     9     1   ar
    42     7     3   ar
    43    28    23   ar
    44    31    32    1
@<TRIPOS>MOLECULE
*****
 41 44 0 0 0
SMALL
GASTEIGER

@<TRIPOS>ATOM
      1 C          -1.6881    3.6302   26.0394 C.ar    1  UNL1       -0.0041
      2 C          -1.4108    2.2973   26.6691 C.ar    1  UNL1        0.0028
      3 C          -0.3171    2.1616   27.6866 C.ar    1  UNL1        0.0381
      4 C           0.1834    0.9852   28.4712 C.ar    1  UNL1        0.0969
      5 N           1.3092    1.4554   29.3439 N.ar    1  UNL1       -0.2472
      6 N           1.5044    2.9223   29.0986 N.ar    1  UNL1       -0.1690
      7 C           0.4993    3.3587   28.0743 C.ar    1  UNL1        0.1021
      8 C           0.2220    4.6915   27.4446 C.ar    1  UNL1        0.0166
      9 C          -0.8718    4.8272   26.4271 C.ar    1  UNL1       -0.0203
     10 C          -1.1491    6.1602   25.7973 C.3     1  UNL1        0.0311
     11 C          -4.4766    4.3056   26.9156 C.3     1  UNL1        0.0310
     12 C          -4.1762    4.1036   25.4599 C.ar    1  UNL1       -0.0219
     13 C          -5.2699    4.2393   24.4424 C.ar    1  UNL1       -0.0004
     14 C          -4.9694    4.0373   22.9868 C.ar    1  UNL1        0.0711
     15 C          -3.5751    3.6996   22.5487 C.ar    1  UNL1        0.0038
     16 C          -2.4814    3.5639   23.5662 C.ar    1  UNL1       -0.0004
     17 C          -2.7819    3.7659   25.0218 C.ar    1  UNL1       -0.0043
     18 C          -6.0632    4.1731   21.9694 C.3     1  UNL1        0.4186
     19 F          -7.1569    4.3088   20.9519 F       1  UNL1       -0.1659
     20 F          -5.0450    4.5048   20.9191 F       1  UNL1       -0.1659
     21 F          -7.0814    3.8413   23.0196 F       1  UNL1       -0.1659
     22 C           2.1008    0.6075   30.2950 C.3     1  UNL1        0.1274
     23 C           2.3436    1.0806   31.6975 C.ar    1  UNL1       -0.0001
     24 C           3.4417    0.4688   32.5160 C.ar    1  UNL1       -0.0023
     25 C           3.6845    0.9419   33.9186 C.ar    1  UNL1        0.0042
     26 C           2.8291    2.0269   34.5027 C.ar    1  UNL1        0.0533
     27 C           1.7310    2.6387   33.6844 C.ar    1  UNL1        0.0042
     28 C           1.4883    2.1655   32.2817 C.ar    1  UNL1       -0.0023
     29 C           3.0719    2.5000   35.9053 C.2     1  UNL1        0.2459
     30 O           4.4474    2.4154   36.4978 O.2     1  UNL1       -0.2701
     31 N           1.9393    3.0576   36.7154 N.am    1  UNL1       -0.3005
     32 H           1.0366    3.1131   36.3266 H       1  UNL1        0.1498
     33 C           2.1823    3.5307   38.1180 C.3     1  UNL1        0.0956
     34 C           2.2917    2.5369   39.2362 C.3     1  UNL1        0.0629
     35 C           1.2292    1.4942   39.4197 C.2     1  UNL1        0.0520
     36 O           1.5326    0.2408   40.1858 O.co2   1  UNL1       -0.5491
     37 O          -0.1369    1.7049   38.8370 O.co2   1  UNL1       -0.5491
     38 C           2.6496   -0.7134   29.8435 C.3     1  UNL1        0.0289
     39 C           3.7594   -0.7594   28.8353 C.3     1  UNL1        0.0023
     40 C           5.1517   -0.3695   29.2343 C.3     1  UNL1        0.0001
     41 C           3.4768   -1.1951   27.4281 C.3     1  UNL1        0.0001
@<TRIPOS>UNITY_ATOM_ATTR
36 1
charge -1
@<TRIPOS>BOND
     1    11    12    1
     2    12    13   ar
     3    13    14   ar
     4    14    18    1
     5    18    19    1
     6    18    20    1
     7    18    21    1
     8    14    15   ar
     9    15    16   ar
    10    16    17   ar
    11    17     1    1
    12     1     2   ar
    13     2     3   ar
    14     3     4   ar
    15     4     5   ar
    16     5    22    1
    17    22    38    1
    18    38    39    1
    19    39    40    1
    20    39    41    1
    21    22    23    1
    22    23    24   ar
    23    24    25   ar
    24    25    26   ar
    25    26    29    1
    26    29    30    2
    27    29    31   am
    28    31    33    1
    29    33    34    1
    30    34    35    1
    31    35    36   ar
    32    35    37   ar
    33    26    27   ar
    34    27    28   ar
    35     5     6   ar
    36     6     7   ar
    37     7     8   ar
    38     8     9   ar
    39     9    10    1
    40    17    12   ar
    41     9     1   ar
    42     7     3   ar
    43    28    23   ar
    44    31    32    1
@<TRIPOS>MOLECULE
*****
 41 44 0 0 0
SMALL
GASTEIGER

@<TRIPOS>ATOM
      1 C         -12.3356   -2.1299   18.0505 C.ar    1  UNL1       -0.0041
      2 C         -13.6108   -1.8442   18.7870 C.ar    1  UNL1        0.0028
      3 C         -14.1606   -0.4491   18.8214 C.ar    1  UNL1        0.0381
      4 C         -15.3868    0.1310   19.4616 C.ar    1  UNL1        0.0969
      5 N         -15.4194    1.5990   19.1552 N.ar    1  UNL1       -0.2472
      6 N         -14.2133    1.9262   18.3255 N.ar    1  UNL1       -0.1690
      7 C         -13.4353    0.6604   18.1192 C.ar    1  UNL1        0.1021
      8 C         -12.1602    0.3747   17.3827 C.ar    1  UNL1        0.0166
      9 C         -11.6104   -1.0204   17.3484 C.ar    1  UNL1       -0.0203
     10 C         -10.3352   -1.3061   16.6118 C.3     1  UNL1        0.0311
     11 C         -13.3076   -4.0747   15.9834 C.3     1  UNL1        0.0310
     12 C         -12.2718   -4.4975   16.9826 C.ar    1  UNL1       -0.0219
     13 C         -11.7219   -5.8927   16.9482 C.ar    1  UNL1       -0.0004
     14 C         -10.6861   -6.3154   17.9474 C.ar    1  UNL1        0.0711
     15 C         -10.2001   -5.3430   18.9809 C.ar    1  UNL1        0.0038
     16 C         -10.7500   -3.9478   19.0153 C.ar    1  UNL1       -0.0004
     17 C         -11.7858   -3.5251   18.0161 C.ar    1  UNL1       -0.0043
     18 C         -10.1363   -7.7106   17.9130 C.3     1  UNL1        0.4186
     19 F          -9.5866   -9.1057   17.8785 F       1  UNL1       -0.1659
     20 F         -10.9809   -8.0137   16.7110 F       1  UNL1       -0.1659
     21 F          -9.2917   -7.4075   19.1150 F       1  UNL1       -0.1659
     22 C         -16.4730    2.5695   19.6002 C.3     1  UNL1        0.1274
     23 C         -16.3746    3.2166   20.9499 C.ar    1  UNL1       -0.0001
     24 C         -15.4362    4.3672   21.1634 C.ar    1  UNL1       -0.0023
     25 C         -15.3378    5.0143   22.5130 C.ar    1  UNL1        0.0042
     26 C         -16.1778    4.5109   23.6492 C.ar    1  UNL1        0.0533
     27 C         -17.1162    3.3603   23.4358 C.ar    1  UNL1        0.0042
     28 C         -17.2146    2.7132   22.0861 C.ar    1  UNL1       -0.0023
     29 C         -16.0794    5.1581   24.9988 C.2     1  UNL1        0.2459
     30 O         -14.9966    4.7454   25.9513 O.2     1  UNL1       -0.2701
     31 N         -17.0638    6.2179   25.3960 N.am    1  UNL1       -0.3005
     32 H         -17.7745    6.4888   24.7708 H       1  UNL1        0.1498
     33 C         -16.9653    6.8650   26.7457 C.3     1  UNL1        0.0956
     34 C         -17.9417    6.5013   27.8248 C.3     1  UNL1        0.0629
     35 C         -17.4776    5.7385   29.0301 C.2     1  UNL1        0.0520
     36 O         -16.1292    5.0815   29.0284 O.co2   1  UNL1       -0.5491
     37 O         -18.3619    5.6328   30.2370 O.co2   1  UNL1       -0.5491
     38 C         -17.6251    2.8928   18.6957 C.3     1  UNL1        0.0289
     39 C         -18.9581    2.2415   18.9170 C.3     1  UNL1        0.0023
     40 C         -20.1132    3.0516   19.4262 C.3     1  UNL1        0.0001
     41 C         -19.1360    0.7801   18.6292 C.3     1  UNL1        0.0001
@<TRIPOS>UNITY_ATOM_ATTR
36 1
charge -1
@<TRIPOS>BOND
     1    11    12    1
     2    12    13   ar
     3    13    14   ar
     4    14    18    1
     5    18    19    1
     6    18    20    1
     7    18    21    1
     8    14    15   ar
     9    15    16   ar
    10    16    17   ar
    11    17     1    1
    12     1     2   ar
    13     2     3   ar
    14     3     4   ar
    15     4     5   ar
    16     5    22    1
    17    22    38    1
    18    38    39    1
    19    39    40    1
    20    39    41    1
    21    22    23    1
    22    23    24   ar
    23    24    25   ar
    24    25    26   ar
    25    26    29    1
    26    29    30    2
    27    29    31   am
    28    31    33    1
    29    33    34    1
    30    34    35    1
    31    35    36   ar
    32    35    37   ar
    33    26    27   ar
    34    27    28   ar
    35     5     6   ar
    36     6     7   ar
    37     7     8   ar
    38     8     9   ar
    39     9    10    1
    40    17    12   ar
    41     9     1   ar
    42     7     3   ar
    43    28    23   ar
    44    31    32    1
@<TRIPOS>MOLECULE
*****
 41 44 0 0 0
SMALL
GASTEIGER

@<TRIPOS>ATOM
      1 C           6.5466   -2.7049   25.1698 C.ar    1  UNL1       -0.0041
      2 C           5.2967   -2.8634   24.3557 C.ar    1  UNL1        0.0028
      3 C           5.1818   -2.1917   23.0194 C.ar    1  UNL1        0.0381
      4 C           4.0817   -2.1664   22.0001 C.ar    1  UNL1        0.0969
      5 N           4.5368   -1.3207   20.8478 N.ar    1  UNL1       -0.2472
      6 N           5.9182   -0.8233   21.1551 N.ar    1  UNL1       -0.1690
      7 C           6.3168   -1.3616   22.4972 C.ar    1  UNL1        0.1021
      8 C           7.5667   -1.2032   23.3113 C.ar    1  UNL1        0.0166
      9 C           7.6815   -1.8748   24.6475 C.ar    1  UNL1       -0.0203
     10 C           8.9315   -1.7163   25.4616 C.3     1  UNL1        0.0311
     11 C           7.4752   -5.5523   25.3425 C.3     1  UNL1        0.0310
     12 C           7.1258   -4.8003   26.5925 C.ar    1  UNL1       -0.0219
     13 C           7.2406   -5.4719   27.9288 C.ar    1  UNL1       -0.0004
     14 C           6.8912   -4.7198   29.1787 C.ar    1  UNL1        0.0711
     15 C           6.4269   -3.2961   29.0923 C.ar    1  UNL1        0.0038
     16 C           6.3121   -2.6245   27.7560 C.ar    1  UNL1       -0.0004
     17 C           6.6615   -3.3765   26.5061 C.ar    1  UNL1       -0.0043
     18 C           7.0061   -5.3915   30.5149 C.3     1  UNL1        0.4186
     19 F           7.1210   -6.0631   31.8512 F       1  UNL1       -0.1659
     20 F           6.4045   -4.1853   31.1730 F       1  UNL1       -0.1659
     21 F           7.6078   -6.5977   29.8570 F       1  UNL1       -0.1659
     22 C           3.7489   -1.0244   19.6063 C.3     1  UNL1        0.1274
     23 C           2.6306   -0.0255   19.6482 C.ar    1  UNL1       -0.0001
     24 C           1.3413   -0.3712   20.3325 C.ar    1  UNL1       -0.0023
     25 C           0.2232    0.6278   20.3744 C.ar    1  UNL1        0.0042
     26 C           0.3942    1.9724   19.7320 C.ar    1  UNL1        0.0533
     27 C           1.6835    2.3182   19.0478 C.ar    1  UNL1        0.0042
     28 C           2.8017    1.3191   19.0059 C.ar    1  UNL1       -0.0023
     29 C          -0.7240    2.9713   19.7740 C.2     1  UNL1        0.2459
     30 O          -0.5779    4.2904   19.0749 O.2     1  UNL1       -0.2701
     31 N          -1.9883    2.6512   20.5150 N.am    1  UNL1       -0.3005
     32 H          -2.0842    1.7854   20.9738 H       1  UNL1        0.1498
     33 C          -3.1065    3.6502   20.5568 C.3     1  UNL1        0.0956
     34 C          -4.2277    3.5628   19.5643 C.3     1  UNL1        0.0629
     35 C          -4.0579    4.1357   18.1885 C.2     1  UNL1        0.0520
     36 O          -4.2646    3.2668   16.9834 O.co2   1  UNL1       -0.5491
     37 O          -3.6814    5.5776   18.0178 O.co2   1  UNL1       -0.5491
     38 C           4.0791   -1.7270   18.3229 C.3     1  UNL1        0.0289
     39 C           5.1235   -2.8036   18.3045 C.3     1  UNL1        0.0023
     40 C           4.7459   -4.2202   18.6216 C.3     1  UNL1        0.0001
     41 C           6.5454   -2.4636   17.9690 C.3     1  UNL1        0.0001
@<TRIPOS>UNITY_ATOM_ATTR
36 1
charge -1
@<TRIPOS>BOND
     1    11    12    1
     2    12    13   ar
     3    13    14   ar
     4    14    18    1
     5    18    19    1
     6    18    20    1
     7    18    21    1
     8    14    15   ar
     9    15    16   ar
    10    16    17   ar
    11    17     1    1
    12     1     2   ar
    13     2     3   ar
    14     3     4   ar
    15     4     5   ar
    16     5    22    1
    17    22    38    1
    18    38    39    1
    19    39    40    1
    20    39    41    1
    21    22    23    1
    22    23    24   ar
    23    24    25   ar
    24    25    26   ar
    25    26    29    1
    26    29    30    2
    27    29    31   am
    28    31    33    1
    29    33    34    1
    30    34    35    1
    31    35    36   ar
    32    35    37   ar
    33    26    27   ar
    34    27    28   ar
    35     5     6   ar
    36     6     7   ar
    37     7     8   ar
    38     8     9   ar
    39     9    10    1
    40    17    12   ar
    41     9     1   ar
    42     7     3   ar
    43    28    23   ar
    44    31    32    1
@<TRIPOS>MOLECULE
*****
 41 44 0 0 0
SMALL
GASTEIGER

@<TRIPOS>ATOM
      1 C         -14.0325   -3.0483   18.4430 C.ar    1  UNL1       -0.0041
      2 C         -14.3814   -2.1581   19.5990 C.ar    1  UNL1        0.0028
      3 C         -15.4709   -1.1370   19.4569 C.ar    1  UNL1        0.0381
      4 C         -16.0319   -0.1280   20.4147 C.ar    1  UNL1        0.0969
      5 N         -17.1192    0.6266   19.7088 N.ar    1  UNL1       -0.2472
      6 N         -17.2302    0.0840   18.3148 N.ar    1  UNL1       -0.1690
      7 C         -16.2115   -1.0060   18.1591 C.ar    1  UNL1        0.1021
      8 C         -15.8626   -1.8961   17.0033 C.ar    1  UNL1        0.0166
      9 C         -14.7731   -2.9172   17.1453 C.ar    1  UNL1       -0.0203
     10 C         -14.4242   -3.8073   15.9894 C.3     1  UNL1        0.0311
     11 C         -11.1579   -2.2105   18.2564 C.3     1  UNL1        0.0310
     12 C         -11.5056   -3.6506   18.4917 C.ar    1  UNL1       -0.0219
     13 C         -10.4161   -4.6718   18.6337 C.ar    1  UNL1       -0.0004
     14 C         -10.7639   -6.1118   18.8690 C.ar    1  UNL1        0.0711
     15 C         -12.2012   -6.5307   18.9623 C.ar    1  UNL1        0.0038
     16 C         -13.2907   -5.5095   18.8204 C.ar    1  UNL1       -0.0004
     17 C         -12.9429   -4.0695   18.5850 C.ar    1  UNL1       -0.0043
     18 C          -9.6743   -7.1329   19.0110 C.3     1  UNL1        0.4186
     19 F          -8.5848   -8.1540   19.1529 F       1  UNL1       -0.1659
     20 F         -10.4101   -8.0478   18.0774 F       1  UNL1       -0.1659
     21 F          -8.9385   -6.2181   19.9446 F       1  UNL1       -0.1659
     22 C         -17.9497    1.7301   20.2941 C.3     1  UNL1        0.1274
     23 C         -17.4184    2.5431   21.4372 C.ar    1  UNL1       -0.0001
     24 C         -17.8844    2.2653   22.8357 C.ar    1  UNL1       -0.0023
     25 C         -17.3530    3.0783   23.9787 C.ar    1  UNL1        0.0042
     26 C         -16.3557    4.1692   23.7234 C.ar    1  UNL1        0.0533
     27 C         -15.8896    4.4471   22.3250 C.ar    1  UNL1        0.0042
     28 C         -16.4210    3.6340   21.1819 C.ar    1  UNL1       -0.0023
     29 C         -15.8244    4.9822   24.8665 C.2     1  UNL1        0.2459
     30 O         -14.4975    5.6709   24.7441 O.2     1  UNL1       -0.2701
     31 N         -16.6200    5.1065   26.1321 N.am    1  UNL1       -0.3005
     32 H         -17.4909    4.6545   26.2125 H       1  UNL1        0.1498
     33 C         -16.0885    5.9196   27.2752 C.3     1  UNL1        0.0956
     34 C         -16.5752    5.6601   28.6701 C.3     1  UNL1        0.0629
     35 C         -18.0469    5.6392   28.9592 C.2     1  UNL1        0.0520
     36 O         -19.0295    5.4793   27.8372 O.co2   1  UNL1       -0.5491
     37 O         -18.5361    5.7781   30.3704 O.co2   1  UNL1       -0.5491
     38 C         -19.3115    2.0205   19.7364 C.3     1  UNL1        0.0289
     39 C         -19.5983    3.3554   19.1151 C.3     1  UNL1        0.0023
     40 C         -20.0298    4.5058   19.9755 C.3     1  UNL1        0.0001
     41 C         -19.4538    3.5398   17.6336 C.3     1  UNL1        0.0001
@<TRIPOS>UNITY_ATOM_ATTR
36 1
charge -1
@<TRIPOS>BOND
     1    11    12    1
     2    12    13   ar
     3    13    14   ar
     4    14    18    1
     5    18    19    1
     6    18    20    1
     7    18    21    1
     8    14    15   ar
     9    15    16   ar
    10    16    17   ar
    11    17     1    1
    12     1     2   ar
    13     2     3   ar
    14     3     4   ar
    15     4     5   ar
    16     5    22    1
    17    22    38    1
    18    38    39    1
    19    39    40    1
    20    39    41    1
    21    22    23    1
    22    23    24   ar
    23    24    25   ar
    24    25    26   ar
    25    26    29    1
    26    29    30    2
    27    29    31   am
    28    31    33    1
    29    33    34    1
    30    34    35    1
    31    35    36   ar
    32    35    37   ar
    33    26    27   ar
    34    27    28   ar
    35     5     6   ar
    36     6     7   ar
    37     7     8   ar
    38     8     9   ar
    39     9    10    1
    40    17    12   ar
    41     9     1   ar
    42     7     3   ar
    43    28    23   ar
    44    31    32    1
@<TRIPOS>MOLECULE
*****
 41 44 0 0 0
SMALL
GASTEIGER

@<TRIPOS>ATOM
      1 C          -0.5956    3.3391   26.3914 C.ar    1  UNL1       -0.0041
      2 C           0.4360    3.2469   25.3063 C.ar    1  UNL1        0.0028
      3 C           0.0248    3.3651   23.8686 C.ar    1  UNL1        0.0381
      4 C           0.8113    3.3143   22.5924 C.ar    1  UNL1        0.0969
      5 N          -0.1453    3.4934   21.4510 N.ar    1  UNL1       -0.2472
      6 N          -1.5230    3.6549   22.0218 N.ar    1  UNL1       -0.1690
      7 C          -1.4179    3.5755   23.5160 C.ar    1  UNL1        0.1021
      8 C          -2.4494    3.6678   24.6011 C.ar    1  UNL1        0.0166
      9 C          -2.0382    3.5495   26.0388 C.ar    1  UNL1       -0.0203
     10 C          -3.0699    3.6418   27.1239 C.3     1  UNL1        0.0311
     11 C          -0.5157    0.6467   27.7121 C.3     1  UNL1        0.0310
     12 C          -0.1445    1.8746   28.4895 C.ar    1  UNL1       -0.0219
     13 C           0.2667    1.7564   29.9272 C.ar    1  UNL1       -0.0004
     14 C           0.6379    2.9844   30.7045 C.ar    1  UNL1        0.0711
     15 C           0.5979    4.3306   30.0442 C.ar    1  UNL1        0.0038
     16 C           0.1868    4.4489   28.6065 C.ar    1  UNL1       -0.0004
     17 C          -0.1844    3.2208   27.8292 C.ar    1  UNL1       -0.0043
     18 C           1.0490    2.8661   32.1422 C.3     1  UNL1        0.4186
     19 F           1.4602    2.7477   33.5798 F       1  UNL1       -0.1659
     20 F           1.3639    1.4146   31.9327 F       1  UNL1       -0.1659
     21 F           0.7341    4.3176   32.3518 F       1  UNL1       -0.1659
     22 C           0.2129    3.5084   19.9944 C.3     1  UNL1        0.1274
     23 C           1.1170    2.4512   19.4335 C.ar    1  UNL1       -0.0001
     24 C           2.4104    2.8396   18.7804 C.ar    1  UNL1       -0.0023
     25 C           3.3145    1.7823   18.2195 C.ar    1  UNL1        0.0042
     26 C           2.9254    0.3366   18.3116 C.ar    1  UNL1        0.0533
     27 C           1.6320   -0.0519   18.9647 C.ar    1  UNL1        0.0042
     28 C           0.7279    1.0055   19.5256 C.ar    1  UNL1       -0.0023
     29 C           3.8295   -0.7207   17.7507 C.2     1  UNL1        0.2459
     30 O           3.8523   -0.9816   16.2737 O.2     1  UNL1       -0.2701
     31 N           4.7109   -1.5170   18.6667 N.am    1  UNL1       -0.3005
     32 H           4.6960   -1.3458   19.6361 H       1  UNL1        0.1498
     33 C           5.6151   -2.5743   18.1056 C.3     1  UNL1        0.0956
     34 C           5.6117   -3.9538   18.6946 C.3     1  UNL1        0.0629
     35 C           4.3130   -4.6117   19.0560 C.2     1  UNL1        0.0520
     36 O           4.2801   -6.0742   19.3878 O.co2   1  UNL1       -0.5491
     37 O           3.0474   -3.8072   19.0856 O.co2   1  UNL1       -0.5491
     38 C          -0.3331    4.5807   19.0988 C.3     1  UNL1        0.0289
     39 C          -1.4377    4.2624   18.1351 C.3     1  UNL1        0.0023
     40 C          -1.1305    4.0683   16.6799 C.3     1  UNL1        0.0001
     41 C          -2.8494    4.1383   18.6267 C.3     1  UNL1        0.0001
@<TRIPOS>UNITY_ATOM_ATTR
36 1
charge -1
@<TRIPOS>BOND
     1    11    12    1
     2    12    13   ar
     3    13    14   ar
     4    14    18    1
     5    18    19    1
     6    18    20    1
     7    18    21    1
     8    14    15   ar
     9    15    16   ar
    10    16    17   ar
    11    17     1    1
    12     1     2   ar
    13     2     3   ar
    14     3     4   ar
    15     4     5   ar
    16     5    22    1
    17    22    38    1
    18    38    39    1
    19    39    40    1
    20    39    41    1
    21    22    23    1
    22    23    24   ar
    23    24    25   ar
    24    25    26   ar
    25    26    29    1
    26    29    30    2
    27    29    31   am
    28    31    33    1
    29    33    34    1
    30    34    35    1
    31    35    36   ar
    32    35    37   ar
    33    26    27   ar
    34    27    28   ar
    35     5     6   ar
    36     6     7   ar
    37     7     8   ar
    38     8     9   ar
    39     9    10    1
    40    17    12   ar
    41     9     1   ar
    42     7     3   ar
    43    28    23   ar
    44    31    32    1
@<TRIPOS>MOLECULE
*****
 41 44 0 0 0
SMALL
GASTEIGER

@<TRIPOS>ATOM
      1 C           3.7218   -0.1165   23.2630 C.ar    1  UNL1       -0.0041
      2 C           2.6209   -0.1598   24.2810 C.ar    1  UNL1        0.0028
      3 C           2.4861    0.9444   25.2872 C.ar    1  UNL1        0.0381
      4 C           1.5091    1.1723   26.4023 C.ar    1  UNL1        0.0969
      5 N           1.8712    2.4607   27.0797 N.ar    1  UNL1       -0.2472
      6 N           3.0721    3.0290   26.3833 N.ar    1  UNL1       -0.1690
      7 C           3.4521    2.0919   25.2754 C.ar    1  UNL1        0.1021
      8 C           4.5529    2.1352   24.2574 C.ar    1  UNL1        0.0166
      9 C           4.6877    1.0309   23.2512 C.ar    1  UNL1       -0.0203
     10 C           5.7886    1.0743   22.2332 C.3     1  UNL1        0.0311
     11 C           5.2563   -2.5991   23.9570 C.3     1  UNL1        0.0310
     12 C           4.6239   -2.4621   22.6037 C.ar    1  UNL1       -0.0219
     13 C           4.7587   -3.5663   21.5974 C.ar    1  UNL1       -0.0004
     14 C           4.1263   -3.4292   20.2442 C.ar    1  UNL1        0.0711
     15 C           3.3591   -2.1879   19.8972 C.ar    1  UNL1        0.0038
     16 C           3.2242   -1.0837   20.9034 C.ar    1  UNL1       -0.0004
     17 C           3.8567   -1.2208   22.2567 C.ar    1  UNL1       -0.0043
     18 C           4.2612   -4.5335   19.2381 C.3     1  UNL1        0.4186
     19 F           4.3961   -5.6377   18.2318 F       1  UNL1       -0.1659
     20 F           4.9980   -3.6054   18.3184 F       1  UNL1       -0.1659
     21 F           3.5244   -5.4615   20.1577 F       1  UNL1       -0.1659
     22 C           1.1578    3.0732   28.2484 C.3     1  UNL1        0.1274
     23 C           1.5797    2.7327   29.6470 C.ar    1  UNL1       -0.0001
     24 C           3.0252    2.4735   29.9524 C.ar    1  UNL1       -0.0023
     25 C           3.4469    2.1330   31.3510 C.ar    1  UNL1        0.0042
     26 C           2.4232    2.0515   32.4443 C.ar    1  UNL1        0.0533
     27 C           0.9776    2.3107   32.1390 C.ar    1  UNL1        0.0042
     28 C           0.5559    2.6513   30.7403 C.ar    1  UNL1       -0.0023
     29 C           2.8450    1.7110   33.8429 C.2     1  UNL1        0.2459
     30 O           3.7257    0.5226   34.0923 O.2     1  UNL1       -0.2701
     31 N           2.3861    2.5588   34.9921 N.am    1  UNL1       -0.3005
     32 H           1.8081    3.3387   34.8285 H       1  UNL1        0.1498
     33 C           2.8080    2.2181   36.3907 C.3     1  UNL1        0.0956
     34 C           2.1254    2.8661   37.5587 C.3     1  UNL1        0.0629
     35 C           1.6097    2.0238   38.6878 C.2     1  UNL1        0.0520
     36 O           0.1586    2.0803   39.0635 O.co2   1  UNL1       -0.5491
     37 O           2.5451    1.1252   39.4411 O.co2   1  UNL1       -0.5491
     38 C           0.0226    4.0263   28.0185 C.3     1  UNL1        0.0289
     39 C          -0.8668    3.8588   26.8223 C.3     1  UNL1        0.0023
     40 C          -0.6595    4.7145   25.6079 C.3     1  UNL1        0.0001
     41 C          -1.9633    2.8355   26.8404 C.3     1  UNL1        0.0001
@<TRIPOS>UNITY_ATOM_ATTR
36 1
charge -1
@<TRIPOS>BOND
     1    11    12    1
     2    12    13   ar
     3    13    14   ar
     4    14    18    1
     5    18    19    1
     6    18    20    1
     7    18    21    1
     8    14    15   ar
     9    15    16   ar
    10    16    17   ar
    11    17     1    1
    12     1     2   ar
    13     2     3   ar
    14     3     4   ar
    15     4     5   ar
    16     5    22    1
    17    22    38    1
    18    38    39    1
    19    39    40    1
    20    39    41    1
    21    22    23    1
    22    23    24   ar
    23    24    25   ar
    24    25    26   ar
    25    26    29    1
    26    29    30    2
    27    29    31   am
    28    31    33    1
    29    33    34    1
    30    34    35    1
    31    35    36   ar
    32    35    37   ar
    33    26    27   ar
    34    27    28   ar
    35     5     6   ar
    36     6     7   ar
    37     7     8   ar
    38     8     9   ar
    39     9    10    1
    40    17    12   ar
    41     9     1   ar
    42     7     3   ar
    43    28    23   ar
    44    31    32    1
@<TRIPOS>MOLECULE
*****
 41 44 0 0 0
SMALL
GASTEIGER

@<TRIPOS>ATOM
      1 C           6.2671   -0.6564   30.4954 C.ar    1  UNL1       -0.0041
      2 C           6.3059   -2.0361   29.9079 C.ar    1  UNL1        0.0028
      3 C           6.6605   -2.2262   28.4629 C.ar    1  UNL1        0.0381
      4 C           6.7790   -3.4557   27.6119 C.ar    1  UNL1        0.0969
      5 N           7.1680   -3.0261   26.2284 N.ar    1  UNL1       -0.2472
      6 N           7.2900   -1.5311   26.2244 N.ar    1  UNL1       -0.1690
      7 C           6.9763   -1.0367   27.6054 C.ar    1  UNL1        0.1021
      8 C           6.9375    0.3429   28.1928 C.ar    1  UNL1        0.0166
      9 C           6.5829    0.5331   29.6379 C.ar    1  UNL1       -0.0203
     10 C           6.5441    1.9128   30.2253 C.3     1  UNL1        0.0311
     11 C           3.4046   -0.2512   31.2966 C.3     1  UNL1        0.0310
     12 C           4.4812   -0.2636   32.3411 C.ar    1  UNL1       -0.0219
     13 C           4.1266   -0.0735   33.7861 C.ar    1  UNL1       -0.0004
     14 C           5.2032   -0.0859   34.8305 C.ar    1  UNL1        0.0711
     15 C           6.6344   -0.2885   34.4299 C.ar    1  UNL1        0.0038
     16 C           6.9891   -0.4787   32.9849 C.ar    1  UNL1       -0.0004
     17 C           5.9124   -0.4662   31.9405 C.ar    1  UNL1       -0.0043
     18 C           4.8485    0.1042   36.2755 C.3     1  UNL1        0.4186
     19 F           4.4937    0.2944   37.7204 F       1  UNL1       -0.1659
     20 F           3.6497    0.9119   35.8749 F       1  UNL1       -0.1659
     21 F           6.0473   -0.7035   36.6761 F       1  UNL1       -0.1659
     22 C           7.3952   -3.9324   25.0550 C.3     1  UNL1        0.1274
     23 C           6.6578   -3.6953   23.7704 C.ar    1  UNL1       -0.0001
     24 C           5.2481   -3.1834   23.7982 C.ar    1  UNL1       -0.0023
     25 C           4.5109   -2.9463   22.5136 C.ar    1  UNL1        0.0042
     26 C           5.1832   -3.2212   21.2012 C.ar    1  UNL1        0.0533
     27 C           6.5929   -3.7331   21.1733 C.ar    1  UNL1        0.0042
     28 C           7.3302   -3.9701   22.4580 C.ar    1  UNL1       -0.0023
     29 C           4.4459   -2.9841   19.9166 C.2     1  UNL1        0.2459
     30 O           3.3553   -3.9230   19.4936 O.2     1  UNL1       -0.2701
     31 N           4.7991   -1.8080   19.0551 N.am    1  UNL1       -0.3005
     32 H           5.5149   -1.1918   19.3328 H       1  UNL1        0.1498
     33 C           4.0617   -1.5710   17.7705 C.3     1  UNL1        0.0956
     34 C           3.2483   -0.3234   17.5920 C.3     1  UNL1        0.0629
     35 C           2.3353    0.1399   18.6882 C.2     1  UNL1        0.0520
     36 O           0.9149    0.5076   18.3760 O.co2   1  UNL1       -0.5491
     37 O           2.8426    0.2356   20.0965 O.co2   1  UNL1       -0.5491
     38 C           8.3597   -5.0758   25.1660 C.3     1  UNL1        0.0289
     39 C           7.8473   -6.4818   25.2696 C.3     1  UNL1        0.0023
     40 C           8.2482   -7.5033   24.2469 C.3     1  UNL1        0.0001
     41 C           6.9341   -6.8663   26.3957 C.3     1  UNL1        0.0001
@<TRIPOS>UNITY_ATOM_ATTR
36 1
charge -1
@<TRIPOS>BOND
     1    11    12    1
     2    12    13   ar
     3    13    14   ar
     4    14    18    1
     5    18    19    1
     6    18    20    1
     7    18    21    1
     8    14    15   ar
     9    15    16   ar
    10    16    17   ar
    11    17     1    1
    12     1     2   ar
    13     2     3   ar
    14     3     4   ar
    15     4     5   ar
    16     5    22    1
    17    22    38    1
    18    38    39    1
    19    39    40    1
    20    39    41    1
    21    22    23    1
    22    23    24   ar
    23    24    25   ar
    24    25    26   ar
    25    26    29    1
    26    29    30    2
    27    29    31   am
    28    31    33    1
    29    33    34    1
    30    34    35    1
    31    35    36   ar
    32    35    37   ar
    33    26    27   ar
    34    27    28   ar
    35     5     6   ar
    36     6     7   ar
    37     7     8   ar
    38     8     9   ar
    39     9    10    1
    40    17    12   ar
    41     9     1   ar
    42     7     3   ar
    43    28    23   ar
    44    31    32    1
