@<TRIPOS>MOLECULE
*****
 29 32 0 0 0
SMALL
GASTEIGER

@<TRIPOS>ATOM
      1 N          -5.3938  -16.3343   24.9554 N.pl3   1  UNL1       -0.2926
      2 H          -5.0037  -16.2337   25.8537 H       1  UNL1        0.1541
      3 C          -4.5090  -16.6401   23.7834 C.ar    1  UNL1        0.0529
      4 C          -3.7692  -15.5328   23.0929 C.ar    1  UNL1        0.0163
      5 C          -2.8845  -15.8388   21.9210 C.ar    1  UNL1        0.0219
      6 C          -2.7395  -17.2519   21.4395 C.ar    1  UNL1        0.0995
      7 C          -3.4792  -18.3591   22.1298 C.ar    1  UNL1        0.1559
      8 C          -4.3640  -18.0533   23.3018 C.ar    1  UNL1        0.0530
      9 N          -1.8546  -17.5579   20.2674 N.ar    1  UNL1       -0.2835
     10 C          -2.2666  -17.5471   18.8251 C.ar    1  UNL1        0.1023
     11 C          -1.0691  -17.9108   17.9984 C.ar    1  UNL1        0.1196
     12 N           0.0830  -18.1464   18.9295 N.ar    1  UNL1       -0.2220
     13 C          -0.4025  -17.9283   20.3320 C.ar    1  UNL1        0.1829
     14 O          -3.3341  -19.7724   21.6482 O.3     1  UNL1       -0.4699
     15 C          -4.1645  -20.2619   20.4990 C.3     1  UNL1        0.2525
     16 C          -9.1127  -16.3798   23.8448 C.ar    1  UNL1        0.0927
     17 C          -9.1858  -15.5134   25.0671 C.ar    1  UNL1        0.0573
     18 S          -7.8016  -15.3909   25.6319 S.2     1  UNL1       -0.0509
     19 C          -6.8730  -16.1816   24.7587 C.ar    1  UNL1        0.1635
     20 N          -7.6833  -16.7927   23.6542 N.ar    1  UNL1       -0.2239
     21 C         -11.2350  -17.8172   23.4207 C.ar    1  UNL1        0.1401
     22 C         -12.3886  -18.2029   22.5431 C.ar    1  UNL1        0.0375
     23 C         -12.5737  -17.5369   21.2119 C.ar    1  UNL1        0.0098
     24 C         -11.6051  -16.4852   20.7583 C.ar    1  UNL1        0.0348
     25 BR        -11.7902  -15.8192   19.4270 Br      1  UNL1       -0.0490
     26 C         -10.4515  -16.0995   21.6359 C.ar    1  UNL1        0.0112
     27 C         -10.2664  -16.7655   22.9671 C.ar    1  UNL1        0.0527
     28 C         -10.2273  -19.7330   24.8574 C.3     1  UNL1        0.2525
     29 O         -11.0499  -18.4832   24.7520 O.3     1  UNL1       -0.4714
@<TRIPOS>BOND
     1    28    29    1
     2    29    21    1
     3    21    22   ar
     4    22    23   ar
     5    23    24   ar
     6    24    25    1
     7    24    26   ar
     8    26    27   ar
     9    27    16    1
    10    16    17   ar
    11    17    18   ar
    12    18    19   ar
    13    19     1    1
    14     1     3    1
    15     3     4   ar
    16     4     5   ar
    17     5     6   ar
    18     6     9    1
    19     9    10   ar
    20    10    11   ar
    21    11    12   ar
    22    12    13   ar
    23     6     7   ar
    24     7    14    1
    25    14    15    1
    26     7     8   ar
    27    19    20   ar
    28    27    21   ar
    29    20    16   ar
    30     8     3   ar
    31    13     9   ar
    32     1     2    1
@<TRIPOS>MOLECULE
*****
 29 32 0 0 0
SMALL
GASTEIGER

@<TRIPOS>ATOM
      1 N           0.4603    1.9670   18.6774 N.pl3   1  UNL1       -0.2926
      2 H           0.2263    2.2240   17.7563 H       1  UNL1        0.1541
      3 C           1.3932    0.8181   18.9215 C.ar    1  UNL1        0.0529
      4 C           1.2302   -0.0333   20.1457 C.ar    1  UNL1        0.0163
      5 C           2.1631   -1.1822   20.3897 C.ar    1  UNL1        0.0219
      6 C           3.2589   -1.4798   19.4097 C.ar    1  UNL1        0.0995
      7 C           3.4219   -0.6284   18.1856 C.ar    1  UNL1        0.1559
      8 C           2.4890    0.5205   17.9415 C.ar    1  UNL1        0.0530
      9 N           4.1919   -2.6288   19.6538 N.ar    1  UNL1       -0.2835
     10 C           5.5750   -2.5352   20.2267 C.ar    1  UNL1        0.1023
     11 C           6.1433   -3.9216   20.2948 C.ar    1  UNL1        0.1196
     12 N           5.1116   -4.8721   19.7640 N.ar    1  UNL1       -0.2220
     13 C           3.9055   -4.0731   19.3678 C.ar    1  UNL1        0.1829
     14 O           4.5179   -0.9260   17.2055 O.3     1  UNL1       -0.4699
     15 C           5.7040   -0.0131   17.1069 C.3     1  UNL1        0.2525
     16 C          -1.5996    3.4356   21.6212 C.ar    1  UNL1        0.0927
     17 C          -0.4065    4.3446   21.6204 C.ar    1  UNL1        0.0573
     18 S           0.5104    3.9052   20.5176 S.2     1  UNL1       -0.0509
     19 C          -0.1161    2.7245   19.8367 C.ar    1  UNL1        0.1635
     20 N          -1.4202    2.4343   20.5188 N.ar    1  UNL1       -0.2239
     21 C          -4.1665    3.4571   22.0221 C.ar    1  UNL1        0.1401
     22 C          -5.3341    3.5355   22.9604 C.ar    1  UNL1        0.0375
     23 C          -5.1025    3.6709   24.4362 C.ar    1  UNL1        0.0098
     24 C          -3.7033    3.7278   24.9737 C.ar    1  UNL1        0.0348
     25 BR         -3.4716    3.8632   26.4495 Br      1  UNL1       -0.0490
     26 C          -2.5357    3.6494   24.0353 C.ar    1  UNL1        0.0112
     27 C          -2.7673    3.5140   22.5595 C.ar    1  UNL1        0.0527
     28 C          -5.7463    3.6329   19.9670 C.3     1  UNL1        0.2525
     29 O          -4.3982    3.3217   20.5463 O.3     1  UNL1       -0.4714
@<TRIPOS>BOND
     1    28    29    1
     2    29    21    1
     3    21    22   ar
     4    22    23   ar
     5    23    24   ar
     6    24    25    1
     7    24    26   ar
     8    26    27   ar
     9    27    16    1
    10    16    17   ar
    11    17    18   ar
    12    18    19   ar
    13    19     1    1
    14     1     3    1
    15     3     4   ar
    16     4     5   ar
    17     5     6   ar
    18     6     9    1
    19     9    10   ar
    20    10    11   ar
    21    11    12   ar
    22    12    13   ar
    23     6     7   ar
    24     7    14    1
    25    14    15    1
    26     7     8   ar
    27    19    20   ar
    28    27    21   ar
    29    20    16   ar
    30     8     3   ar
    31    13     9   ar
    32     1     2    1
@<TRIPOS>MOLECULE
*****
 29 32 0 0 0
SMALL
GASTEIGER

@<TRIPOS>ATOM
      1 N           0.1261    2.1959   18.9776 N.pl3   1  UNL1       -0.2926
      2 H          -0.1307    2.4832   18.0716 H       1  UNL1        0.1541
      3 C           1.0625    1.0384   19.1601 C.ar    1  UNL1        0.0529
      4 C           0.8847    0.1058   20.3214 C.ar    1  UNL1        0.0163
      5 C           1.8211   -1.0517   20.5039 C.ar    1  UNL1        0.0219
      6 C           2.9352   -1.2767   19.5250 C.ar    1  UNL1        0.0995
      7 C           3.1129   -0.3441   18.3637 C.ar    1  UNL1        0.1559
      8 C           2.1766    0.8134   18.1812 C.ar    1  UNL1        0.0530
      9 N           3.8716   -2.4342   19.7075 N.ar    1  UNL1       -0.2835
     10 C           5.2590   -2.3653   20.2736 C.ar    1  UNL1        0.1023
     11 C           5.8297   -3.7524   20.2719 C.ar    1  UNL1        0.1196
     12 N           4.7953   -4.6787   19.7047 N.ar    1  UNL1       -0.2220
     13 C           3.5850   -3.8640   19.3559 C.ar    1  UNL1        0.1829
     14 O           4.2271   -0.5692   17.3848 O.3     1  UNL1       -0.4699
     15 C           5.3627    0.4074   17.3038 C.3     1  UNL1        0.2525
     16 C          -1.8812    3.6078   21.9846 C.ar    1  UNL1        0.0927
     17 C          -0.6344    4.4388   22.0527 C.ar    1  UNL1        0.0573
     18 S           0.2694    4.0111   20.9346 S.2     1  UNL1       -0.0509
     19 C          -0.4190    2.9157   20.1754 C.ar    1  UNL1        0.1635
     20 N          -1.7481    2.6664   20.8244 N.ar    1  UNL1       -0.2239
     21 C          -2.8619    3.5077   24.3885 C.ar    1  UNL1        0.1401
     22 C          -4.0358    3.6015   25.3175 C.ar    1  UNL1        0.0375
     23 C          -5.4031    3.8892   24.7717 C.ar    1  UNL1        0.0098
     24 C          -5.5964    4.0832   23.2969 C.ar    1  UNL1        0.0348
     25 BR         -6.9636    4.3709   22.7511 Br      1  UNL1       -0.0490
     26 C          -4.4224    3.9894   22.3679 C.ar    1  UNL1        0.0112
     27 C          -3.0552    3.7016   22.9137 C.ar    1  UNL1        0.0527
     28 C          -1.3320    2.7936   26.3631 C.3     1  UNL1        0.2525
     29 O          -1.4947    3.2199   24.9343 O.3     1  UNL1       -0.4714
@<TRIPOS>BOND
     1    28    29    1
     2    29    21    1
     3    21    22   ar
     4    22    23   ar
     5    23    24   ar
     6    24    25    1
     7    24    26   ar
     8    26    27   ar
     9    27    16    1
    10    16    17   ar
    11    17    18   ar
    12    18    19   ar
    13    19     1    1
    14     1     3    1
    15     3     4   ar
    16     4     5   ar
    17     5     6   ar
    18     6     9    1
    19     9    10   ar
    20    10    11   ar
    21    11    12   ar
    22    12    13   ar
    23     6     7   ar
    24     7    14    1
    25    14    15    1
    26     7     8   ar
    27    19    20   ar
    28    27    21   ar
    29    20    16   ar
    30     8     3   ar
    31    13     9   ar
    32     1     2    1
@<TRIPOS>MOLECULE
*****
 29 32 0 0 0
SMALL
GASTEIGER

@<TRIPOS>ATOM
      1 N          -5.1561  -16.4784   24.9748 N.pl3   1  UNL1       -0.2926
      2 H          -4.7406  -16.4663   25.8672 H       1  UNL1        0.1541
      3 C          -4.3184  -16.7533   23.7612 C.ar    1  UNL1        0.0529
      4 C          -3.6359  -15.6231   23.0493 C.ar    1  UNL1        0.0163
      5 C          -2.7983  -15.8981   21.8357 C.ar    1  UNL1        0.0219
      6 C          -2.6432  -17.3032   21.3341 C.ar    1  UNL1        0.0995
      7 C          -3.3258  -18.4333   22.0460 C.ar    1  UNL1        0.1559
      8 C          -4.1634  -18.1584   23.2596 C.ar    1  UNL1        0.0530
      9 N          -1.8055  -17.5782   20.1205 N.ar    1  UNL1       -0.2835
     10 C          -2.2723  -17.5230   18.6960 C.ar    1  UNL1        0.1023
     11 C          -1.1093  -17.8673   17.8135 C.ar    1  UNL1        0.1196
     12 N           0.0762  -18.1353   18.6925 N.ar    1  UNL1       -0.2220
     13 C          -0.3541  -17.9566   20.1183 C.ar    1  UNL1        0.1829
     14 O          -3.1707  -19.8384   21.5443 O.3     1  UNL1       -0.4699
     15 C          -4.0572  -20.3444   20.4451 C.3     1  UNL1        0.2525
     16 C          -8.8907  -16.2024   23.9542 C.ar    1  UNL1        0.0927
     17 C          -8.8890  -15.4520   25.2530 C.ar    1  UNL1        0.0573
     18 S          -7.4898  -15.4640   25.7934 S.2     1  UNL1       -0.0509
     19 C          -6.6267  -16.2219   24.8286 C.ar    1  UNL1        0.1635
     20 N          -7.4926  -16.6782   23.6919 N.ar    1  UNL1       -0.2239
     21 C         -10.0644  -15.9649   21.6485 C.ar    1  UNL1        0.1401
     22 C         -11.2552  -16.1986   20.7668 C.ar    1  UNL1        0.0375
     23 C         -12.4632  -16.9033   21.3091 C.ar    1  UNL1        0.0098
     24 C         -12.4804  -17.3743   22.7331 C.ar    1  UNL1        0.0348
     25 BR        -13.6884  -18.0790   23.2754 Br      1  UNL1       -0.0490
     26 C         -11.2896  -17.1407   23.6148 C.ar    1  UNL1        0.0112
     27 C         -10.0816  -16.4360   23.0725 C.ar    1  UNL1        0.0527
     28 C          -9.0218  -14.0471   20.2397 C.3     1  UNL1        0.2525
     29 O          -8.8564  -15.2602   21.1062 O.3     1  UNL1       -0.4714
@<TRIPOS>BOND
     1    28    29    1
     2    29    21    1
     3    21    22   ar
     4    22    23   ar
     5    23    24   ar
     6    24    25    1
     7    24    26   ar
     8    26    27   ar
     9    27    16    1
    10    16    17   ar
    11    17    18   ar
    12    18    19   ar
    13    19     1    1
    14     1     3    1
    15     3     4   ar
    16     4     5   ar
    17     5     6   ar
    18     6     9    1
    19     9    10   ar
    20    10    11   ar
    21    11    12   ar
    22    12    13   ar
    23     6     7   ar
    24     7    14    1
    25    14    15    1
    26     7     8   ar
    27    19    20   ar
    28    27    21   ar
    29    20    16   ar
    30     8     3   ar
    31    13     9   ar
    32     1     2    1
@<TRIPOS>MOLECULE
*****
 29 32 0 0 0
SMALL
GASTEIGER

@<TRIPOS>ATOM
      1 N           8.6855   -6.0704   22.6428 N.pl3   1  UNL1       -0.2926
      2 H           9.1371   -6.8198   22.1916 H       1  UNL1        0.1541
      3 C           8.5111   -6.0871   24.1325 C.ar    1  UNL1        0.0529
      4 C           8.7041   -4.8279   24.9244 C.ar    1  UNL1        0.0163
      5 C           8.5297   -4.8446   26.4141 C.ar    1  UNL1        0.0219
      6 C           8.1623   -6.1206   27.1119 C.ar    1  UNL1        0.0995
      7 C           7.9693   -7.3797   26.3200 C.ar    1  UNL1        0.1559
      8 C           8.1437   -7.3630   24.8303 C.ar    1  UNL1        0.0530
      9 N           7.9879   -6.1373   28.6017 N.ar    1  UNL1       -0.2835
     10 C           9.0249   -6.5439   29.6063 C.ar    1  UNL1        0.1023
     11 C           8.4237   -6.4083   30.9738 C.ar    1  UNL1        0.1196
     12 N           7.0152   -5.9179   30.8144 N.ar    1  UNL1       -0.2220
     13 C           6.7458   -5.7505   29.3484 C.ar    1  UNL1        0.1829
     14 O           7.6019   -8.6557   27.0179 O.3     1  UNL1       -0.4699
     15 C           8.6761   -9.5399   27.5787 C.3     1  UNL1        0.2525
     16 C           6.6793   -3.3017   20.8057 C.ar    1  UNL1        0.0927
     17 C           8.0831   -2.9559   20.4061 C.ar    1  UNL1        0.0573
     18 S           9.0055   -3.9509   21.0456 S.2     1  UNL1       -0.0509
     19 C           8.1717   -4.9118   21.8405 C.ar    1  UNL1        0.1635
     20 N           6.7341   -4.5105   21.6922 N.ar    1  UNL1       -0.2239
     21 C           4.3449   -2.3210   21.3881 C.ar    1  UNL1        0.1401
     22 C           3.1042   -1.5870   20.9739 C.ar    1  UNL1        0.0375
     23 C           2.9569   -1.0995   19.5630 C.ar    1  UNL1        0.0098
     24 C           4.0504   -1.3461   18.5663 C.ar    1  UNL1        0.0348
     25 BR          3.9031   -0.8587   17.1554 Br      1  UNL1       -0.0490
     26 C           5.2911   -2.0802   18.9805 C.ar    1  UNL1        0.0112
     27 C           5.4384   -2.5676   20.3914 C.ar    1  UNL1        0.0527
     28 C           4.5223   -1.8265   23.9325 C.3     1  UNL1        0.2525
     29 O           4.4922   -2.8085   22.7991 O.3     1  UNL1       -0.4714
@<TRIPOS>BOND
     1    28    29    1
     2    29    21    1
     3    21    22   ar
     4    22    23   ar
     5    23    24   ar
     6    24    25    1
     7    24    26   ar
     8    26    27   ar
     9    27    16    1
    10    16    17   ar
    11    17    18   ar
    12    18    19   ar
    13    19     1    1
    14     1     3    1
    15     3     4   ar
    16     4     5   ar
    17     5     6   ar
    18     6     9    1
    19     9    10   ar
    20    10    11   ar
    21    11    12   ar
    22    12    13   ar
    23     6     7   ar
    24     7    14    1
    25    14    15    1
    26     7     8   ar
    27    19    20   ar
    28    27    21   ar
    29    20    16   ar
    30     8     3   ar
    31    13     9   ar
    32     1     2    1
@<TRIPOS>MOLECULE
*****
 29 32 0 0 0
SMALL
GASTEIGER

@<TRIPOS>ATOM
      1 N           8.6814   -5.9918   23.0109 N.pl3   1  UNL1       -0.2926
      2 H           9.2227   -6.6729   22.5502 H       1  UNL1        0.1541
      3 C           8.5218   -6.0427   24.5015 C.ar    1  UNL1        0.0529
      4 C           8.0753   -7.3116   25.1651 C.ar    1  UNL1        0.0163
      5 C           7.9157   -7.3625   26.6557 C.ar    1  UNL1        0.0219
      6 C           8.2027   -6.1444   27.4827 C.ar    1  UNL1        0.0995
      7 C           8.6492   -4.8755   26.8191 C.ar    1  UNL1        0.1559
      8 C           8.8088   -4.8246   25.3285 C.ar    1  UNL1        0.0530
      9 N           8.0431   -6.1952   28.9734 N.ar    1  UNL1       -0.2835
     10 C           9.0524   -6.7207   29.9508 C.ar    1  UNL1        0.1023
     11 C           8.4793   -6.5798   31.3297 C.ar    1  UNL1        0.1196
     12 N           7.1159   -5.9672   31.2047 N.ar    1  UNL1       -0.2220
     13 C           6.8463   -5.7295   29.7484 C.ar    1  UNL1        0.1829
     14 O           8.9362   -3.6574   27.6462 O.3     1  UNL1       -0.4699
     15 C           7.9403   -2.5371   27.7019 C.3     1  UNL1        0.2525
     16 C           6.3571   -3.3387   21.3909 C.ar    1  UNL1        0.0927
     17 C           7.6281   -3.1163   20.6260 C.ar    1  UNL1        0.0573
     18 S           8.6535   -4.0831   21.1397 S.2     1  UNL1       -0.0509
     19 C           8.0162   -4.9030   22.2222 C.ar    1  UNL1        0.1635
     20 N           6.5970   -4.4429   22.3775 N.ar    1  UNL1       -0.2239
     21 C           4.3100   -2.7169   19.9168 C.ar    1  UNL1        0.1401
     22 C           3.0248   -1.9668   19.7285 C.ar    1  UNL1        0.0375
     23 C           2.5015   -1.0882   20.8258 C.ar    1  UNL1        0.0098
     24 C           3.2633   -0.9597   22.1115 C.ar    1  UNL1        0.0348
     25 BR          2.7400   -0.0811   23.2088 Br      1  UNL1       -0.0490
     26 C           4.5485   -1.7099   22.2999 C.ar    1  UNL1        0.0112
     27 C           5.0719   -2.5885   21.2025 C.ar    1  UNL1        0.0527
     28 C           4.5095   -5.0601   18.8125 C.3     1  UNL1        0.2525
     29 O           4.8334   -3.5956   18.8195 O.3     1  UNL1       -0.4714
@<TRIPOS>BOND
     1    28    29    1
     2    29    21    1
     3    21    22   ar
     4    22    23   ar
     5    23    24   ar
     6    24    25    1
     7    24    26   ar
     8    26    27   ar
     9    27    16    1
    10    16    17   ar
    11    17    18   ar
    12    18    19   ar
    13    19     1    1
    14     1     3    1
    15     3     4   ar
    16     4     5   ar
    17     5     6   ar
    18     6     9    1
    19     9    10   ar
    20    10    11   ar
    21    11    12   ar
    22    12    13   ar
    23     6     7   ar
    24     7    14    1
    25    14    15    1
    26     7     8   ar
    27    19    20   ar
    28    27    21   ar
    29    20    16   ar
    30     8     3   ar
    31    13     9   ar
    32     1     2    1
@<TRIPOS>MOLECULE
*****
 29 32 0 0 0
SMALL
GASTEIGER

@<TRIPOS>ATOM
      1 N           8.5680   -6.1529   22.9792 N.pl3   1  UNL1       -0.2926
      2 H           8.9722   -6.9299   22.5296 H       1  UNL1        0.1541
      3 C           8.4243   -6.1413   24.4723 C.ar    1  UNL1        0.0529
      4 C           8.0505   -7.3988   25.1996 C.ar    1  UNL1        0.0163
      5 C           7.9069   -7.3871   26.6926 C.ar    1  UNL1        0.0219
      6 C           8.1371   -6.1179   27.4583 C.ar    1  UNL1        0.0995
      7 C           8.5109   -4.8605   26.7310 C.ar    1  UNL1        0.1559
      8 C           8.6545   -4.8722   25.2380 C.ar    1  UNL1        0.0530
      9 N           7.9934   -6.1063   28.9515 N.ar    1  UNL1       -0.2835
     10 C           6.8237   -5.5676   29.7205 C.ar    1  UNL1        0.1023
     11 C           7.1017   -5.7596   31.1819 C.ar    1  UNL1        0.1196
     12 N           8.4432   -6.4169   31.3161 N.ar    1  UNL1       -0.2220
     13 C           8.9944   -6.6312   29.9376 C.ar    1  UNL1        0.1829
     14 O           8.7411   -3.5914   27.4968 O.3     1  UNL1       -0.4699
     15 C           7.6665   -2.5466   27.5572 C.3     1  UNL1        0.2525
     16 C           6.6575   -3.3567   21.0827 C.ar    1  UNL1        0.0927
     17 C           8.0803   -2.9971   20.7728 C.ar    1  UNL1        0.0573
     18 S           8.9692   -4.0008   21.4455 S.2     1  UNL1       -0.0509
     19 C           8.0957   -4.9808   22.1712 C.ar    1  UNL1        0.1635
     20 N           6.6670   -4.5827   21.9470 N.ar    1  UNL1       -0.2239
     21 C           4.3137   -2.3442   21.5639 C.ar    1  UNL1        0.1401
     22 C           3.0953   -1.6073   21.0923 C.ar    1  UNL1        0.0375
     23 C           3.0021   -1.1460   19.6681 C.ar    1  UNL1        0.0098
     24 C           4.1274   -1.4217   18.7153 C.ar    1  UNL1        0.0348
     25 BR          4.0343   -0.9605   17.2910 Br      1  UNL1       -0.0490
     26 C           5.3458   -2.1586   19.1869 C.ar    1  UNL1        0.0112
     27 C           5.4390   -2.6198   20.6112 C.ar    1  UNL1        0.0527
     28 C           4.9232   -1.8751   24.0455 C.3     1  UNL1        0.2525
     29 O           4.4068   -2.8054   22.9882 O.3     1  UNL1       -0.4714
@<TRIPOS>BOND
     1    28    29    1
     2    29    21    1
     3    21    22   ar
     4    22    23   ar
     5    23    24   ar
     6    24    25    1
     7    24    26   ar
     8    26    27   ar
     9    27    16    1
    10    16    17   ar
    11    17    18   ar
    12    18    19   ar
    13    19     1    1
    14     1     3    1
    15     3     4   ar
    16     4     5   ar
    17     5     6   ar
    18     6     9    1
    19     9    10   ar
    20    10    11   ar
    21    11    12   ar
    22    12    13   ar
    23     6     7   ar
    24     7    14    1
    25    14    15    1
    26     7     8   ar
    27    19    20   ar
    28    27    21   ar
    29    20    16   ar
    30     8     3   ar
    31    13     9   ar
    32     1     2    1
@<TRIPOS>MOLECULE
*****
 29 32 0 0 0
SMALL
GASTEIGER

@<TRIPOS>ATOM
      1 N           0.5452    1.8811   18.7740 N.pl3   1  UNL1       -0.2926
      2 H           0.2888    2.0346   17.8359 H       1  UNL1        0.1541
      3 C           1.5670    0.8359   19.1108 C.ar    1  UNL1        0.0529
      4 C           2.4796    0.3079   18.0439 C.ar    1  UNL1        0.0163
      5 C           3.5014   -0.7373   18.3808 C.ar    1  UNL1        0.0219
      6 C           3.6106   -1.2544   19.7845 C.ar    1  UNL1        0.0995
      7 C           2.6981   -0.7264   20.8514 C.ar    1  UNL1        0.1559
      8 C           1.6762    0.3188   20.5146 C.ar    1  UNL1        0.0530
      9 N           4.6324   -2.2996   20.1214 N.ar    1  UNL1       -0.2835
     10 C           5.8293   -2.1100   21.0055 C.ar    1  UNL1        0.1023
     11 C           6.5733   -3.4111   21.0638 C.ar    1  UNL1        0.1196
     12 N           5.8363   -4.4049   20.2158 N.ar    1  UNL1       -0.2220
     13 C           4.6368   -3.7180   19.6334 C.ar    1  UNL1        0.1829
     14 O           2.8073   -1.2436   22.2553 O.3     1  UNL1       -0.4699
     15 C           3.1452   -0.3054   23.3759 C.3     1  UNL1        0.2525
     16 C          -1.6075    3.4349   21.6054 C.ar    1  UNL1        0.0927
     17 C          -0.5067    4.4472   21.4895 C.ar    1  UNL1        0.0573
     18 S           0.4337    3.9884   20.4148 S.2     1  UNL1       -0.0509
     19 C          -0.0859    2.6925   19.8664 C.ar    1  UNL1        0.1635
     20 N          -1.3474    2.3504   20.6022 N.ar    1  UNL1       -0.2239
     21 C          -4.1663    3.3388   22.0453 C.ar    1  UNL1        0.1401
     22 C          -5.3239    3.4001   22.9972 C.ar    1  UNL1        0.0375
     23 C          -5.0805    3.6189   24.4611 C.ar    1  UNL1        0.0098
     24 C          -3.6794    3.7763   24.9730 C.ar    1  UNL1        0.0348
     25 BR         -3.4359    3.9951   26.4369 Br      1  UNL1       -0.0490
     26 C          -2.5218    3.7150   24.0211 C.ar    1  UNL1        0.0112
     27 C          -2.7652    3.4962   22.5573 C.ar    1  UNL1        0.0527
     28 C          -4.7151    4.2866   19.6894 C.3     1  UNL1        0.2525
     29 O          -4.4098    3.1200   20.5815 O.3     1  UNL1       -0.4714
@<TRIPOS>BOND
     1    28    29    1
     2    29    21    1
     3    21    22   ar
     4    22    23   ar
     5    23    24   ar
     6    24    25    1
     7    24    26   ar
     8    26    27   ar
     9    27    16    1
    10    16    17   ar
    11    17    18   ar
    12    18    19   ar
    13    19     1    1
    14     1     3    1
    15     3     4   ar
    16     4     5   ar
    17     5     6   ar
    18     6     9    1
    19     9    10   ar
    20    10    11   ar
    21    11    12   ar
    22    12    13   ar
    23     6     7   ar
    24     7    14    1
    25    14    15    1
    26     7     8   ar
    27    19    20   ar
    28    27    21   ar
    29    20    16   ar
    30     8     3   ar
    31    13     9   ar
    32     1     2    1
@<TRIPOS>MOLECULE
*****
 29 32 0 0 0
SMALL
GASTEIGER

@<TRIPOS>ATOM
      1 N           0.9532    2.5697   22.6307 N.pl3   1  UNL1       -0.2926
      2 H           0.6707    3.4946   22.4460 H       1  UNL1        0.1541
      3 C           1.1411    2.1115   24.0465 C.ar    1  UNL1        0.0529
      4 C          -0.0491    1.7273   24.8747 C.ar    1  UNL1        0.0163
      5 C           0.1389    1.2691   26.2905 C.ar    1  UNL1        0.0219
      6 C           1.5170    1.1949   26.8782 C.ar    1  UNL1        0.0995
      7 C           2.7071    1.5790   26.0500 C.ar    1  UNL1        0.1559
      8 C           2.5192    2.0373   24.6341 C.ar    1  UNL1        0.0530
      9 N           1.7050    0.7367   28.2941 N.ar    1  UNL1       -0.2835
     10 C           2.3096   -0.5663   28.7262 C.ar    1  UNL1        0.1023
     11 C           2.2996   -0.6073   30.2256 C.ar    1  UNL1        0.1196
     12 N           1.6888    0.6703   30.7202 N.ar    1  UNL1       -0.2220
     13 C           1.3213    1.5009   29.5264 C.ar    1  UNL1        0.1829
     14 O           4.0853    1.5049   26.6377 O.3     1  UNL1       -0.4699
     15 C           4.9986    0.3740   26.2673 C.3     1  UNL1        0.2525
     16 C           2.2600    0.0227   20.0095 C.ar    1  UNL1        0.0927
     17 C           0.8777    0.2885   19.4913 C.ar    1  UNL1        0.0573
     18 S           0.2199    1.2749   20.4101 S.2     1  UNL1       -0.0509
     19 C           1.1957    1.6189   21.4962 C.ar    1  UNL1        0.1635
     20 N           2.4565    0.8450   21.2486 N.ar    1  UNL1       -0.2239
     21 C           4.3752   -0.3501   18.5477 C.ar    1  UNL1        0.1401
     22 C           5.3839   -1.2756   17.9345 C.ar    1  UNL1        0.0375
     23 C           5.2860   -2.7537   18.1699 C.ar    1  UNL1        0.0098
     24 C           4.1795   -3.3064   19.0185 C.ar    1  UNL1        0.0348
     25 BR          4.0817   -4.7846   19.2539 Br      1  UNL1       -0.0490
     26 C           3.1709   -2.3809   19.6316 C.ar    1  UNL1        0.0112
     27 C           3.2687   -0.9028   19.3962 C.ar    1  UNL1        0.0527
     28 C           5.4445    1.9512   19.1052 C.3     1  UNL1        0.2525
     29 O           4.4731    1.1281   18.3122 O.3     1  UNL1       -0.4714
@<TRIPOS>BOND
     1    28    29    1
     2    29    21    1
     3    21    22   ar
     4    22    23   ar
     5    23    24   ar
     6    24    25    1
     7    24    26   ar
     8    26    27   ar
     9    27    16    1
    10    16    17   ar
    11    17    18   ar
    12    18    19   ar
    13    19     1    1
    14     1     3    1
    15     3     4   ar
    16     4     5   ar
    17     5     6   ar
    18     6     9    1
    19     9    10   ar
    20    10    11   ar
    21    11    12   ar
    22    12    13   ar
    23     6     7   ar
    24     7    14    1
    25    14    15    1
    26     7     8   ar
    27    19    20   ar
    28    27    21   ar
    29    20    16   ar
    30     8     3   ar
    31    13     9   ar
    32     1     2    1
