@<TRIPOS>MOLECULE
*****
 31 34 0 0 0
SMALL
GASTEIGER

@<TRIPOS>ATOM
      1 C           4.9385   -2.8357   20.6646 C.3     1  UNL1        0.1160
      2 C           5.6269   -3.5245   21.8055 C.ar    1  UNL1        0.0960
      3 N           6.5423   -4.6572   22.1647 N.ar    1  UNL1       -0.1681
      4 N           6.7408   -4.6390   23.6514 N.ar    1  UNL1       -0.2287
      5 C           5.9481   -3.4951   24.2110 C.ar    1  UNL1        0.0990
      6 C           5.2597   -2.8063   23.0701 C.ar    1  UNL1        0.0337
      7 C           4.3443   -1.6736   22.7108 C.3     1  UNL1        0.1220
      8 N           4.1457   -1.6917   21.2241 N.pl3   1  UNL1       -0.2853
      9 C           7.5839   -5.5966   24.4402 C.ar    1  UNL1        0.0841
     10 C           8.4386   -6.6040   23.7298 C.ar    1  UNL1        0.0192
     11 C           9.2817   -7.5616   24.5186 C.ar    1  UNL1        0.0029
     12 C           9.2702   -7.5118   26.0177 C.ar    1  UNL1        0.0184
     13 C           8.4155   -6.5044   26.7281 C.ar    1  UNL1        0.1072
     14 C           7.5724   -5.5468   25.9393 C.ar    1  UNL1        0.0375
     15 S           8.4039   -6.4546   28.2272 S.O2    1  UNL1        0.0105
     16 C           8.3924   -6.4048   29.7263 C.3     1  UNL1        0.1816
     17 O           8.2334   -4.9652   28.1764 O.2     1  UNL1       -0.1686
     18 O           8.5745   -7.9441   28.2779 O.2     1  UNL1       -0.1686
     19 C           3.3026   -0.7341   20.4354 C.ar    1  UNL1        0.1353
     20 C           1.8164   -0.9253   20.3657 C.ar    1  UNL1        0.0550
     21 C           0.9733    0.0323   19.5770 C.ar    1  UNL1        0.1034
     22 N           1.6163    1.1811   18.8580 N.ar    1  UNL1       -0.2217
     23 C           3.1024    1.3723   18.9277 C.ar    1  UNL1        0.2363
     24 N           3.9456    0.4146   19.7165 N.ar    1  UNL1       -0.2083
     25 C           3.7454    2.5211   18.2088 C.3     1  UNL1        0.4523
     26 F           4.3882    3.6699   17.4898 F       1  UNL1       -0.1632
     27 F           5.0609    1.8009   18.2344 F       1  UNL1       -0.1632
     28 F           2.4297    3.2412   18.1832 F       1  UNL1       -0.1632
     29 C           5.8053   -2.3705   18.2600 C.3     1  UNL1        0.0021
     30 C           5.0271   -3.2228   19.2181 C.3     1  UNL1        0.0240
     31 C           4.3376   -4.4622   18.7298 C.3     1  UNL1        0.0021
@<TRIPOS>BOND
     1    29    30    1
     2    30    31    1
     3     1    30    1
     4     1     2    1
     5     2     3   ar
     6     3     4   ar
     7     4     9    1
     8     9    10   ar
     9    10    11   ar
    10    11    12   ar
    11    12    13   ar
    12    13    15    1
    13    15    16    1
    14    15    17    2
    15    15    18    2
    16    13    14   ar
    17     4     5   ar
    18     5     6   ar
    19     6     7    1
    20     7     8    1
    21     8    19    1
    22    19    20   ar
    23    20    21   ar
    24    21    22   ar
    25    22    23   ar
    26    23    25    1
    27    25    26    1
    28    25    27    1
    29    25    28    1
    30    23    24   ar
    31     8     1    1
    32    24    19   ar
    33     6     2   ar
    34    14     9   ar
@<TRIPOS>MOLECULE
*****
 31 34 0 0 0
SMALL
GASTEIGER

@<TRIPOS>ATOM
      1 C           7.2570   -4.9761   25.7488 C.3     1  UNL1        0.1160
      2 C           6.6867   -4.3631   24.5042 C.ar    1  UNL1        0.0960
      3 N           6.4090   -4.6045   23.0501 N.ar    1  UNL1       -0.1681
      4 N           5.7640   -3.3713   22.4905 N.ar    1  UNL1       -0.2287
      5 C           5.6431   -2.3677   23.5987 C.ar    1  UNL1        0.0990
      6 C           6.2134   -2.9807   24.8433 C.ar    1  UNL1        0.0337
      7 C           6.4911   -2.7393   26.2975 C.3     1  UNL1        0.1220
      8 N           7.1361   -3.9725   26.8572 N.pl3   1  UNL1       -0.2853
      9 C           5.3182   -3.1759   21.0716 C.ar    1  UNL1        0.0841
     10 C           4.2620   -4.0668   20.4879 C.ar    1  UNL1        0.0192
     11 C           3.8162   -3.8713   19.0690 C.ar    1  UNL1        0.0029
     12 C           4.4266   -2.7851   18.2339 C.ar    1  UNL1        0.0184
     13 C           5.4828   -1.8942   18.8176 C.ar    1  UNL1        0.1072
     14 C           5.9286   -2.0897   20.2365 C.ar    1  UNL1        0.0375
     15 S           6.0933   -0.8079   17.9826 S.O2    1  UNL1        0.0105
     16 C           6.7037    0.2784   17.1476 C.3     1  UNL1        0.1816
     17 O           6.8839   -1.8337   17.2260 O.2     1  UNL1       -0.1686
     18 O           5.3026    0.2180   18.7393 O.2     1  UNL1       -0.1686
     19 C           7.5819   -4.1679   28.2759 C.ar    1  UNL1        0.1353
     20 C           8.9416   -4.7322   28.5640 C.ar    1  UNL1        0.0550
     21 C           9.3874   -4.9275   29.9827 C.ar    1  UNL1        0.1034
     22 N           8.4735   -4.5586   31.1137 N.ar    1  UNL1       -0.2217
     23 C           7.1139   -3.9943   30.8257 C.ar    1  UNL1        0.2363
     24 N           6.6681   -3.7990   29.4068 N.ar    1  UNL1       -0.2083
     25 C           6.2001   -3.6254   31.9565 C.3     1  UNL1        0.4523
     26 F           5.2863   -3.2566   33.0874 F       1  UNL1       -0.1632
     27 F           5.8932   -2.3207   31.2830 F       1  UNL1       -0.1632
     28 F           6.5070   -4.9301   32.6301 F       1  UNL1       -0.1632
     29 C           7.0386   -7.4632   26.4675 C.3     1  UNL1        0.0021
     30 C           7.8449   -6.3511   25.8648 C.3     1  UNL1        0.0240
     31 C           9.2392   -6.6142   25.3782 C.3     1  UNL1        0.0021
@<TRIPOS>BOND
     1    29    30    1
     2    30    31    1
     3     1    30    1
     4     1     2    1
     5     2     3   ar
     6     3     4   ar
     7     4     9    1
     8     9    10   ar
     9    10    11   ar
    10    11    12   ar
    11    12    13   ar
    12    13    15    1
    13    15    16    1
    14    15    17    2
    15    15    18    2
    16    13    14   ar
    17     4     5   ar
    18     5     6   ar
    19     6     7    1
    20     7     8    1
    21     8    19    1
    22    19    20   ar
    23    20    21   ar
    24    21    22   ar
    25    22    23   ar
    26    23    25    1
    27    25    26    1
    28    25    27    1
    29    25    28    1
    30    23    24   ar
    31     8     1    1
    32    24    19   ar
    33     6     2   ar
    34    14     9   ar
@<TRIPOS>MOLECULE
*****
 31 34 0 0 0
SMALL
GASTEIGER

@<TRIPOS>ATOM
      1 C           4.0012    1.1819   34.2952 C.3     1  UNL1        0.1160
      2 C           4.5355    0.2058   33.2893 C.ar    1  UNL1        0.0960
      3 N           4.6314   -0.0955   31.8230 N.ar    1  UNL1       -0.1681
      4 N           5.4001   -1.3735   31.6618 N.ar    1  UNL1       -0.2287
      5 C           5.7793   -1.8619   33.0285 C.ar    1  UNL1        0.0990
      6 C           5.2449   -0.8859   34.0343 C.ar    1  UNL1        0.0337
      7 C           5.1490   -0.5845   35.5006 C.3     1  UNL1        0.1220
      8 N           4.3803    0.6935   35.6619 N.pl3   1  UNL1       -0.2853
      9 C           5.7315   -2.0451   30.3622 C.ar    1  UNL1        0.0841
     10 C           5.3538   -1.3949   29.0643 C.ar    1  UNL1        0.0192
     11 C           5.6852   -2.0666   27.7646 C.ar    1  UNL1        0.0029
     12 C           6.3942   -3.3884   27.7628 C.ar    1  UNL1        0.0184
     13 C           6.7719   -4.0386   29.0607 C.ar    1  UNL1        0.1072
     14 C           6.4405   -3.3669   30.3604 C.ar    1  UNL1        0.0375
     15 S           7.4810   -5.3604   29.0591 S.O2    1  UNL1        0.0105
     16 C           8.1900   -6.6822   29.0575 C.3     1  UNL1        0.1816
     17 O           8.1868   -4.9803   27.7913 O.2     1  UNL1       -0.1686
     18 O           6.7752   -5.7405   30.3270 O.2     1  UNL1       -0.1686
     19 C           4.0490    1.3650   36.9615 C.ar    1  UNL1        0.1353
     20 C           5.1500    1.8587   37.8528 C.ar    1  UNL1        0.0550
     21 C           4.8186    2.5302   39.1524 C.ar    1  UNL1        0.1034
     22 N           3.3863    2.7082   39.5609 N.ar    1  UNL1       -0.2217
     23 C           2.2853    2.2146   38.6697 C.ar    1  UNL1        0.2363
     24 N           2.6167    1.5430   37.3700 N.ar    1  UNL1       -0.2083
     25 C           0.8530    2.3926   39.0782 C.3     1  UNL1        0.4523
     26 F          -0.5792    2.5706   39.4866 F       1  UNL1       -0.1632
     27 F           1.0045    1.2938   40.0880 F       1  UNL1       -0.1632
     28 F           0.7017    3.4914   38.0684 F       1  UNL1       -0.1632
     29 C           1.8384    2.3271   33.4230 C.3     1  UNL1        0.0021
     30 C           3.2241    2.4277   33.9883 C.3     1  UNL1        0.0240
     31 C           3.8328    3.7741   34.2469 C.3     1  UNL1        0.0021
@<TRIPOS>BOND
     1    29    30    1
     2    30    31    1
     3     1    30    1
     4     1     2    1
     5     2     3   ar
     6     3     4   ar
     7     4     9    1
     8     9    10   ar
     9    10    11   ar
    10    11    12   ar
    11    12    13   ar
    12    13    15    1
    13    15    16    1
    14    15    17    2
    15    15    18    2
    16    13    14   ar
    17     4     5   ar
    18     5     6   ar
    19     6     7    1
    20     7     8    1
    21     8    19    1
    22    19    20   ar
    23    20    21   ar
    24    21    22   ar
    25    22    23   ar
    26    23    25    1
    27    25    26    1
    28    25    27    1
    29    25    28    1
    30    23    24   ar
    31     8     1    1
    32    24    19   ar
    33     6     2   ar
    34    14     9   ar
@<TRIPOS>MOLECULE
*****
 31 34 0 0 0
SMALL
GASTEIGER

@<TRIPOS>ATOM
      1 C           4.9248   -2.6401   20.7841 C.3     1  UNL1        0.1160
      2 C           5.5744   -3.2986   21.9650 C.ar    1  UNL1        0.0960
      3 N           6.1984   -4.5724   22.4528 N.ar    1  UNL1       -0.1681
      4 N           6.6255   -4.3640   23.8756 N.ar    1  UNL1       -0.2287
      5 C           6.2653   -2.9615   24.2670 C.ar    1  UNL1        0.0990
      6 C           5.6157   -2.3030   23.0862 C.ar    1  UNL1        0.0337
      7 C           4.9916   -1.0292   22.5983 C.3     1  UNL1        0.1220
      8 N           4.5646   -1.2375   21.1755 N.pl3   1  UNL1       -0.2853
      9 C           7.2951   -5.3798   24.7529 C.ar    1  UNL1        0.0841
     10 C           8.0697   -6.5076   24.1381 C.ar    1  UNL1        0.0192
     11 C           8.7393   -7.5235   25.0156 C.ar    1  UNL1        0.0029
     12 C           8.6343   -7.4115   26.5077 C.ar    1  UNL1        0.0184
     13 C           7.8596   -6.2837   27.1225 C.ar    1  UNL1        0.1072
     14 C           7.1900   -5.2679   26.2450 C.ar    1  UNL1        0.0375
     15 S           7.7545   -6.1716   28.6145 S.O2    1  UNL1        0.0105
     16 C           7.6494   -6.0596   30.1066 C.3     1  UNL1        0.1816
     17 O           9.0638   -6.8888   28.7607 O.2     1  UNL1       -0.1686
     18 O           6.4452   -5.4544   28.4684 O.2     1  UNL1       -0.1686
     19 C           3.8950   -0.2218   20.2982 C.ar    1  UNL1        0.1353
     20 C           4.6413    0.3825   19.1458 C.ar    1  UNL1        0.0550
     21 C           3.9717    1.3982   18.2685 C.ar    1  UNL1        0.1034
     22 N           2.5557    1.8100   18.5436 N.ar    1  UNL1       -0.2217
     23 C           1.8094    1.2058   19.6960 C.ar    1  UNL1        0.2363
     24 N           2.4791    0.1900   20.5733 N.ar    1  UNL1       -0.2083
     25 C           0.3935    1.6175   19.9711 C.3     1  UNL1        0.4523
     26 F          -1.0224    2.0292   20.2462 F       1  UNL1       -0.1632
     27 F           0.6629    2.9573   19.3526 F       1  UNL1       -0.1632
     28 F           0.1242    0.2777   20.5896 F       1  UNL1       -0.1632
     29 C           3.5128   -4.1980   19.2579 C.3     1  UNL1        0.0021
     30 C           4.6785   -3.2730   19.4467 C.3     1  UNL1        0.0240
     31 C           5.5979   -2.9809   18.2980 C.3     1  UNL1        0.0021
@<TRIPOS>BOND
     1    29    30    1
     2    30    31    1
     3     1    30    1
     4     1     2    1
     5     2     3   ar
     6     3     4   ar
     7     4     9    1
     8     9    10   ar
     9    10    11   ar
    10    11    12   ar
    11    12    13   ar
    12    13    15    1
    13    15    16    1
    14    15    17    2
    15    15    18    2
    16    13    14   ar
    17     4     5   ar
    18     5     6   ar
    19     6     7    1
    20     7     8    1
    21     8    19    1
    22    19    20   ar
    23    20    21   ar
    24    21    22   ar
    25    22    23   ar
    26    23    25    1
    27    25    26    1
    28    25    27    1
    29    25    28    1
    30    23    24   ar
    31     8     1    1
    32    24    19   ar
    33     6     2   ar
    34    14     9   ar
@<TRIPOS>MOLECULE
*****
 31 34 0 0 0
SMALL
GASTEIGER

@<TRIPOS>ATOM
      1 C           2.1106    0.8296   21.3301 C.3     1  UNL1        0.1160
      2 C           0.9197    1.6621   21.7025 C.ar    1  UNL1        0.0960
      3 N           0.2462    2.3784   22.8354 N.ar    1  UNL1       -0.1681
      4 N          -1.0072    3.0091   22.3051 N.ar    1  UNL1       -0.2287
      5 C          -1.1084    2.6825   20.8445 C.ar    1  UNL1        0.0990
      6 C           0.0825    1.8500   20.4721 C.ar    1  UNL1        0.0337
      7 C           0.7560    1.1337   19.3393 C.3     1  UNL1        0.1220
      8 N           2.0095    0.5030   19.8696 N.pl3   1  UNL1       -0.2853
      9 C          -1.9874    3.8233   23.0964 C.ar    1  UNL1        0.0841
     10 C          -1.4990    4.7474   24.1722 C.ar    1  UNL1        0.0192
     11 C          -2.4793    5.5617   24.9635 C.ar    1  UNL1        0.0029
     12 C          -3.9479    5.4519   24.6790 C.ar    1  UNL1        0.0184
     13 C          -4.4364    4.5278   23.6031 C.ar    1  UNL1        0.1072
     14 C          -3.4561    3.7135   22.8119 C.ar    1  UNL1        0.0375
     15 S          -5.9050    4.4179   23.3185 S.O2    1  UNL1        0.0105
     16 C          -7.3736    4.3080   23.0340 C.3     1  UNL1        0.1816
     17 O          -5.6297    4.5433   21.8494 O.2     1  UNL1       -0.1686
     18 O          -6.1802    4.2926   24.7878 O.2     1  UNL1       -0.1686
     19 C           2.9896   -0.3112   19.0783 C.ar    1  UNL1        0.1353
     20 C           3.7971    0.3350   17.9918 C.ar    1  UNL1        0.0550
     21 C           4.7772   -0.4792   17.2005 C.ar    1  UNL1        0.1034
     22 N           4.9500   -1.9398   17.4956 N.ar    1  UNL1       -0.2217
     23 C           4.1425   -2.5861   18.5821 C.ar    1  UNL1        0.2363
     24 N           3.1623   -1.7717   19.3734 N.ar    1  UNL1       -0.2083
     25 C           4.3153   -4.0466   18.8772 C.3     1  UNL1        0.4523
     26 F           4.4879   -5.5070   19.1723 F       1  UNL1       -0.1632
     27 F           5.8032   -3.8617   18.9212 F       1  UNL1       -0.1632
     28 F           2.8273   -4.2314   18.8331 F       1  UNL1       -0.1632
     29 C           3.1268   -0.9261   22.9533 C.3     1  UNL1        0.0021
     30 C           3.2097    0.3992   22.2557 C.3     1  UNL1        0.0240
     31 C           4.3917    1.2941   22.4837 C.3     1  UNL1        0.0021
@<TRIPOS>BOND
     1    29    30    1
     2    30    31    1
     3     1    30    1
     4     1     2    1
     5     2     3   ar
     6     3     4   ar
     7     4     9    1
     8     9    10   ar
     9    10    11   ar
    10    11    12   ar
    11    12    13   ar
    12    13    15    1
    13    15    16    1
    14    15    17    2
    15    15    18    2
    16    13    14   ar
    17     4     5   ar
    18     5     6   ar
    19     6     7    1
    20     7     8    1
    21     8    19    1
    22    19    20   ar
    23    20    21   ar
    24    21    22   ar
    25    22    23   ar
    26    23    25    1
    27    25    26    1
    28    25    27    1
    29    25    28    1
    30    23    24   ar
    31     8     1    1
    32    24    19   ar
    33     6     2   ar
    34    14     9   ar
@<TRIPOS>MOLECULE
*****
 31 34 0 0 0
SMALL
GASTEIGER

@<TRIPOS>ATOM
      1 C           2.1114    0.6808   21.1833 C.3     1  UNL1        0.1160
      2 C           0.8961    1.5469   21.3339 C.ar    1  UNL1        0.0960
      3 N           0.1100    2.3767   22.3053 N.ar    1  UNL1       -0.1681
      4 N          -1.0704    2.9484   21.5775 N.ar    1  UNL1       -0.2287
      5 C          -1.0140    2.4719   20.1563 C.ar    1  UNL1        0.0990
      6 C           0.2014    1.6057   20.0057 C.ar    1  UNL1        0.0337
      7 C           0.9874    0.7759   19.0343 C.3     1  UNL1        0.1220
      8 N           2.1679    0.2043   19.7621 N.pl3   1  UNL1       -0.2853
      9 C          -2.1226    3.8400   22.1673 C.ar    1  UNL1        0.0841
     10 C          -2.7774    4.8899   21.3194 C.ar    1  UNL1        0.0192
     11 C          -3.8296    5.7815   21.9093 C.ar    1  UNL1        0.0029
     12 C          -4.2271    5.6232   23.3470 C.ar    1  UNL1        0.0184
     13 C          -3.5723    4.5732   24.1948 C.ar    1  UNL1        0.1072
     14 C          -2.5201    3.6817   23.6049 C.ar    1  UNL1        0.0375
     15 S          -3.9697    4.4148   25.6325 S.O2    1  UNL1        0.0105
     16 C          -4.3671    4.2565   27.0702 C.3     1  UNL1        0.1816
     17 O          -5.0382    3.4420   25.2301 O.2     1  UNL1       -0.1686
     18 O          -2.9012    5.3877   26.0350 O.2     1  UNL1       -0.1686
     19 C           3.2201   -0.6873   19.1723 C.ar    1  UNL1        0.1353
     20 C           4.3262   -0.0984   18.3478 C.ar    1  UNL1        0.0550
     21 C           5.3784   -0.9899   17.7580 C.ar    1  UNL1        0.1034
     22 N           5.3245   -2.4706   17.9926 N.ar    1  UNL1       -0.2217
     23 C           4.2184   -3.0595   18.8171 C.ar    1  UNL1        0.2363
     24 N           3.1662   -2.1678   19.4069 N.ar    1  UNL1       -0.2083
     25 C           4.1646   -4.5401   19.0517 C.3     1  UNL1        0.4523
     26 F           4.1108   -6.0206   19.2863 F       1  UNL1       -0.1632
     27 F           2.6926   -4.5322   18.7632 F       1  UNL1       -0.1632
     28 F           5.6366   -4.5478   19.3402 F       1  UNL1       -0.1632
     29 C           4.0290    1.4060   22.7791 C.3     1  UNL1        0.0021
     30 C           3.0973    0.3493   22.2642 C.3     1  UNL1        0.0240
     31 C           3.1514   -1.0388   22.8300 C.3     1  UNL1        0.0021
@<TRIPOS>BOND
     1    29    30    1
     2    30    31    1
     3     1    30    1
     4     1     2    1
     5     2     3   ar
     6     3     4   ar
     7     4     9    1
     8     9    10   ar
     9    10    11   ar
    10    11    12   ar
    11    12    13   ar
    12    13    15    1
    13    15    16    1
    14    15    17    2
    15    15    18    2
    16    13    14   ar
    17     4     5   ar
    18     5     6   ar
    19     6     7    1
    20     7     8    1
    21     8    19    1
    22    19    20   ar
    23    20    21   ar
    24    21    22   ar
    25    22    23   ar
    26    23    25    1
    27    25    26    1
    28    25    27    1
    29    25    28    1
    30    23    24   ar
    31     8     1    1
    32    24    19   ar
    33     6     2   ar
    34    14     9   ar
@<TRIPOS>MOLECULE
*****
 31 34 0 0 0
SMALL
GASTEIGER

@<TRIPOS>ATOM
      1 C           4.6707    0.8762   34.7581 C.3     1  UNL1        0.1160
      2 C           4.9661   -0.0361   33.6046 C.ar    1  UNL1        0.0960
      3 N           5.9568   -1.0219   33.0599 N.ar    1  UNL1       -0.1681
      4 N           5.4441   -1.5121   31.7383 N.ar    1  UNL1       -0.2287
      5 C           4.1366   -0.8293   31.4661 C.ar    1  UNL1        0.0990
      6 C           3.8411    0.0830   32.6195 C.ar    1  UNL1        0.0337
      7 C           2.8504    1.0688   33.1642 C.3     1  UNL1        0.1220
      8 N           3.3631    1.5591   34.4859 N.pl3   1  UNL1       -0.2853
      9 C           6.1202   -2.5100   30.8455 C.ar    1  UNL1        0.0841
     10 C           6.1017   -2.3190   29.3578 C.ar    1  UNL1        0.0192
     11 C           6.7778   -3.3170   28.4651 C.ar    1  UNL1        0.0029
     12 C           7.4725   -4.5059   29.0600 C.ar    1  UNL1        0.0184
     13 C           7.4911   -4.6969   30.5476 C.ar    1  UNL1        0.1072
     14 C           6.8149   -3.6989   31.4404 C.ar    1  UNL1        0.0375
     15 S           8.1857   -5.8858   31.1426 S.O2    1  UNL1        0.0105
     16 C           8.8803   -7.0747   31.7376 C.3     1  UNL1        0.1816
     17 O           9.4471   -5.5087   30.4237 O.2     1  UNL1       -0.1686
     18 O           6.9244   -6.2629   31.8616 O.2     1  UNL1       -0.1686
     19 C           2.6870    2.5569   35.3786 C.ar    1  UNL1        0.1353
     20 C           2.3390    3.9183   34.8536 C.ar    1  UNL1        0.0550
     21 C           1.6629    4.9162   35.7463 C.ar    1  UNL1        0.1034
     22 N           1.3347    4.5527   37.1642 N.ar    1  UNL1       -0.2217
     23 C           1.6826    3.1914   37.6893 C.ar    1  UNL1        0.2363
     24 N           2.3588    2.1935   36.7965 N.ar    1  UNL1       -0.2083
     25 C           1.3545    2.8280   39.1071 C.3     1  UNL1        0.4523
     26 F           1.0264    2.4646   40.5249 F       1  UNL1       -0.1632
     27 F          -0.1072    2.8343   38.7704 F       1  UNL1       -0.1632
     28 F           2.8163    2.8217   39.4437 F       1  UNL1       -0.1632
     29 C           5.9753   -0.1150   36.7743 C.3     1  UNL1        0.0021
     30 C           5.5316    1.0713   35.9708 C.3     1  UNL1        0.0240
     31 C           5.9488    2.4528   36.3800 C.3     1  UNL1        0.0021
@<TRIPOS>BOND
     1    29    30    1
     2    30    31    1
     3     1    30    1
     4     1     2    1
     5     2     3   ar
     6     3     4   ar
     7     4     9    1
     8     9    10   ar
     9    10    11   ar
    10    11    12   ar
    11    12    13   ar
    12    13    15    1
    13    15    16    1
    14    15    17    2
    15    15    18    2
    16    13    14   ar
    17     4     5   ar
    18     5     6   ar
    19     6     7    1
    20     7     8    1
    21     8    19    1
    22    19    20   ar
    23    20    21   ar
    24    21    22   ar
    25    22    23   ar
    26    23    25    1
    27    25    26    1
    28    25    27    1
    29    25    28    1
    30    23    24   ar
    31     8     1    1
    32    24    19   ar
    33     6     2   ar
    34    14     9   ar
@<TRIPOS>MOLECULE
*****
 31 34 0 0 0
SMALL
GASTEIGER

@<TRIPOS>ATOM
      1 C           5.5916   -2.1293   23.0220 C.3     1  UNL1        0.1160
      2 C           6.0396   -2.9267   24.2109 C.ar    1  UNL1        0.0960
      3 N           6.0288   -2.9806   25.7098 N.ar    1  UNL1       -0.1681
      4 N           6.7645   -4.2169   26.1345 N.ar    1  UNL1       -0.2287
      5 C           7.2301   -4.9270   24.8979 C.ar    1  UNL1        0.0990
      6 C           6.7821   -4.1296   23.7090 C.ar    1  UNL1        0.0337
      7 C           6.7929   -4.0757   22.2101 C.3     1  UNL1        0.1220
      8 N           6.0571   -2.8393   21.7854 N.pl3   1  UNL1       -0.2853
      9 C           6.9944   -4.6645   27.5475 C.ar    1  UNL1        0.0841
     10 C           7.6449   -5.9886   27.8184 C.ar    1  UNL1        0.0192
     11 C           7.8747   -6.4362   29.2316 C.ar    1  UNL1        0.0029
     12 C           7.4541   -5.5596   30.3738 C.ar    1  UNL1        0.0184
     13 C           6.8035   -4.2355   30.1029 C.ar    1  UNL1        0.1072
     14 C           6.5737   -3.7879   28.6898 C.ar    1  UNL1        0.0375
     15 S           6.3829   -3.3589   31.2450 S.O2    1  UNL1        0.0105
     16 C           5.9622   -2.4823   32.3873 C.3     1  UNL1        0.1816
     17 O           6.1215   -2.2352   30.2864 O.2     1  UNL1       -0.1686
     18 O           6.6443   -4.4826   32.2037 O.2     1  UNL1       -0.1686
     19 C           5.8273   -2.3918   20.3724 C.ar    1  UNL1        0.1353
     20 C           6.8689   -2.6514   19.3245 C.ar    1  UNL1        0.0550
     21 C           6.6390   -2.2038   17.9115 C.ar    1  UNL1        0.1034
     22 N           5.3676   -1.4966   17.5461 N.ar    1  UNL1       -0.2217
     23 C           4.3261   -1.2369   18.5939 C.ar    1  UNL1        0.2363
     24 N           4.5560   -1.6845   20.0070 N.ar    1  UNL1       -0.2083
     25 C           3.0547   -0.5297   18.2285 C.3     1  UNL1        0.4523
     26 F           1.7834    0.1775   17.8631 F       1  UNL1       -0.1632
     27 F           2.5168   -0.7854   19.6052 F       1  UNL1       -0.1632
     28 F           3.5927   -0.2741   16.8518 F       1  UNL1       -0.1632
     29 C           5.5230    0.4649   22.8979 C.3     1  UNL1        0.0021
     30 C           4.8145   -0.8469   23.0625 C.3     1  UNL1        0.0240
     31 C           3.3289   -0.8764   23.2676 C.3     1  UNL1        0.0021
@<TRIPOS>BOND
     1    29    30    1
     2    30    31    1
     3     1    30    1
     4     1     2    1
     5     2     3   ar
     6     3     4   ar
     7     4     9    1
     8     9    10   ar
     9    10    11   ar
    10    11    12   ar
    11    12    13   ar
    12    13    15    1
    13    15    16    1
    14    15    17    2
    15    15    18    2
    16    13    14   ar
    17     4     5   ar
    18     5     6   ar
    19     6     7    1
    20     7     8    1
    21     8    19    1
    22    19    20   ar
    23    20    21   ar
    24    21    22   ar
    25    22    23   ar
    26    23    25    1
    27    25    26    1
    28    25    27    1
    29    25    28    1
    30    23    24   ar
    31     8     1    1
    32    24    19   ar
    33     6     2   ar
    34    14     9   ar
@<TRIPOS>MOLECULE
*****
 31 34 0 0 0
SMALL
GASTEIGER

@<TRIPOS>ATOM
      1 C           5.9965   -2.7541   24.3275 C.3     1  UNL1        0.1160
      2 C           6.0562   -2.5740   25.8155 C.ar    1  UNL1        0.0960
      3 N           6.8979   -2.8127   27.0339 N.ar    1  UNL1       -0.1681
      4 N           6.1529   -2.2826   28.2230 N.ar    1  UNL1       -0.2287
      5 C           4.8508   -1.7162   27.7394 C.ar    1  UNL1        0.0990
      6 C           4.7911   -1.8963   26.2515 C.ar    1  UNL1        0.0337
      7 C           3.9494   -1.6576   25.0331 C.3     1  UNL1        0.1220
      8 N           4.6944   -2.1878   23.8439 N.pl3   1  UNL1       -0.2853
      9 C           6.6268   -2.3133   29.6458 C.ar    1  UNL1        0.0841
     10 C           8.0386   -2.7128   29.9576 C.ar    1  UNL1        0.0192
     11 C           8.5124   -2.7435   31.3805 C.ar    1  UNL1        0.0029
     12 C           7.5745   -2.3749   32.4916 C.ar    1  UNL1        0.0184
     13 C           6.1627   -1.9754   32.1797 C.ar    1  UNL1        0.1072
     14 C           5.6889   -1.9447   30.7568 C.ar    1  UNL1        0.0375
     15 S           5.2248   -1.6068   33.2907 S.O2    1  UNL1        0.0105
     16 C           4.2868   -1.2380   34.4017 C.3     1  UNL1        0.1816
     17 O           4.1390   -2.4129   32.6417 O.2     1  UNL1       -0.1686
     18 O           6.3105   -0.8005   33.9397 O.2     1  UNL1       -0.1686
     19 C           4.2205   -2.1570   22.4211 C.ar    1  UNL1        0.1353
     20 C           3.4422   -0.9787   21.9151 C.ar    1  UNL1        0.0550
     21 C           2.9683   -0.9479   20.4924 C.ar    1  UNL1        0.1034
     22 N           3.2727   -2.0954   19.5754 N.ar    1  UNL1       -0.2217
     23 C           4.0509   -3.2737   20.0814 C.ar    1  UNL1        0.2363
     24 N           4.5248   -3.3044   21.5042 N.ar    1  UNL1       -0.2083
     25 C           4.3553   -4.4211   19.1645 C.3     1  UNL1        0.4523
     26 F           4.6597   -5.5685   18.2476 F       1  UNL1       -0.1632
     27 F           2.9301   -4.4254   18.6968 F       1  UNL1       -0.1632
     28 F           5.7805   -4.4167   19.6322 F       1  UNL1       -0.1632
     29 C           7.2864   -4.8691   23.5448 C.3     1  UNL1        0.0021
     30 C           7.0532   -3.3891   23.4731 C.3     1  UNL1        0.0240
     31 C           7.8768   -2.5441   22.5470 C.3     1  UNL1        0.0021
@<TRIPOS>BOND
     1    29    30    1
     2    30    31    1
     3     1    30    1
     4     1     2    1
     5     2     3   ar
     6     3     4   ar
     7     4     9    1
     8     9    10   ar
     9    10    11   ar
    10    11    12   ar
    11    12    13   ar
    12    13    15    1
    13    15    16    1
    14    15    17    2
    15    15    18    2
    16    13    14   ar
    17     4     5   ar
    18     5     6   ar
    19     6     7    1
    20     7     8    1
    21     8    19    1
    22    19    20   ar
    23    20    21   ar
    24    21    22   ar
    25    22    23   ar
    26    23    25    1
    27    25    26    1
    28    25    27    1
    29    25    28    1
    30    23    24   ar
    31     8     1    1
    32    24    19   ar
    33     6     2   ar
    34    14     9   ar
