@<TRIPOS>MOLECULE
*****
 40 43 0 0 0
SMALL
GASTEIGER

@<TRIPOS>ATOM
      1 C           1.0819    1.5285   20.4631 C.ar    1  UNL1        0.0611
      2 C          -0.0006    2.5052   20.8157 C.ar    1  UNL1        0.1037
      3 N          -0.1571    2.5049   22.3075 N.ar    1  UNL1       -0.2269
      4 C           0.8286    1.5281   22.8769 C.ar    1  UNL1        0.1407
      5 N           1.1278    1.1102   24.2860 N.ar    1  UNL1       -0.3374
      6 C           2.1928    0.0889   24.5553 C.ar    1  UNL1        0.0734
      7 C           2.9585   -0.5146   23.4154 C.ar    1  UNL1        0.0171
      8 C           2.6593   -0.0968   22.0062 C.ar    1  UNL1        0.0046
      9 C           1.5943    0.9246   21.7370 C.ar    1  UNL1        0.0386
     10 H           0.6252    1.5063   25.0342 H       1  UNL1        0.1674
     11 C           4.0236   -1.5361   23.6847 C.ar    1  UNL1        0.0015
     12 C           4.3100   -2.6057   22.6728 C.ar    1  UNL1        0.0014
     13 C           5.3750   -3.6271   22.9421 C.ar    1  UNL1        0.0199
     14 C           6.1536   -3.5789   24.2233 C.ar    1  UNL1        0.1219
     15 C           5.8671   -2.5093   25.2352 C.ar    1  UNL1        0.0199
     16 C           4.8021   -1.4879   24.9659 C.ar    1  UNL1        0.0014
     17 S           7.2185   -4.6003   24.4927 S.O2    1  UNL1        0.0603
     18 O           7.1133   -5.0834   23.0765 O.2     1  UNL1       -0.1530
     19 O           7.3237   -4.1171   25.9088 O.2     1  UNL1       -0.1530
     20 N           8.2835   -5.6216   24.7620 N.3     1  UNL1       -0.1779
     21 C           8.1474   -7.0102   24.2113 C.3     1  UNL1        0.1102
     22 H           8.3548   -5.7125   25.7754 H       1  UNL1        0.1488
     23 C           1.5668    1.2113   19.0795 C.2     1  UNL1        0.2015
     24 O           0.6082    0.6916   18.0495 O.2     1  UNL1       -0.2864
     25 C           5.3357    0.4311   18.1118 C.ar    1  UNL1        0.0920
     26 C           5.8976    1.8188   18.0187 C.ar    1  UNL1        0.0204
     27 C           5.0158    3.0039   18.2792 C.ar    1  UNL1        0.0312
     28 C           3.5723    2.8015   18.6328 C.ar    1  UNL1        0.1454
     29 F           2.6905    3.9867   18.8934 F       1  UNL1       -0.2040
     30 C           3.0104    1.4138   18.7259 C.ar    1  UNL1        0.0951
     31 C           3.8922    0.2286   18.4653 C.ar    1  UNL1        0.1598
     32 F           3.3302   -1.1590   18.5584 F       1  UNL1       -0.2026
     33 N           6.2175   -0.7541   17.8512 N.pl3   1  UNL1       -0.2166
     34 H           6.9306   -0.6979   17.1748 H       1  UNL1        0.1734
     35 S           6.0127   -2.0249   18.6213 S.O2    1  UNL1        0.0540
     36 O           6.4804   -1.3421   19.8723 O.2     1  UNL1       -0.1545
     37 O           5.5450   -2.7077   17.3703 O.2     1  UNL1       -0.1545
     38 C           5.8080   -3.2957   19.3913 C.3     1  UNL1        0.1724
     39 C           3.6760   -4.7680   19.5848 C.3     1  UNL1        0.0019
     40 C           4.9170   -4.3702   18.8421 C.3     1  UNL1        0.0273
@<TRIPOS>BOND
     1    39    40    1
     2    40    38    1
     3    38    35    1
     4    35    36    2
     5    35    37    2
     6    35    33    1
     7    33    25    1
     8    25    26   ar
     9    26    27   ar
    10    27    28   ar
    11    28    29    1
    12    28    30   ar
    13    30    23    1
    14    23    24    2
    15    23     1    1
    16     1     2   ar
    17     2     3   ar
    18     3     4   ar
    19     4     5   ar
    20     5     6   ar
    21     6     7   ar
    22     7    11    1
    23    11    12   ar
    24    12    13   ar
    25    13    14   ar
    26    14    17    1
    27    17    18    2
    28    17    19    2
    29    17    20    1
    30    20    21    1
    31    14    15   ar
    32    15    16   ar
    33     7     8   ar
    34     8     9   ar
    35    30    31   ar
    36    31    32    1
    37    31    25   ar
    38     9     1   ar
    39     9     4    1
    40    16    11   ar
    41    33    34    1
    42     5    10    1
    43    20    22    1
@<TRIPOS>MOLECULE
*****
 40 43 0 0 0
SMALL
GASTEIGER

@<TRIPOS>ATOM
      1 C           4.8071   -3.0490   22.7249 C.ar    1  UNL1        0.0611
      2 C           5.6891   -3.5242   23.8412 C.ar    1  UNL1        0.1037
      3 N           5.4357   -2.6524   25.0353 N.ar    1  UNL1       -0.2269
      4 C           4.3971   -1.6384   24.6569 C.ar    1  UNL1        0.1407
      5 N           3.7551   -0.5235   25.4281 N.ar    1  UNL1       -0.3374
      6 C           2.7244    0.3462   24.7714 C.ar    1  UNL1        0.0734
      7 C           2.3359    0.1011   23.3435 C.ar    1  UNL1        0.0171
      8 C           2.9780   -1.0137   22.5723 C.ar    1  UNL1        0.0046
      9 C           4.0086   -1.8835   23.2290 C.ar    1  UNL1        0.0386
     10 H           4.0101   -0.3627   26.3653 H       1  UNL1        0.1674
     11 C           1.3052    0.9709   22.6868 C.ar    1  UNL1        0.0015
     12 C           0.7966    2.1935   23.3913 C.ar    1  UNL1        0.0014
     13 C          -0.2341    3.0634   22.7346 C.ar    1  UNL1        0.0199
     14 C          -0.7561    2.7105   21.3734 C.ar    1  UNL1        0.1219
     15 C          -0.2474    1.4877   20.6688 C.ar    1  UNL1        0.0199
     16 C           0.7832    0.6180   21.3255 C.ar    1  UNL1        0.0014
     17 S          -1.7867    3.5802   20.7167 S.O2    1  UNL1        0.0603
     18 O          -0.7714    4.0179   19.7030 O.2     1  UNL1       -0.1530
     19 O          -2.8020    3.1424   21.7303 O.2     1  UNL1       -0.1530
     20 N          -2.8174    4.4499   20.0599 N.3     1  UNL1       -0.1779
     21 C          -3.4858    3.9968   18.7959 C.3     1  UNL1        0.1102
     22 H          -2.3625    5.3385   19.8503 H       1  UNL1        0.1488
     23 C           4.7360   -3.6361   21.3464 C.2     1  UNL1        0.2015
     24 O           4.1158   -4.9857   21.1371 O.2     1  UNL1       -0.2864
     25 C           4.9362   -1.2134   18.2094 C.ar    1  UNL1        0.0920
     26 C           6.3834   -1.3486   17.8387 C.ar    1  UNL1        0.0204
     27 C           7.2814   -2.2463   18.6373 C.ar    1  UNL1        0.0312
     28 C           6.7323   -3.0088   19.8065 C.ar    1  UNL1        0.1454
     29 F           7.6304   -3.9065   20.6050 F       1  UNL1       -0.2040
     30 C           5.2851   -2.8736   20.1771 C.ar    1  UNL1        0.0951
     31 C           4.3871   -1.9759   19.3786 C.ar    1  UNL1        0.1598
     32 F           2.9399   -1.8407   19.7494 F       1  UNL1       -0.2026
     33 N           4.0381   -0.3157   17.4109 N.pl3   1  UNL1       -0.2166
     34 H           3.8394   -0.5285   16.4704 H       1  UNL1        0.1734
     35 S           3.4429    0.9063   18.0452 S.O2    1  UNL1        0.0540
     36 O           4.8117    1.5060   18.1743 O.2     1  UNL1       -0.1545
     37 O           2.0741    0.3066   17.9162 O.2     1  UNL1       -0.1545
     38 C           2.8476    2.1282   18.6796 C.3     1  UNL1        0.1724
     39 C           2.8170    3.8775   20.6003 C.3     1  UNL1        0.0019
     40 C           3.3861    2.6334   19.9853 C.3     1  UNL1        0.0273
@<TRIPOS>BOND
     1    39    40    1
     2    40    38    1
     3    38    35    1
     4    35    36    2
     5    35    37    2
     6    35    33    1
     7    33    25    1
     8    25    26   ar
     9    26    27   ar
    10    27    28   ar
    11    28    29    1
    12    28    30   ar
    13    30    23    1
    14    23    24    2
    15    23     1    1
    16     1     2   ar
    17     2     3   ar
    18     3     4   ar
    19     4     5   ar
    20     5     6   ar
    21     6     7   ar
    22     7    11    1
    23    11    12   ar
    24    12    13   ar
    25    13    14   ar
    26    14    17    1
    27    17    18    2
    28    17    19    2
    29    17    20    1
    30    20    21    1
    31    14    15   ar
    32    15    16   ar
    33     7     8   ar
    34     8     9   ar
    35    30    31   ar
    36    31    32    1
    37    31    25   ar
    38     9     1   ar
    39     9     4    1
    40    16    11   ar
    41    33    34    1
    42     5    10    1
    43    20    22    1
@<TRIPOS>MOLECULE
*****
 40 43 0 0 0
SMALL
GASTEIGER

@<TRIPOS>ATOM
      1 C           5.0067   -2.2283   18.9688 C.ar    1  UNL1        0.0611
      2 C           5.4503   -1.4843   17.7442 C.ar    1  UNL1        0.1037
      3 N           6.9452   -1.5763   17.6621 N.ar    1  UNL1       -0.2269
      4 C           7.4255   -2.3771   18.8360 C.ar    1  UNL1        0.1407
      5 N           8.7990   -2.7915   19.2740 N.ar    1  UNL1       -0.3374
      6 C           8.9744   -3.6087   20.5194 C.ar    1  UNL1        0.0734
      7 C           7.7763   -4.0117   21.3270 C.ar    1  UNL1        0.0171
      8 C           6.4028   -3.5973   20.8891 C.ar    1  UNL1        0.0046
      9 C           6.2274   -2.7801   19.6436 C.ar    1  UNL1        0.0386
     10 H           9.5854   -2.5270   18.7439 H       1  UNL1        0.1674
     11 C           7.9517   -4.8290   22.5725 C.ar    1  UNL1        0.0015
     12 C           8.7796   -6.0793   22.5387 C.ar    1  UNL1        0.0014
     13 C           8.9550   -6.8967   23.7842 C.ar    1  UNL1        0.0199
     14 C           8.3025   -6.4635   25.0636 C.ar    1  UNL1        0.1219
     15 C           7.4746   -5.2131   25.0974 C.ar    1  UNL1        0.0199
     16 C           7.2992   -4.3959   23.8519 C.ar    1  UNL1        0.0014
     17 S           8.4779   -7.2808   26.3091 S.O2    1  UNL1        0.0603
     18 O           9.5241   -6.3204   26.7919 O.2     1  UNL1       -0.1530
     19 O           7.4318   -8.2412   25.8262 O.2     1  UNL1       -0.1530
     20 N           8.6533   -8.0980   27.5546 N.3     1  UNL1       -0.1779
     21 C           8.9666   -7.4227   28.8568 C.3     1  UNL1        0.1102
     22 H           9.4136   -8.7531   27.3723 H       1  UNL1        0.1488
     23 C           3.5909   -2.3918   19.4365 C.2     1  UNL1        0.2015
     24 O           2.8106   -3.6139   19.0527 O.2     1  UNL1       -0.2864
     25 C           2.4565   -0.3304   22.6325 C.ar    1  UNL1        0.0920
     26 C           1.6844    0.7844   21.9914 C.ar    1  UNL1        0.0204
     27 C           1.5478    0.8405   20.4987 C.ar    1  UNL1        0.0312
     28 C           2.1832   -0.2182   19.6470 C.ar    1  UNL1        0.1454
     29 F           2.0467   -0.1621   18.1543 F       1  UNL1       -0.2040
     30 C           2.9553   -1.3330   20.2882 C.ar    1  UNL1        0.0951
     31 C           3.0919   -1.3891   21.7809 C.ar    1  UNL1        0.1598
     32 F           3.8641   -2.5040   22.4219 F       1  UNL1       -0.2026
     33 N           2.5930   -0.3865   24.1252 N.pl3   1  UNL1       -0.2166
     34 H           1.7979   -0.5323   24.6872 H       1  UNL1        0.1734
     35 S           3.9411   -0.2205   24.7617 S.O2    1  UNL1        0.0540
     36 O           4.0417    1.1618   24.1881 O.2     1  UNL1       -0.1545
     37 O           3.8405   -1.6028   25.3354 O.2     1  UNL1       -0.1545
     38 C           5.2891   -0.0545   25.3983 C.3     1  UNL1        0.1724
     39 C           6.7114   -0.8189   23.3628 C.3     1  UNL1        0.0019
     40 C           6.4756   -0.7860   24.8438 C.3     1  UNL1        0.0273
@<TRIPOS>BOND
     1    39    40    1
     2    40    38    1
     3    38    35    1
     4    35    36    2
     5    35    37    2
     6    35    33    1
     7    33    25    1
     8    25    26   ar
     9    26    27   ar
    10    27    28   ar
    11    28    29    1
    12    28    30   ar
    13    30    23    1
    14    23    24    2
    15    23     1    1
    16     1     2   ar
    17     2     3   ar
    18     3     4   ar
    19     4     5   ar
    20     5     6   ar
    21     6     7   ar
    22     7    11    1
    23    11    12   ar
    24    12    13   ar
    25    13    14   ar
    26    14    17    1
    27    17    18    2
    28    17    19    2
    29    17    20    1
    30    20    21    1
    31    14    15   ar
    32    15    16   ar
    33     7     8   ar
    34     8     9   ar
    35    30    31   ar
    36    31    32    1
    37    31    25   ar
    38     9     1   ar
    39     9     4    1
    40    16    11   ar
    41    33    34    1
    42     5    10    1
    43    20    22    1
@<TRIPOS>MOLECULE
*****
 40 43 0 0 0
SMALL
GASTEIGER

@<TRIPOS>ATOM
      1 C           5.0040   -3.4057   22.5344 C.ar    1  UNL1        0.0611
      2 C           6.0555   -4.0482   23.3897 C.ar    1  UNL1        0.1037
      3 N           6.0753   -3.3385   24.7111 N.ar    1  UNL1       -0.2269
      4 C           5.0361   -2.2575   24.6724 C.ar    1  UNL1        0.1407
      5 N           4.6071   -1.2408   25.6883 N.ar    1  UNL1       -0.3374
      6 C           3.5161   -0.2656   25.3589 C.ar    1  UNL1        0.0734
      7 C           2.8540   -0.3071   24.0136 C.ar    1  UNL1        0.0171
      8 C           3.2829   -1.3239   22.9977 C.ar    1  UNL1        0.0046
      9 C           4.3739   -2.2991   23.3271 C.ar    1  UNL1        0.0386
     10 H           5.0417   -1.2135   26.5713 H       1  UNL1        0.1674
     11 C           1.7629    0.6682   23.6842 C.ar    1  UNL1        0.0015
     12 C           1.0327    1.3770   24.7862 C.ar    1  UNL1        0.0014
     13 C          -0.0584    2.3522   24.4569 C.ar    1  UNL1        0.0199
     14 C          -0.4193    2.6187   23.0255 C.ar    1  UNL1        0.1219
     15 C           0.3110    1.9098   21.9235 C.ar    1  UNL1        0.0199
     16 C           1.4020    0.9346   22.2529 C.ar    1  UNL1        0.0014
     17 S          -1.5103    3.5939   22.6961 S.O2    1  UNL1        0.0603
     18 O          -1.8301    2.8165   21.4538 O.2     1  UNL1       -0.1530
     19 O          -1.1905    4.3712   23.9384 O.2     1  UNL1       -0.1530
     20 N          -2.6013    4.5691   22.3667 N.3     1  UNL1       -0.1779
     21 C          -3.0131    4.7801   20.9399 C.3     1  UNL1        0.1102
     22 H          -2.3030    5.4765   22.7244 H       1  UNL1        0.1488
     23 C           4.6455   -3.8006   21.1324 C.2     1  UNL1        0.2015
     24 O           3.9296   -5.0938   20.8772 O.2     1  UNL1       -0.2864
     25 C           4.3129   -1.1272   18.2182 C.ar    1  UNL1        0.0920
     26 C           5.7174   -1.1055   17.6918 C.ar    1  UNL1        0.0204
     27 C           6.7645   -1.9822   18.3123 C.ar    1  UNL1        0.0312
     28 C           6.4072   -2.8806   19.4591 C.ar    1  UNL1        0.1454
     29 F           7.4544   -3.7572   20.0796 F       1  UNL1       -0.2040
     30 C           5.0028   -2.9022   19.9855 C.ar    1  UNL1        0.0951
     31 C           3.9557   -2.0256   19.3650 C.ar    1  UNL1        0.1598
     32 F           2.5512   -2.0473   19.8914 F       1  UNL1       -0.2026
     33 N           3.2658   -0.2505   17.5977 N.pl3   1  UNL1       -0.2166
     34 H           2.8580   -0.5037   16.7381 H       1  UNL1        0.1734
     35 S           2.8400    1.0119   18.2869 S.O2    1  UNL1        0.0540
     36 O           1.4298    0.5041   18.3457 O.2     1  UNL1       -0.1545
     37 O           4.2502    1.5196   18.2280 O.2     1  UNL1       -0.1545
     38 C           2.4144    2.2743   18.9760 C.3     1  UNL1        0.1724
     39 C           0.5434    4.0741   19.0798 C.3     1  UNL1        0.0019
     40 C           1.4963    3.2355   18.2807 C.3     1  UNL1        0.0273
@<TRIPOS>BOND
     1    39    40    1
     2    40    38    1
     3    38    35    1
     4    35    36    2
     5    35    37    2
     6    35    33    1
     7    33    25    1
     8    25    26   ar
     9    26    27   ar
    10    27    28   ar
    11    28    29    1
    12    28    30   ar
    13    30    23    1
    14    23    24    2
    15    23     1    1
    16     1     2   ar
    17     2     3   ar
    18     3     4   ar
    19     4     5   ar
    20     5     6   ar
    21     6     7   ar
    22     7    11    1
    23    11    12   ar
    24    12    13   ar
    25    13    14   ar
    26    14    17    1
    27    17    18    2
    28    17    19    2
    29    17    20    1
    30    20    21    1
    31    14    15   ar
    32    15    16   ar
    33     7     8   ar
    34     8     9   ar
    35    30    31   ar
    36    31    32    1
    37    31    25   ar
    38     9     1   ar
    39     9     4    1
    40    16    11   ar
    41    33    34    1
    42     5    10    1
    43    20    22    1
@<TRIPOS>MOLECULE
*****
 40 43 0 0 0
SMALL
GASTEIGER

@<TRIPOS>ATOM
      1 C           1.0359    1.1233   22.4758 C.ar    1  UNL1        0.0611
      2 C           0.2238    2.2042   23.1254 C.ar    1  UNL1        0.1037
      3 N           0.6348    2.2908   24.5654 N.ar    1  UNL1       -0.2269
      4 C           1.7010    1.2634   24.8057 C.ar    1  UNL1        0.1407
      5 N           2.4781    0.8917   26.0337 N.ar    1  UNL1       -0.3374
      6 C           3.5031   -0.2015   25.9701 C.ar    1  UNL1        0.0734
      7 C           3.7510   -0.9231   24.6787 C.ar    1  UNL1        0.0171
      8 C           2.9739   -0.5514   23.4507 C.ar    1  UNL1        0.0046
      9 C           1.9489    0.5419   23.5143 C.ar    1  UNL1        0.0386
     10 H           2.3154    1.3653   26.8813 H       1  UNL1        0.1674
     11 C           4.7761   -2.0164   24.6152 C.ar    1  UNL1        0.0015
     12 C           4.8402   -2.9157   23.4164 C.ar    1  UNL1        0.0014
     13 C           5.8653   -4.0090   23.3529 C.ar    1  UNL1        0.0199
     14 C           6.8262   -4.2030   24.4883 C.ar    1  UNL1        0.1219
     15 C           6.7620   -3.3036   25.6871 C.ar    1  UNL1        0.0199
     16 C           5.7370   -2.2104   25.7506 C.ar    1  UNL1        0.0014
     17 S           7.8513   -5.2962   24.4249 S.O2    1  UNL1        0.0603
     18 O           8.1617   -5.0894   25.8777 O.2     1  UNL1       -0.1530
     19 O           7.5409   -5.5029   22.9720 O.2     1  UNL1       -0.1530
     20 N           8.8763   -6.3894   24.3614 N.3     1  UNL1       -0.1779
     21 C           8.8835   -7.3446   23.2049 C.3     1  UNL1        0.1102
     22 H           8.7614   -6.9501   25.2057 H       1  UNL1        0.1488
     23 C           0.9502    0.6984   21.0398 C.2     1  UNL1        0.2015
     24 O          -0.3440    0.1795   20.4871 O.2     1  UNL1       -0.2864
     25 C           4.0108   -0.3621   18.7466 C.ar    1  UNL1        0.0920
     26 C           4.5760    0.9807   18.3895 C.ar    1  UNL1        0.0204
     27 C           3.9327    2.2293   18.9158 C.ar    1  UNL1        0.0312
     28 C           2.7241    2.1353   19.7992 C.ar    1  UNL1        0.1454
     29 F           2.0808    3.3839   20.3255 F       1  UNL1       -0.2040
     30 C           2.1589    0.7925   20.1563 C.ar    1  UNL1        0.0951
     31 C           2.8022   -0.4561   19.6300 C.ar    1  UNL1        0.1598
     32 F           2.2369   -1.7988   19.9872 F       1  UNL1       -0.2026
     33 N           4.6541   -1.6107   18.2203 N.pl3   1  UNL1       -0.2166
     34 H           4.1531   -2.2060   17.6171 H       1  UNL1        0.1734
     35 S           6.0609   -1.9524   18.6131 S.O2    1  UNL1        0.0540
     36 O           6.5298   -1.6124   17.2294 O.2     1  UNL1       -0.1545
     37 O           5.5920   -2.2924   19.9967 O.2     1  UNL1       -0.1545
     38 C           7.4676   -2.2941   19.0059 C.3     1  UNL1        0.1724
     39 C           8.6923   -2.6075   21.2758 C.3     1  UNL1        0.0019
     40 C           7.7254   -3.1039   20.2420 C.3     1  UNL1        0.0273
@<TRIPOS>BOND
     1    39    40    1
     2    40    38    1
     3    38    35    1
     4    35    36    2
     5    35    37    2
     6    35    33    1
     7    33    25    1
     8    25    26   ar
     9    26    27   ar
    10    27    28   ar
    11    28    29    1
    12    28    30   ar
    13    30    23    1
    14    23    24    2
    15    23     1    1
    16     1     2   ar
    17     2     3   ar
    18     3     4   ar
    19     4     5   ar
    20     5     6   ar
    21     6     7   ar
    22     7    11    1
    23    11    12   ar
    24    12    13   ar
    25    13    14   ar
    26    14    17    1
    27    17    18    2
    28    17    19    2
    29    17    20    1
    30    20    21    1
    31    14    15   ar
    32    15    16   ar
    33     7     8   ar
    34     8     9   ar
    35    30    31   ar
    36    31    32    1
    37    31    25   ar
    38     9     1   ar
    39     9     4    1
    40    16    11   ar
    41    33    34    1
    42     5    10    1
    43    20    22    1
@<TRIPOS>MOLECULE
*****
 40 43 0 0 0
SMALL
GASTEIGER

@<TRIPOS>ATOM
      1 C           0.3825    2.4086   22.7516 C.ar    1  UNL1        0.0611
      2 C          -0.7465    2.9595   21.9318 C.ar    1  UNL1        0.1037
      3 N          -0.8659    2.1275   20.6893 N.ar    1  UNL1       -0.2269
      4 C           0.1891    1.0626   20.7413 C.ar    1  UNL1        0.1407
      5 N           0.5470   -0.0429   19.7927 N.ar    1  UNL1       -0.3374
      6 C           1.6763   -0.9746   20.1187 C.ar    1  UNL1        0.0734
      7 C           2.4479   -0.8009   21.3932 C.ar    1  UNL1        0.0171
      8 C           2.0901    0.3046   22.3418 C.ar    1  UNL1        0.0046
      9 C           0.9607    1.2363   22.0158 C.ar    1  UNL1        0.0386
     10 H           0.0405   -0.1569   18.9562 H       1  UNL1        0.1674
     11 C           3.5773   -1.7327   21.7192 C.ar    1  UNL1        0.0015
     12 C           4.2374   -2.5219   20.6276 C.ar    1  UNL1        0.0014
     13 C           5.3668   -3.4537   20.9536 C.ar    1  UNL1        0.0199
     14 C           5.8362   -3.5963   22.3711 C.ar    1  UNL1        0.1219
     15 C           5.1761   -2.8070   23.4627 C.ar    1  UNL1        0.0199
     16 C           4.0467   -1.8753   23.1367 C.ar    1  UNL1        0.0014
     17 S           6.9655   -4.5280   22.6971 S.O2    1  UNL1        0.0603
     18 O           6.6716   -4.3725   24.1597 O.2     1  UNL1       -0.1530
     19 O           7.2594   -4.6835   21.2344 O.2     1  UNL1       -0.1530
     20 N           8.0949   -5.4598   23.0231 N.3     1  UNL1       -0.1779
     21 C           8.0068   -6.3536   24.2244 C.3     1  UNL1        0.1102
     22 H           8.9268   -4.8825   23.1459 H       1  UNL1        0.1488
     23 C           0.8509    2.9373   24.0749 C.2     1  UNL1        0.2015
     24 O           1.9376    3.9698   24.1278 O.2     1  UNL1       -0.2864
     25 C           0.2721    0.8196   27.3810 C.ar    1  UNL1        0.0920
     26 C          -1.0038    1.4254   27.8860 C.ar    1  UNL1        0.0204
     27 C          -1.6614    2.5352   27.1206 C.ar    1  UNL1        0.0312
     28 C          -1.0433    3.0392   25.8502 C.ar    1  UNL1        0.1454
     29 F          -1.7009    4.1490   25.0849 F       1  UNL1       -0.2040
     30 C           0.2327    2.4333   25.3453 C.ar    1  UNL1        0.0951
     31 C           0.8903    1.3235   26.1107 C.ar    1  UNL1        0.1598
     32 F           2.1662    0.7177   25.6056 F       1  UNL1       -0.2026
     33 N           0.9298   -0.2902   28.1464 N.pl3   1  UNL1       -0.2166
     34 H           0.4664   -1.1513   28.2607 H       1  UNL1        0.1734
     35 S           2.2934   -0.0880   28.7376 S.O2    1  UNL1        0.0540
     36 O           1.7839    1.0932   29.5090 O.2     1  UNL1       -0.1545
     37 O           2.8030   -1.2693   27.9663 O.2     1  UNL1       -0.1545
     38 C           3.6571    0.1141   29.3288 C.3     1  UNL1        0.1724
     39 C           3.6391   -0.9879   31.6816 C.3     1  UNL1        0.0019
     40 C           3.8212    0.2234   30.8158 C.3     1  UNL1        0.0273
@<TRIPOS>BOND
     1    39    40    1
     2    40    38    1
     3    38    35    1
     4    35    36    2
     5    35    37    2
     6    35    33    1
     7    33    25    1
     8    25    26   ar
     9    26    27   ar
    10    27    28   ar
    11    28    29    1
    12    28    30   ar
    13    30    23    1
    14    23    24    2
    15    23     1    1
    16     1     2   ar
    17     2     3   ar
    18     3     4   ar
    19     4     5   ar
    20     5     6   ar
    21     6     7   ar
    22     7    11    1
    23    11    12   ar
    24    12    13   ar
    25    13    14   ar
    26    14    17    1
    27    17    18    2
    28    17    19    2
    29    17    20    1
    30    20    21    1
    31    14    15   ar
    32    15    16   ar
    33     7     8   ar
    34     8     9   ar
    35    30    31   ar
    36    31    32    1
    37    31    25   ar
    38     9     1   ar
    39     9     4    1
    40    16    11   ar
    41    33    34    1
    42     5    10    1
    43    20    22    1
@<TRIPOS>MOLECULE
*****
 40 43 0 0 0
SMALL
GASTEIGER

@<TRIPOS>ATOM
      1 C           6.6963   -3.3729   29.9419 C.ar    1  UNL1        0.0611
      2 C           6.8097   -4.3221   31.0979 C.ar    1  UNL1        0.1037
      3 N           6.9726   -5.7072   30.5459 N.ar    1  UNL1       -0.2269
      4 C           6.9598   -5.6141   29.0488 C.ar    1  UNL1        0.1407
      5 N           7.0817   -6.6567   27.9773 N.ar    1  UNL1       -0.3374
      6 C           7.0328   -6.2565   26.5325 C.ar    1  UNL1        0.0734
      7 C           6.8620   -4.8137   26.1593 C.ar    1  UNL1        0.0171
      8 C           6.7402   -3.7712   27.2308 C.ar    1  UNL1        0.0046
      9 C           6.7891   -4.1714   28.6755 C.ar    1  UNL1        0.0386
     10 H           7.1937   -7.6036   28.2222 H       1  UNL1        0.1674
     11 C           6.8131   -4.4136   24.7144 C.ar    1  UNL1        0.0015
     12 C           5.7887   -3.4238   24.2446 C.ar    1  UNL1        0.0014
     13 C           5.7398   -3.0236   22.7997 C.ar    1  UNL1        0.0199
     14 C           6.7154   -3.6132   21.8247 C.ar    1  UNL1        0.1219
     15 C           7.7399   -4.6031   22.2947 C.ar    1  UNL1        0.0199
     16 C           7.7887   -5.0032   23.7394 C.ar    1  UNL1        0.0014
     17 S           6.6665   -3.2131   20.3800 S.O2    1  UNL1        0.0603
     18 O           5.9386   -4.4832   20.0528 O.2     1  UNL1       -0.1530
     19 O           7.3945   -1.9431   20.7071 O.2     1  UNL1       -0.1530
     20 N           6.6177   -2.8130   18.9352 N.3     1  UNL1       -0.1779
     21 C           5.3164   -2.8506   18.1901 C.3     1  UNL1        0.1102
     22 H           7.2601   -3.4292   18.4371 H       1  UNL1        0.1488
     23 C           6.5209   -1.8861   30.0359 C.2     1  UNL1        0.2015
     24 O           7.7074   -0.9802   29.8894 O.2     1  UNL1       -0.2864
     25 C           2.8387   -0.5617   29.3741 C.ar    1  UNL1        0.0920
     26 C           2.4351   -0.1436   30.7570 C.ar    1  UNL1        0.0204
     27 C           3.3934   -0.3063   31.8994 C.ar    1  UNL1        0.0312
     28 C           4.7553   -0.8871   31.6591 C.ar    1  UNL1        0.1454
     29 F           5.7136   -1.0498   32.8016 F       1  UNL1       -0.2040
     30 C           5.1589   -1.3052   30.2763 C.ar    1  UNL1        0.0951
     31 C           4.2007   -1.1425   29.1338 C.ar    1  UNL1        0.1598
     32 F           4.6044   -1.5607   27.7510 F       1  UNL1       -0.2026
     33 N           1.8805   -0.3990   28.2317 N.pl3   1  UNL1       -0.2166
     34 H           1.8611   -1.0649   27.5068 H       1  UNL1        0.1734
     35 S           0.9516    0.7782   28.1938 S.O2    1  UNL1        0.0540
     36 O          -0.2013   -0.1206   28.5297 O.2     1  UNL1       -0.1545
     37 O           2.1045    1.6770   27.8578 O.2     1  UNL1       -0.1545
     38 C           0.0229    1.9554   28.1558 C.3     1  UNL1        0.1724
     39 C          -0.6017    1.9102   25.6343 C.3     1  UNL1        0.0019
     40 C          -1.0067    2.0638   27.0703 C.3     1  UNL1        0.0273
@<TRIPOS>BOND
     1    39    40    1
     2    40    38    1
     3    38    35    1
     4    35    36    2
     5    35    37    2
     6    35    33    1
     7    33    25    1
     8    25    26   ar
     9    26    27   ar
    10    27    28   ar
    11    28    29    1
    12    28    30   ar
    13    30    23    1
    14    23    24    2
    15    23     1    1
    16     1     2   ar
    17     2     3   ar
    18     3     4   ar
    19     4     5   ar
    20     5     6   ar
    21     6     7   ar
    22     7    11    1
    23    11    12   ar
    24    12    13   ar
    25    13    14   ar
    26    14    17    1
    27    17    18    2
    28    17    19    2
    29    17    20    1
    30    20    21    1
    31    14    15   ar
    32    15    16   ar
    33     7     8   ar
    34     8     9   ar
    35    30    31   ar
    36    31    32    1
    37    31    25   ar
    38     9     1   ar
    39     9     4    1
    40    16    11   ar
    41    33    34    1
    42     5    10    1
    43    20    22    1
@<TRIPOS>MOLECULE
*****
 40 43 0 0 0
SMALL
GASTEIGER

@<TRIPOS>ATOM
      1 C           3.6843   -1.7737   19.1863 C.ar    1  UNL1        0.0611
      2 C           3.5432   -1.2005   17.8073 C.ar    1  UNL1        0.1037
      3 N           2.9421    0.1680   17.9336 N.ar    1  UNL1       -0.2269
      4 C           2.7119    0.4406   19.3905 C.ar    1  UNL1        0.1407
      5 N           2.1438    1.6265   20.1121 N.ar    1  UNL1       -0.3374
      6 C           2.0343    1.6124   21.6080 C.ar    1  UNL1        0.0734
      7 C           2.4931    0.4123   22.3823 C.ar    1  UNL1        0.0171
      8 C           3.0612   -0.7736   21.6606 C.ar    1  UNL1        0.0046
      9 C           3.1706   -0.7594   20.1647 C.ar    1  UNL1        0.0386
     10 H           1.8427    2.4141   19.6040 H       1  UNL1        0.1674
     11 C           2.3836    0.3982   23.8783 C.ar    1  UNL1        0.0015
     12 C           3.3817   -0.3666   24.6961 C.ar    1  UNL1        0.0014
     13 C           3.2723   -0.3807   26.1921 C.ar    1  UNL1        0.0199
     14 C           2.1647    0.3700   26.8702 C.ar    1  UNL1        0.1219
     15 C           1.1666    1.1349   26.0523 C.ar    1  UNL1        0.0199
     16 C           1.2761    1.1489   24.5564 C.ar    1  UNL1        0.0014
     17 S           2.0553    0.3560   28.3661 S.O2    1  UNL1        0.0603
     18 O           2.5086   -1.0737   28.3858 O.2     1  UNL1       -0.1530
     19 O           1.6019    1.7856   28.3464 O.2     1  UNL1       -0.1530
     20 N           1.9458    0.3419   29.8620 N.3     1  UNL1       -0.1779
     21 C           2.6915   -0.6871   30.6589 C.3     1  UNL1        0.1102
     22 H           0.9570    0.2262   30.0838 H       1  UNL1        0.1488
     23 C           4.2415   -3.1241   19.5270 C.2     1  UNL1        0.2015
     24 O           3.5001   -4.3645   19.1251 O.2     1  UNL1       -0.2864
     25 C           6.8482   -3.7915   22.4442 C.ar    1  UNL1        0.0920
     26 C           8.1372   -3.4539   21.7552 C.ar    1  UNL1        0.0204
     27 C           8.1276   -3.0064   20.3236 C.ar    1  UNL1        0.0312
     28 C           6.8291   -2.8964   19.5808 C.ar    1  UNL1        0.1454
     29 F           6.8194   -2.4489   18.1492 F       1  UNL1       -0.2040
     30 C           5.5401   -3.2340   20.2698 C.ar    1  UNL1        0.0951
     31 C           5.5497   -3.6815   21.7014 C.ar    1  UNL1        0.1598
     32 F           4.2607   -4.0191   22.3903 F       1  UNL1       -0.2026
     33 N           6.8579   -4.2390   23.8758 N.pl3   1  UNL1       -0.2166
     34 H           6.1868   -3.8891   24.5055 H       1  UNL1        0.1734
     35 S           7.8900   -5.2196   24.3481 S.O2    1  UNL1        0.0540
     36 O           8.1780   -4.3458   25.5328 O.2     1  UNL1       -0.1545
     37 O           7.6020   -6.0933   23.1634 O.2     1  UNL1       -0.1545
     38 C           8.9222   -6.2002   24.8204 C.3     1  UNL1        0.1724
     39 C           7.7389   -8.0046   26.2675 C.3     1  UNL1        0.0019
     40 C           8.5432   -7.6321   25.0575 C.3     1  UNL1        0.0273
@<TRIPOS>BOND
     1    39    40    1
     2    40    38    1
     3    38    35    1
     4    35    36    2
     5    35    37    2
     6    35    33    1
     7    33    25    1
     8    25    26   ar
     9    26    27   ar
    10    27    28   ar
    11    28    29    1
    12    28    30   ar
    13    30    23    1
    14    23    24    2
    15    23     1    1
    16     1     2   ar
    17     2     3   ar
    18     3     4   ar
    19     4     5   ar
    20     5     6   ar
    21     6     7   ar
    22     7    11    1
    23    11    12   ar
    24    12    13   ar
    25    13    14   ar
    26    14    17    1
    27    17    18    2
    28    17    19    2
    29    17    20    1
    30    20    21    1
    31    14    15   ar
    32    15    16   ar
    33     7     8   ar
    34     8     9   ar
    35    30    31   ar
    36    31    32    1
    37    31    25   ar
    38     9     1   ar
    39     9     4    1
    40    16    11   ar
    41    33    34    1
    42     5    10    1
    43    20    22    1
@<TRIPOS>MOLECULE
*****
 40 43 0 0 0
SMALL
GASTEIGER

@<TRIPOS>ATOM
      1 C         -10.8432  -17.7821   21.7064 C.ar    1  UNL1        0.0611
      2 C         -12.1484  -18.3867   21.2810 C.ar    1  UNL1        0.1037
      3 N         -11.8503  -19.5282   20.3546 N.ar    1  UNL1       -0.2269
      4 C         -10.3610  -19.6291   20.2075 C.ar    1  UNL1        0.1407
      5 N          -9.4912  -20.5643   19.4208 N.ar    1  UNL1       -0.3374
      6 C          -7.9990  -20.4203   19.4695 C.ar    1  UNL1        0.0734
      7 C          -7.3765  -19.3411   20.3049 C.ar    1  UNL1        0.0171
      8 C          -8.2463  -18.4060   21.0917 C.ar    1  UNL1        0.0046
      9 C          -9.7385  -18.5500   21.0430 C.ar    1  UNL1        0.0386
     10 H          -9.8998  -21.2725   18.8724 H       1  UNL1        0.1674
     11 C          -5.8842  -19.1971   20.3536 C.ar    1  UNL1        0.0015
     12 C          -5.1463  -18.6328   19.1759 C.ar    1  UNL1        0.0014
     13 C          -3.6540  -18.4888   19.2245 C.ar    1  UNL1        0.0199
     14 C          -2.8996  -18.9092   20.4510 C.ar    1  UNL1        0.1219
     15 C          -3.6375  -19.4736   21.6287 C.ar    1  UNL1        0.0199
     16 C          -5.1297  -19.6175   21.5800 C.ar    1  UNL1        0.0014
     17 S          -1.4073  -18.7652   20.4997 S.O2    1  UNL1        0.0603
     18 O          -1.3935  -18.4150   19.0412 O.2     1  UNL1       -0.1530
     19 O          -1.4212  -19.1155   21.9581 O.2     1  UNL1       -0.1530
     20 N           0.0849  -18.6213   20.5484 N.3     1  UNL1       -0.1779
     21 C           0.7337  -17.3633   20.0518 C.3     1  UNL1        0.1102
     22 H           0.4728  -19.3889   20.0001 H       1  UNL1        0.1488
     23 C         -10.6725  -16.6147   22.6326 C.2     1  UNL1        0.2015
     24 O         -11.4001  -15.3310   22.3633 O.2     1  UNL1       -0.2864
     25 C          -7.5939  -16.0701   25.0773 C.ar    1  UNL1        0.0920
     26 C          -7.9776  -16.9635   26.2195 C.ar    1  UNL1        0.0204
     27 C          -9.2595  -17.7405   26.1662 C.ar    1  UNL1        0.0312
     28 C         -10.1578  -17.6243   24.9706 C.ar    1  UNL1        0.1454
     29 F         -11.4397  -18.4013   24.9173 F       1  UNL1       -0.2040
     30 C          -9.7742  -16.7310   23.8283 C.ar    1  UNL1        0.0951
     31 C          -8.4922  -15.9539   23.8817 C.ar    1  UNL1        0.1598
     32 F          -8.1087  -15.0606   22.7393 F       1  UNL1       -0.2026
     33 N          -6.3120  -15.2931   25.1306 N.pl3   1  UNL1       -0.2166
     34 H          -6.2730  -14.4409   25.6220 H       1  UNL1        0.1734
     35 S          -5.0895  -15.8144   24.4352 S.O2    1  UNL1        0.0540
     36 O          -5.3577  -14.8992   23.2775 O.2     1  UNL1       -0.1545
     37 O          -4.8212  -16.7297   25.5929 O.2     1  UNL1       -0.1545
     38 C          -3.8670  -16.3359   23.7399 C.3     1  UNL1        0.1724
     39 C          -2.0971  -15.8040   21.9137 C.3     1  UNL1        0.0019
     40 C          -3.5285  -15.8581   22.3588 C.3     1  UNL1        0.0273
@<TRIPOS>BOND
     1    39    40    1
     2    40    38    1
     3    38    35    1
     4    35    36    2
     5    35    37    2
     6    35    33    1
     7    33    25    1
     8    25    26   ar
     9    26    27   ar
    10    27    28   ar
    11    28    29    1
    12    28    30   ar
    13    30    23    1
    14    23    24    2
    15    23     1    1
    16     1     2   ar
    17     2     3   ar
    18     3     4   ar
    19     4     5   ar
    20     5     6   ar
    21     6     7   ar
    22     7    11    1
    23    11    12   ar
    24    12    13   ar
    25    13    14   ar
    26    14    17    1
    27    17    18    2
    28    17    19    2
    29    17    20    1
    30    20    21    1
    31    14    15   ar
    32    15    16   ar
    33     7     8   ar
    34     8     9   ar
    35    30    31   ar
    36    31    32    1
    37    31    25   ar
    38     9     1   ar
    39     9     4    1
    40    16    11   ar
    41    33    34    1
    42     5    10    1
    43    20    22    1
