@<TRIPOS>MOLECULE
*****
 21 23 0 0 0
SMALL
GASTEIGER

@<TRIPOS>ATOM
      1 C          -4.2937  -17.4194   22.8927 C.3     1  UNL1        0.0798
      2 C          -5.0550  -16.4382   23.7338 C.3     1  UNL1        0.0421
      3 C          -6.5529  -16.4987   23.7860 C.3     1  UNL1        0.0973
      4 N          -7.2894  -17.5403   22.9971 N.pl3   1  UNL1       -0.2870
      5 C          -6.5280  -18.5216   22.1559 C.ar    1  UNL1        0.0488
      6 C          -7.2645  -19.5632   21.3669 C.ar    1  UNL1        0.0146
      7 C          -6.5032  -20.5444   20.5258 C.ar    1  UNL1        0.0013
      8 C          -5.0053  -20.4840   20.4736 C.ar    1  UNL1       -0.0002
      9 C          -4.2688  -19.4423   21.2625 C.ar    1  UNL1       -0.0017
     10 C          -5.0302  -18.4611   22.1037 C.ar    1  UNL1        0.0057
     11 C          -8.7873  -17.6008   23.0493 C.ar    1  UNL1        0.0525
     12 C          -9.4688  -18.3999   24.1203 C.ar    1  UNL1        0.0157
     13 C         -10.9666  -18.4603   24.1725 C.ar    1  UNL1        0.0135
     14 C         -11.7830  -17.7218   23.1537 C.ar    1  UNL1        0.0683
     15 CL        -13.2809  -17.7822   23.2059 Cl      1  UNL1       -0.0814
     16 C         -11.1015  -16.9227   22.0826 C.ar    1  UNL1        0.0694
     17 CL        -11.9179  -16.1841   21.0638 Cl      1  UNL1       -0.0813
     18 C          -9.6037  -16.8622   22.0304 C.ar    1  UNL1        0.0271
     19 C          -2.1158  -16.4133   21.8953 C.3     1  UNL1        0.0861
     20 N          -2.7958  -17.3589   22.8405 N.3     1  UNL1       -0.2939
     21 H          -2.4780  -17.1165   23.7789 H       1  UNL1        0.1235
@<TRIPOS>BOND
     1    19    20    1
     2     1    20    1
     3     1     2    1
     4     2     3    1
     5     3     4    1
     6     4    11    1
     7    11    12   ar
     8    12    13   ar
     9    13    14   ar
    10    14    15    1
    11    14    16   ar
    12    16    17    1
    13    16    18   ar
    14     4     5    1
    15     5     6   ar
    16     6     7   ar
    17     7     8   ar
    18     8     9   ar
    19     9    10   ar
    20    10     1    1
    21    18    11   ar
    22    10     5   ar
    23    20    21    1
@<TRIPOS>MOLECULE
*****
 21 23 0 0 0
SMALL
GASTEIGER

@<TRIPOS>ATOM
      1 C          -9.9094  -18.6323   23.6983 C.3     1  UNL1        0.0798
      2 C          -9.4889  -19.8284   22.8968 C.3     1  UNL1        0.0421
      3 C          -8.1323  -19.8638   22.2577 C.3     1  UNL1        0.0973
      4 N          -7.1963  -18.7030   22.4200 N.pl3   1  UNL1       -0.2870
      5 C          -7.6168  -17.5068   23.2215 C.ar    1  UNL1        0.0488
      6 C          -6.6807  -16.3460   23.3838 C.ar    1  UNL1        0.0146
      7 C          -7.1012  -15.1499   24.1853 C.ar    1  UNL1        0.0013
      8 C          -8.4578  -15.1145   24.8244 C.ar    1  UNL1       -0.0002
      9 C          -9.3939  -16.2753   24.6621 C.ar    1  UNL1       -0.0017
     10 C          -8.9733  -17.4714   23.8606 C.ar    1  UNL1        0.0057
     11 C          -5.8397  -18.7384   21.7809 C.ar    1  UNL1        0.0525
     12 C          -5.7053  -19.0706   20.3243 C.ar    1  UNL1        0.0157
     13 C          -4.3487  -19.1059   19.6852 C.ar    1  UNL1        0.0135
     14 C          -3.1266  -18.8091   20.5026 C.ar    1  UNL1        0.0683
     15 CL         -1.7700  -18.8444   19.8635 Cl      1  UNL1       -0.0814
     16 C          -3.2610  -18.4768   21.9592 C.ar    1  UNL1        0.0694
     17 CL         -2.0388  -18.1800   22.7766 Cl      1  UNL1       -0.0813
     18 C          -4.6175  -18.4415   22.5983 C.ar    1  UNL1        0.0271
     19 C         -12.4640  -18.1890   23.5322 C.3     1  UNL1        0.0861
     20 N         -11.2660  -18.5969   24.3374 N.3     1  UNL1       -0.2939
     21 H         -11.4518  -19.5373   24.6861 H       1  UNL1        0.1235
@<TRIPOS>BOND
     1    19    20    1
     2     1    20    1
     3     1     2    1
     4     2     3    1
     5     3     4    1
     6     4    11    1
     7    11    12   ar
     8    12    13   ar
     9    13    14   ar
    10    14    15    1
    11    14    16   ar
    12    16    17    1
    13    16    18   ar
    14     4     5    1
    15     5     6   ar
    16     6     7   ar
    17     7     8   ar
    18     8     9   ar
    19     9    10   ar
    20    10     1    1
    21    18    11   ar
    22    10     5   ar
    23    20    21    1
@<TRIPOS>MOLECULE
*****
 21 23 0 0 0
SMALL
GASTEIGER

@<TRIPOS>ATOM
      1 C         -12.4260  -18.2593   23.7805 C.3     1  UNL1        0.0798
      2 C         -11.4700  -19.0108   24.6587 C.3     1  UNL1        0.0421
      3 C         -10.0380  -19.1727   24.2424 C.3     1  UNL1        0.0973
      4 N          -9.5620  -18.5831   22.9479 N.pl3   1  UNL1       -0.2870
      5 C         -10.5180  -17.8315   22.0697 C.ar    1  UNL1        0.0488
      6 C         -10.0421  -17.2419   20.7752 C.ar    1  UNL1        0.0146
      7 C         -10.9981  -16.4904   19.8970 C.ar    1  UNL1        0.0013
      8 C         -12.4300  -16.3285   20.3132 C.ar    1  UNL1       -0.0002
      9 C         -12.9060  -16.9182   21.6077 C.ar    1  UNL1       -0.0017
     10 C         -11.9500  -17.6696   22.4859 C.ar    1  UNL1        0.0057
     11 C          -8.1301  -18.7449   22.5317 C.ar    1  UNL1        0.0525
     12 C          -7.1028  -17.7456   22.9744 C.ar    1  UNL1        0.0157
     13 C          -5.6708  -17.9075   22.5581 C.ar    1  UNL1        0.0135
     14 C          -5.2662  -19.0687   21.6991 C.ar    1  UNL1        0.0683
     15 CL         -3.8342  -19.2305   21.2828 Cl      1  UNL1       -0.0814
     16 C          -6.2935  -20.0680   21.2563 C.ar    1  UNL1        0.0694
     17 CL         -5.8888  -21.2292   20.3973 Cl      1  UNL1       -0.0813
     18 C          -7.7254  -19.9062   21.6726 C.ar    1  UNL1        0.0271
     19 C         -14.2880  -18.4998   25.5763 C.3     1  UNL1        0.0861
     20 N         -13.8579  -18.0975   24.1968 N.3     1  UNL1       -0.2939
     21 H         -14.0842  -17.1081   24.0946 H       1  UNL1        0.1235
@<TRIPOS>BOND
     1    19    20    1
     2     1    20    1
     3     1     2    1
     4     2     3    1
     5     3     4    1
     6     4    11    1
     7    11    12   ar
     8    12    13   ar
     9    13    14   ar
    10    14    15    1
    11    14    16   ar
    12    16    17    1
    13    16    18   ar
    14     4     5    1
    15     5     6   ar
    16     6     7   ar
    17     7     8   ar
    18     8     9   ar
    19     9    10   ar
    20    10     1    1
    21    18    11   ar
    22    10     5   ar
    23    20    21    1
@<TRIPOS>MOLECULE
*****
 21 23 0 0 0
SMALL
GASTEIGER

@<TRIPOS>ATOM
      1 C         -12.1033   -3.2081   19.0471 C.3     1  UNL1        0.0798
      2 C         -13.5995   -3.1153   18.9944 C.3     1  UNL1        0.0421
      3 C         -14.4250   -4.3632   18.8880 C.3     1  UNL1        0.0973
      4 N         -13.7544   -5.7038   18.8343 N.pl3   1  UNL1       -0.2870
      5 C         -12.2582   -5.7967   18.8870 C.ar    1  UNL1        0.0488
      6 C         -11.5876   -7.1373   18.8333 C.ar    1  UNL1        0.0146
      7 C         -10.0914   -7.2301   18.8860 C.ar    1  UNL1        0.0013
      8 C          -9.2658   -5.9823   18.9924 C.ar    1  UNL1       -0.0002
      9 C          -9.9364   -4.6416   19.0461 C.ar    1  UNL1       -0.0017
     10 C         -11.4326   -4.5488   18.9934 C.ar    1  UNL1        0.0057
     11 C         -14.5800   -6.9517   18.7279 C.ar    1  UNL1        0.0525
     12 C         -14.1837   -8.0335   17.7674 C.ar    1  UNL1        0.0157
     13 C         -15.0093   -9.2814   17.6610 C.ar    1  UNL1        0.0135
     14 C         -16.2311   -9.4474   18.5151 C.ar    1  UNL1        0.0683
     15 CL        -17.0567  -10.6952   18.4087 Cl      1  UNL1       -0.0814
     16 C         -16.6275   -8.3655   19.4756 C.ar    1  UNL1        0.0694
     17 CL        -17.8493   -8.5315   20.3297 Cl      1  UNL1       -0.0813
     18 C         -15.8019   -7.1176   19.5820 C.ar    1  UNL1        0.0271
     19 C         -11.1696   -1.0304   17.9816 C.3     1  UNL1        0.0861
     20 N         -11.2777   -1.9603   19.1535 N.3     1  UNL1       -0.2939
     21 H         -11.6634   -1.4170   19.9258 H       1  UNL1        0.1235
@<TRIPOS>BOND
     1    19    20    1
     2     1    20    1
     3     1     2    1
     4     2     3    1
     5     3     4    1
     6     4    11    1
     7    11    12   ar
     8    12    13   ar
     9    13    14   ar
    10    14    15    1
    11    14    16   ar
    12    16    17    1
    13    16    18   ar
    14     4     5    1
    15     5     6   ar
    16     6     7   ar
    17     7     8   ar
    18     8     9   ar
    19     9    10   ar
    20    10     1    1
    21    18    11   ar
    22    10     5   ar
    23    20    21    1
@<TRIPOS>MOLECULE
*****
 21 23 0 0 0
SMALL
GASTEIGER

@<TRIPOS>ATOM
      1 C         -11.1180  -17.6280   22.6231 C.3     1  UNL1        0.0798
      2 C         -10.3977  -16.9998   23.7791 C.3     1  UNL1        0.0421
      3 C          -8.8993  -17.0374   23.8390 C.3     1  UNL1        0.0973
      4 N          -8.1214  -17.7033   22.7430 N.pl3   1  UNL1       -0.2870
      5 C          -8.8417  -18.3316   21.5869 C.ar    1  UNL1        0.0488
      6 C          -8.0637  -18.9974   20.4909 C.ar    1  UNL1        0.0146
      7 C          -8.7840  -19.6257   19.3350 C.ar    1  UNL1        0.0013
      8 C         -10.2824  -19.5881   19.2750 C.ar    1  UNL1       -0.0002
      9 C         -11.0604  -18.9222   20.3710 C.ar    1  UNL1       -0.0017
     10 C         -10.3400  -18.2940   21.5270 C.ar    1  UNL1        0.0057
     11 C          -6.6230  -17.7409   22.8030 C.ar    1  UNL1        0.0525
     12 C          -5.8748  -16.6695   23.5394 C.ar    1  UNL1        0.0157
     13 C          -4.3764  -16.7071   23.5993 C.ar    1  UNL1        0.0135
     14 C          -3.6264  -17.8161   22.9229 C.ar    1  UNL1        0.0683
     15 CL         -2.1280  -17.8537   22.9829 Cl      1  UNL1       -0.0814
     16 C          -4.3746  -18.8875   22.1865 C.ar    1  UNL1        0.0694
     17 CL         -3.6246  -19.9965   21.5101 Cl      1  UNL1       -0.0813
     18 C          -5.8730  -18.8499   22.1265 C.ar    1  UNL1        0.0271
     19 C         -13.4250  -17.9764   23.7660 C.3     1  UNL1        0.0861
     20 N         -12.6163  -17.5904   22.5631 N.3     1  UNL1       -0.2939
     21 H         -12.8777  -16.6330   22.3275 H       1  UNL1        0.1235
@<TRIPOS>BOND
     1    19    20    1
     2     1    20    1
     3     1     2    1
     4     2     3    1
     5     3     4    1
     6     4    11    1
     7    11    12   ar
     8    12    13   ar
     9    13    14   ar
    10    14    15    1
    11    14    16   ar
    12    16    17    1
    13    16    18   ar
    14     4     5    1
    15     5     6   ar
    16     6     7   ar
    17     7     8   ar
    18     8     9   ar
    19     9    10   ar
    20    10     1    1
    21    18    11   ar
    22    10     5   ar
    23    20    21    1
@<TRIPOS>MOLECULE
*****
 21 23 0 0 0
SMALL
GASTEIGER

@<TRIPOS>ATOM
      1 C          -7.1307  -15.5469   25.7794 C.3     1  UNL1        0.0798
      2 C          -5.6709  -15.3792   26.0803 C.3     1  UNL1        0.0421
      3 C          -4.6428  -15.8636   25.1013 C.3     1  UNL1        0.0973
      4 N          -5.0746  -16.5156   23.8214 N.pl3   1  UNL1       -0.2870
      5 C          -6.5345  -16.6834   23.5204 C.ar    1  UNL1        0.0488
      6 C          -6.9663  -17.3355   22.2404 C.ar    1  UNL1        0.0146
      7 C          -8.4261  -17.5032   21.9395 C.ar    1  UNL1        0.0013
      8 C          -9.4542  -17.0188   22.9185 C.ar    1  UNL1       -0.0002
      9 C          -9.0225  -16.3668   24.1984 C.ar    1  UNL1       -0.0017
     10 C          -7.5626  -16.1990   24.4994 C.ar    1  UNL1        0.0057
     11 C          -4.0465  -17.0000   22.8424 C.ar    1  UNL1        0.0525
     12 C          -2.9779  -16.0675   22.3541 C.ar    1  UNL1        0.0157
     13 C          -1.9498  -16.5518   21.3751 C.ar    1  UNL1        0.0135
     14 C          -1.9903  -17.9687   20.8844 C.ar    1  UNL1        0.0683
     15 CL         -0.9622  -18.4530   19.9054 Cl      1  UNL1       -0.0814
     16 C          -3.0589  -18.9013   21.3727 C.ar    1  UNL1        0.0694
     17 CL         -3.0994  -20.3182   20.8820 Cl      1  UNL1       -0.0813
     18 C          -4.0870  -18.4169   22.3517 C.ar    1  UNL1        0.0271
     19 C          -8.6367  -15.9688   27.8540 C.3     1  UNL1        0.0861
     20 N          -8.1588  -15.0626   26.7584 N.3     1  UNL1       -0.2939
     21 H          -7.7689  -14.2352   27.2097 H       1  UNL1        0.1235
@<TRIPOS>BOND
     1    19    20    1
     2     1    20    1
     3     1     2    1
     4     2     3    1
     5     3     4    1
     6     4    11    1
     7    11    12   ar
     8    12    13   ar
     9    13    14   ar
    10    14    15    1
    11    14    16   ar
    12    16    17    1
    13    16    18   ar
    14     4     5    1
    15     5     6   ar
    16     6     7   ar
    17     7     8   ar
    18     8     9   ar
    19     9    10   ar
    20    10     1    1
    21    18    11   ar
    22    10     5   ar
    23    20    21    1
@<TRIPOS>MOLECULE
*****
 21 23 0 0 0
SMALL
GASTEIGER

@<TRIPOS>ATOM
      1 C         -14.1147   -7.0922   18.8349 C.3     1  UNL1        0.0798
      2 C         -15.4806   -6.4732   18.8040 C.3     1  UNL1        0.0421
      3 C         -15.6275   -4.9804   18.7965 C.3     1  UNL1        0.0973
      4 N         -14.4085   -4.1067   18.8199 N.pl3   1  UNL1       -0.2870
      5 C         -13.0425   -4.7257   18.8508 C.ar    1  UNL1        0.0488
      6 C         -11.8235   -3.8520   18.8742 C.ar    1  UNL1        0.0146
      7 C         -10.4576   -4.4710   18.9051 C.ar    1  UNL1        0.0013
      8 C         -10.3107   -5.9638   18.9126 C.ar    1  UNL1       -0.0002
      9 C         -11.5297   -6.8375   18.8892 C.ar    1  UNL1       -0.0017
     10 C         -12.8956   -6.2185   18.8583 C.ar    1  UNL1        0.0057
     11 C         -14.5555   -2.6139   18.8124 C.ar    1  UNL1        0.0525
     12 C         -13.7511   -1.7859   17.8546 C.ar    1  UNL1        0.0157
     13 C         -13.8980   -0.2931   17.8471 C.ar    1  UNL1        0.0135
     14 C         -14.8493    0.3716   18.7974 C.ar    1  UNL1        0.0683
     15 CL        -14.9962    1.8644   18.7898 Cl      1  UNL1       -0.0814
     16 C         -15.6538   -0.4563   19.7552 C.ar    1  UNL1        0.0694
     17 CL        -16.6051    0.2084   20.7054 Cl      1  UNL1       -0.0813
     18 C         -15.5068   -1.9491   19.7627 C.ar    1  UNL1        0.0271
     19 C         -14.8953   -9.4340   18.0247 C.3     1  UNL1        0.0861
     20 N         -13.9678   -8.5850   18.8425 N.3     1  UNL1       -0.2939
     21 H         -13.0214   -8.7893   18.5213 H       1  UNL1        0.1235
@<TRIPOS>BOND
     1    19    20    1
     2     1    20    1
     3     1     2    1
     4     2     3    1
     5     3     4    1
     6     4    11    1
     7    11    12   ar
     8    12    13   ar
     9    13    14   ar
    10    14    15    1
    11    14    16   ar
    12    16    17    1
    13    16    18   ar
    14     4     5    1
    15     5     6   ar
    16     6     7   ar
    17     7     8   ar
    18     8     9   ar
    19     9    10   ar
    20    10     1    1
    21    18    11   ar
    22    10     5   ar
    23    20    21    1
@<TRIPOS>MOLECULE
*****
 21 23 0 0 0
SMALL
GASTEIGER

@<TRIPOS>ATOM
      1 C          -8.1413  -15.8963   25.0292 C.3     1  UNL1        0.0798
      2 C          -6.7404  -15.5116   24.6557 C.3     1  UNL1        0.0421
      3 C          -5.9701  -16.3447   23.6747 C.3     1  UNL1        0.0973
      4 N          -6.6006  -17.5626   23.0671 N.pl3   1  UNL1       -0.2870
      5 C          -8.0016  -17.9473   23.4406 C.ar    1  UNL1        0.0488
      6 C          -8.6321  -19.1652   22.8330 C.ar    1  UNL1        0.0146
      7 C         -10.0330  -19.5499   23.2064 C.ar    1  UNL1        0.0013
      8 C         -10.8033  -18.7168   24.1875 C.ar    1  UNL1       -0.0002
      9 C         -10.1728  -17.4989   24.7951 C.ar    1  UNL1       -0.0017
     10 C          -8.7719  -17.1142   24.4216 C.ar    1  UNL1        0.0057
     11 C          -5.8303  -18.3957   22.0861 C.ar    1  UNL1        0.0525
     12 C          -6.5025  -18.9088   20.8472 C.ar    1  UNL1        0.0157
     13 C          -5.7322  -19.7420   19.8662 C.ar    1  UNL1        0.0135
     14 C          -4.2896  -20.0620   20.1240 C.ar    1  UNL1        0.0683
     15 CL         -3.5193  -20.8952   19.1429 Cl      1  UNL1       -0.0814
     16 C          -3.6173  -19.5489   21.3629 C.ar    1  UNL1        0.0694
     17 CL         -2.1747  -19.8689   21.6206 Cl      1  UNL1       -0.0813
     18 C          -4.3876  -18.7157   22.3439 C.ar    1  UNL1        0.0271
     19 C          -8.5010  -15.0316   27.4526 C.3     1  UNL1        0.0861
     20 N          -8.9116  -15.0631   26.0103 N.3     1  UNL1       -0.2939
     21 H          -8.8749  -14.1014   25.6725 H       1  UNL1        0.1235
@<TRIPOS>BOND
     1    19    20    1
     2     1    20    1
     3     1     2    1
     4     2     3    1
     5     3     4    1
     6     4    11    1
     7    11    12   ar
     8    12    13   ar
     9    13    14   ar
    10    14    15    1
    11    14    16   ar
    12    16    17    1
    13    16    18   ar
    14     4     5    1
    15     5     6   ar
    16     6     7   ar
    17     7     8   ar
    18     8     9   ar
    19     9    10   ar
    20    10     1    1
    21    18    11   ar
    22    10     5   ar
    23    20    21    1
@<TRIPOS>MOLECULE
*****
 21 23 0 0 0
SMALL
GASTEIGER

@<TRIPOS>ATOM
      1 C         -13.9022   -7.0678   18.7591 C.3     1  UNL1        0.0798
      2 C         -15.1414   -6.2438   18.5712 C.3     1  UNL1        0.0421
      3 C         -15.0326   -4.7621   18.3647 C.3     1  UNL1        0.0973
      4 N         -13.6847   -4.1044   18.3461 N.pl3   1  UNL1       -0.2870
      5 C         -12.4454   -4.9284   18.5339 C.ar    1  UNL1        0.0488
      6 C         -11.0974   -4.2707   18.5153 C.ar    1  UNL1        0.0146
      7 C          -9.8583   -5.0948   18.7031 C.ar    1  UNL1        0.0013
      8 C          -9.9670   -6.5765   18.9096 C.ar    1  UNL1       -0.0002
      9 C         -11.3150   -7.2342   18.9283 C.ar    1  UNL1       -0.0017
     10 C         -12.5542   -6.4102   18.7404 C.ar    1  UNL1        0.0057
     11 C         -13.5759   -2.6227   18.1396 C.ar    1  UNL1        0.0525
     12 C         -14.4683   -1.6912   18.9050 C.ar    1  UNL1        0.0157
     13 C         -14.3595   -0.2095   18.6985 C.ar    1  UNL1        0.0135
     14 C         -13.3583    0.3408   17.7266 C.ar    1  UNL1        0.0683
     15 CL        -13.2496    1.8225   17.5201 Cl      1  UNL1       -0.0814
     16 C         -12.4659   -0.5906   16.9610 C.ar    1  UNL1        0.0694
     17 CL        -11.4647   -0.0404   15.9891 Cl      1  UNL1       -0.0813
     18 C         -12.5746   -2.0724   17.1675 C.ar    1  UNL1        0.0271
     19 C         -14.7032   -9.4006   17.9425 C.3     1  UNL1        0.0861
     20 N         -14.0110   -8.5496   18.9656 N.3     1  UNL1       -0.2939
     21 H         -13.0589   -8.9058   19.0495 H       1  UNL1        0.1235
@<TRIPOS>BOND
     1    19    20    1
     2     1    20    1
     3     1     2    1
     4     2     3    1
     5     3     4    1
     6     4    11    1
     7    11    12   ar
     8    12    13   ar
     9    13    14   ar
    10    14    15    1
    11    14    16   ar
    12    16    17    1
    13    16    18   ar
    14     4     5    1
    15     5     6   ar
    16     6     7   ar
    17     7     8   ar
    18     8     9   ar
    19     9    10   ar
    20    10     1    1
    21    18    11   ar
    22    10     5   ar
    23    20    21    1
