@<TRIPOS>MOLECULE
*****
 27 28 0 0 0
SMALL
GASTEIGER

@<TRIPOS>ATOM
      1 C           7.2641   -0.8893   18.7700 C.3     1  UNL1        0.0342
      2 C           6.4581   -1.9074   19.5209 C.ar    1  UNL1        0.0118
      3 C           6.8633   -2.3103   20.9077 C.ar    1  UNL1       -0.0013
      4 C           6.0573   -3.3285   21.6586 C.ar    1  UNL1        0.0005
      5 C           4.8462   -3.9437   21.0226 C.ar    1  UNL1       -0.0013
      6 C           4.4410   -3.5409   19.6357 C.ar    1  UNL1        0.0118
      7 C           3.2298   -4.1561   18.9996 C.3     1  UNL1        0.0342
      8 C           5.2470   -2.5227   18.8848 C.ar    1  UNL1        0.1305
      9 C           6.4625   -3.7313   23.0456 C.ar    1  UNL1        0.0136
     10 C           7.4886   -4.8073   23.2444 C.ar    1  UNL1        0.0380
     11 C           7.8938   -5.2102   24.6312 C.ar    1  UNL1        0.1469
     12 C           7.2730   -4.5371   25.8194 C.ar    1  UNL1        0.0380
     13 C           6.2469   -3.4611   25.6206 C.ar    1  UNL1        0.0145
     14 C           5.8417   -3.0583   24.2336 C.ar    1  UNL1        0.0578
     15 CL          4.8157   -1.9823   24.0348 Cl      1  UNL1       -0.0822
     16 O           8.9198   -6.2862   24.8300 O.3     1  UNL1       -0.4045
     17 C           8.6070   -7.4700   25.6964 C.3     1  UNL1        0.5753
     18 F           8.2941   -8.6539   26.5628 F       1  UNL1       -0.1328
     19 F           9.5360   -6.9442   26.7502 F       1  UNL1       -0.1328
     20 F           7.6780   -7.9957   24.6426 F       1  UNL1       -0.1328
     21 O           4.8418   -2.1198   17.4979 O.3     1  UNL1       -0.4761
     22 C           3.9123   -0.9601   17.2952 C.3     1  UNL1        0.2058
     23 C           3.4714   -0.1381   18.4699 C.3     1  UNL1        0.0532
     24 C           2.3296   -0.6030   19.3243 C.3     1  UNL1        0.0455
     25 C           1.0465    0.1737   19.3489 C.2     1  UNL1        0.0505
     26 O           0.1193    0.0532   20.5218 O.co2   1  UNL1       -0.5492
     27 O           0.6908    1.0708   18.2006 O.co2   1  UNL1       -0.5492
@<TRIPOS>UNITY_ATOM_ATTR
26 1
charge -1
@<TRIPOS>BOND
     1     1     2    1
     2     2     3   ar
     3     3     4   ar
     4     4     9    1
     5     9    10   ar
     6    10    11   ar
     7    11    16    1
     8    16    17    1
     9    17    18    1
    10    17    19    1
    11    17    20    1
    12    11    12   ar
    13    12    13   ar
    14    13    14   ar
    15    14    15    1
    16     4     5   ar
    17     5     6   ar
    18     6     7    1
    19     6     8   ar
    20     8    21    1
    21    21    22    1
    22    22    23    1
    23    23    24    1
    24    24    25    1
    25    25    26   ar
    26    25    27   ar
    27     8     2   ar
    28    14     9   ar
@<TRIPOS>MOLECULE
*****
 27 28 0 0 0
SMALL
GASTEIGER

@<TRIPOS>ATOM
      1 C           7.3023   -0.9221   18.3692 C.3     1  UNL1        0.0342
      2 C           6.6216   -2.0137   19.1405 C.ar    1  UNL1        0.0118
      3 C           7.2605   -2.5671   20.3796 C.ar    1  UNL1       -0.0013
      4 C           6.5798   -3.6588   21.1510 C.ar    1  UNL1        0.0005
      5 C           5.2602   -4.1970   20.6832 C.ar    1  UNL1       -0.0013
      6 C           4.6213   -3.6436   19.4440 C.ar    1  UNL1        0.0118
      7 C           3.3016   -4.1818   18.9762 C.3     1  UNL1        0.0342
      8 C           5.3020   -2.5520   18.6727 C.ar    1  UNL1        0.1305
      9 C           7.2188   -4.2121   22.3902 C.ar    1  UNL1        0.0136
     10 C           6.6085   -3.9417   23.7335 C.ar    1  UNL1        0.0380
     11 C           7.2474   -4.4950   24.9726 C.ar    1  UNL1        0.1469
     12 C           8.4967   -5.3189   24.8686 C.ar    1  UNL1        0.0380
     13 C           9.1069   -5.5893   23.5253 C.ar    1  UNL1        0.0145
     14 C           8.4680   -5.0359   22.2861 C.ar    1  UNL1        0.0578
     15 CL          9.0782   -5.3064   20.9428 Cl      1  UNL1       -0.0822
     16 O           6.6371   -4.2246   26.3159 O.3     1  UNL1       -0.4045
     17 C           6.9297   -5.1369   27.4700 C.3     1  UNL1        0.5753
     18 F           7.2222   -6.0494   28.6242 F       1  UNL1       -0.1328
     19 F           7.8014   -4.0816   28.0834 F       1  UNL1       -0.1328
     20 F           6.0580   -6.1923   26.8567 F       1  UNL1       -0.1328
     21 O           4.6631   -1.9986   17.4335 O.3     1  UNL1       -0.4761
     22 C           3.6832   -0.8675   17.5360 C.3     1  UNL1        0.2058
     23 C           3.4756   -0.1717   18.8485 C.3     1  UNL1        0.0532
     24 C           2.3115   -0.5433   19.7185 C.3     1  UNL1        0.0455
     25 C           0.9860    0.1322   19.5266 C.2     1  UNL1        0.0505
     26 O           0.6947    0.8632   18.2496 O.co2   1  UNL1       -0.5492
     27 O          -0.0481    0.0768   20.6117 O.co2   1  UNL1       -0.5492
@<TRIPOS>UNITY_ATOM_ATTR
26 1
charge -1
@<TRIPOS>BOND
     1     1     2    1
     2     2     3   ar
     3     3     4   ar
     4     4     9    1
     5     9    10   ar
     6    10    11   ar
     7    11    16    1
     8    16    17    1
     9    17    18    1
    10    17    19    1
    11    17    20    1
    12    11    12   ar
    13    12    13   ar
    14    13    14   ar
    15    14    15    1
    16     4     5   ar
    17     5     6   ar
    18     6     7    1
    19     6     8   ar
    20     8    21    1
    21    21    22    1
    22    22    23    1
    23    23    24    1
    24    24    25    1
    25    25    26   ar
    26    25    27   ar
    27     8     2   ar
    28    14     9   ar
@<TRIPOS>MOLECULE
*****
 27 28 0 0 0
SMALL
GASTEIGER

@<TRIPOS>ATOM
      1 C           4.6878   -1.9929   23.7338 C.3     1  UNL1        0.0342
      2 C           4.0992   -1.9948   22.3540 C.ar    1  UNL1        0.0118
      3 C           3.2289   -0.8574   21.9083 C.ar    1  UNL1       -0.0013
      4 C           2.6403   -0.8593   20.5286 C.ar    1  UNL1        0.0005
      5 C           2.9222   -1.9987   19.5946 C.ar    1  UNL1       -0.0013
      6 C           3.7925   -3.1361   20.0403 C.ar    1  UNL1        0.0118
      7 C           4.0744   -4.2755   19.1063 C.3     1  UNL1        0.0342
      8 C           4.3811   -3.1342   21.4200 C.ar    1  UNL1        0.1305
      9 C           1.7699    0.2781   20.0829 C.ar    1  UNL1        0.0136
     10 C           0.6178    0.7198   20.9359 C.ar    1  UNL1        0.0380
     11 C          -0.2526    1.8572   20.4902 C.ar    1  UNL1        0.1469
     12 C           0.0291    2.5531   19.1915 C.ar    1  UNL1        0.0380
     13 C           1.1813    2.1114   18.3386 C.ar    1  UNL1        0.0145
     14 C           2.0517    0.9740   18.7843 C.ar    1  UNL1        0.0578
     15 CL          3.2038    0.5323   17.9313 Cl      1  UNL1       -0.0822
     16 O          -1.4047    2.2988   21.3432 O.3     1  UNL1       -0.4045
     17 C          -2.1109    3.5872   21.0412 C.3     1  UNL1        0.5753
     18 F          -2.8171    4.8757   20.7392 F       1  UNL1       -0.1328
     19 F          -3.1656    2.8325   20.2875 F       1  UNL1       -0.1328
     20 F          -1.0562    4.3419   21.7948 F       1  UNL1       -0.1328
     21 O           5.2515   -4.2716   21.8658 O.3     1  UNL1       -0.4761
     22 C           6.7446   -4.1353   21.8218 C.3     1  UNL1        0.2058
     23 C           7.4403   -3.9255   20.5096 C.3     1  UNL1        0.0532
     24 C           7.8202   -2.5410   20.0751 C.3     1  UNL1        0.0455
     25 C           7.0024   -1.8293   19.0383 C.2     1  UNL1        0.0505
     26 O           7.0092   -2.3103   17.6176 O.co2   1  UNL1       -0.5492
     27 O           6.1777   -0.6367   19.4224 O.co2   1  UNL1       -0.5492
@<TRIPOS>UNITY_ATOM_ATTR
26 1
charge -1
@<TRIPOS>BOND
     1     1     2    1
     2     2     3   ar
     3     3     4   ar
     4     4     9    1
     5     9    10   ar
     6    10    11   ar
     7    11    16    1
     8    16    17    1
     9    17    18    1
    10    17    19    1
    11    17    20    1
    12    11    12   ar
    13    12    13   ar
    14    13    14   ar
    15    14    15    1
    16     4     5   ar
    17     5     6   ar
    18     6     7    1
    19     6     8   ar
    20     8    21    1
    21    21    22    1
    22    22    23    1
    23    23    24    1
    24    24    25    1
    25    25    26   ar
    26    25    27   ar
    27     8     2   ar
    28    14     9   ar
@<TRIPOS>MOLECULE
*****
 27 28 0 0 0
SMALL
GASTEIGER

@<TRIPOS>ATOM
      1 C           1.9274    1.6324   31.4749 C.3     1  UNL1        0.0342
      2 C           2.8530    0.8614   32.3686 C.ar    1  UNL1        0.0118
      3 C           3.1528    1.3633   33.7499 C.ar    1  UNL1       -0.0013
      4 C           4.0783    0.5922   34.6437 C.ar    1  UNL1        0.0005
      5 C           4.7041   -0.6808   34.1560 C.ar    1  UNL1       -0.0013
      6 C           4.4043   -1.1827   32.7747 C.ar    1  UNL1        0.0118
      7 C           5.0301   -2.4558   32.2870 C.3     1  UNL1        0.0342
      8 C           3.4787   -0.4116   31.8810 C.ar    1  UNL1        0.1305
      9 C           4.3781    1.0942   36.0251 C.ar    1  UNL1        0.0136
     10 C           3.4301    0.8039   37.1507 C.ar    1  UNL1        0.0380
     11 C           3.7298    1.3059   38.5320 C.ar    1  UNL1        0.1469
     12 C           4.9777    2.0981   38.7878 C.ar    1  UNL1        0.0380
     13 C           5.9257    2.3884   37.6622 C.ar    1  UNL1        0.0145
     14 C           5.6259    1.8864   36.2808 C.ar    1  UNL1        0.0578
     15 CL          6.5739    2.1767   35.1552 Cl      1  UNL1       -0.0822
     16 O           2.7818    1.0156   39.6576 O.3     1  UNL1       -0.4045
     17 C           1.3105    1.2451   39.4771 C.3     1  UNL1        0.5753
     18 F          -0.1608    1.4747   39.2966 F       1  UNL1       -0.1328
     19 F           1.0461   -0.1952   39.8017 F       1  UNL1       -0.1328
     20 F           1.5750    2.6855   39.1525 F       1  UNL1       -0.1328
     21 O           3.1789   -0.9136   30.4996 O.3     1  UNL1       -0.4761
     22 C           3.7492   -0.2080   29.3050 C.3     1  UNL1        0.2058
     23 C           2.9616   -0.1348   28.0306 C.3     1  UNL1        0.0532
     24 C           1.8777    0.8905   27.8766 C.3     1  UNL1        0.0455
     25 C           0.4497    0.5187   28.1465 C.2     1  UNL1        0.0505
     26 O          -0.6427    1.0495   27.2664 O.co2   1  UNL1       -0.5492
     27 O           0.1144   -0.3840   29.2966 O.co2   1  UNL1       -0.5492
@<TRIPOS>UNITY_ATOM_ATTR
26 1
charge -1
@<TRIPOS>BOND
     1     1     2    1
     2     2     3   ar
     3     3     4   ar
     4     4     9    1
     5     9    10   ar
     6    10    11   ar
     7    11    16    1
     8    16    17    1
     9    17    18    1
    10    17    19    1
    11    17    20    1
    12    11    12   ar
    13    12    13   ar
    14    13    14   ar
    15    14    15    1
    16     4     5   ar
    17     5     6   ar
    18     6     7    1
    19     6     8   ar
    20     8    21    1
    21    21    22    1
    22    22    23    1
    23    23    24    1
    24    24    25    1
    25    25    26   ar
    26    25    27   ar
    27     8     2   ar
    28    14     9   ar
@<TRIPOS>MOLECULE
*****
 27 28 0 0 0
SMALL
GASTEIGER

@<TRIPOS>ATOM
      1 C           4.8957   -0.1829   23.2268 C.3     1  UNL1        0.0342
      2 C           3.4844    0.1686   22.8596 C.ar    1  UNL1        0.0118
      3 C           2.6060    0.8756   23.8488 C.ar    1  UNL1       -0.0013
      4 C           1.1947    1.2270   23.4816 C.ar    1  UNL1        0.0005
      5 C           0.6619    0.8715   22.1253 C.ar    1  UNL1       -0.0013
      6 C           1.5403    0.1646   21.1361 C.ar    1  UNL1        0.0118
      7 C           1.0075   -0.1909   19.7797 C.3     1  UNL1        0.0342
      8 C           2.9516   -0.1869   21.5033 C.ar    1  UNL1        0.1305
      9 C           0.3162    1.9340   24.4709 C.ar    1  UNL1        0.0136
     10 C          -0.0993    1.2408   25.7345 C.ar    1  UNL1        0.0380
     11 C          -0.9777    1.9477   26.7238 C.ar    1  UNL1        0.1469
     12 C          -1.4406    3.3479   26.4494 C.ar    1  UNL1        0.0380
     13 C          -1.0251    4.0411   25.1857 C.ar    1  UNL1        0.0145
     14 C          -0.1467    3.3341   24.1965 C.ar    1  UNL1        0.0578
     15 CL          0.2689    4.0273   22.9328 Cl      1  UNL1       -0.0822
     16 O          -1.3932    1.2545   27.9874 O.3     1  UNL1       -0.4045
     17 C          -0.4429    0.3226   28.6789 C.3     1  UNL1        0.5753
     18 F           0.5075   -0.6095   29.3705 F       1  UNL1       -0.1328
     19 F           0.4494    1.4809   29.0138 F       1  UNL1       -0.1328
     20 F          -1.3351   -0.8358   28.3441 F       1  UNL1       -0.1328
     21 O           3.8300   -0.8939   20.5140 O.3     1  UNL1       -0.4761
     22 C           3.9051   -2.3920   20.5141 C.3     1  UNL1        0.2058
     23 C           3.7747   -3.1495   19.2261 C.3     1  UNL1        0.0532
     24 C           5.0032   -3.6124   18.5005 C.3     1  UNL1        0.0455
     25 C           6.2529   -2.7835   18.5372 C.2     1  UNL1        0.0505
     26 O           6.6115   -1.9152   17.3678 O.co2   1  UNL1       -0.5492
     27 O           7.1439   -2.8230   19.7432 O.co2   1  UNL1       -0.5492
@<TRIPOS>UNITY_ATOM_ATTR
26 1
charge -1
@<TRIPOS>BOND
     1     1     2    1
     2     2     3   ar
     3     3     4   ar
     4     4     9    1
     5     9    10   ar
     6    10    11   ar
     7    11    16    1
     8    16    17    1
     9    17    18    1
    10    17    19    1
    11    17    20    1
    12    11    12   ar
    13    12    13   ar
    14    13    14   ar
    15    14    15    1
    16     4     5   ar
    17     5     6   ar
    18     6     7    1
    19     6     8   ar
    20     8    21    1
    21    21    22    1
    22    22    23    1
    23    23    24    1
    24    24    25    1
    25    25    26   ar
    26    25    27   ar
    27     8     2   ar
    28    14     9   ar
@<TRIPOS>MOLECULE
*****
 27 28 0 0 0
SMALL
GASTEIGER

@<TRIPOS>ATOM
      1 C           4.8884    2.1680   23.3856 C.3     1  UNL1        0.0342
      2 C           4.6569    0.8625   24.0871 C.ar    1  UNL1        0.0118
      3 C           4.2489    0.8486   25.5304 C.ar    1  UNL1       -0.0013
      4 C           4.0175   -0.4570   26.2318 C.ar    1  UNL1        0.0005
      5 C           4.1941   -1.7486   25.4900 C.ar    1  UNL1       -0.0013
      6 C           4.6022   -1.7347   24.0466 C.ar    1  UNL1        0.0118
      7 C           4.7788   -3.0264   23.3047 C.3     1  UNL1        0.0342
      8 C           4.8336   -0.4292   23.3452 C.ar    1  UNL1        0.1305
      9 C           3.6094   -0.4708   27.6752 C.ar    1  UNL1        0.0136
     10 C           2.1636   -0.3247   28.0473 C.ar    1  UNL1        0.0380
     11 C           1.7555   -0.3385   29.4906 C.ar    1  UNL1        0.1469
     12 C           2.7932   -0.4985   30.5620 C.ar    1  UNL1        0.0380
     13 C           4.2389   -0.6447   30.1899 C.ar    1  UNL1        0.0145
     14 C           4.6470   -0.6308   28.7465 C.ar    1  UNL1        0.0578
     15 CL          6.0928   -0.7770   28.3745 Cl      1  UNL1       -0.0822
     16 O           0.3097   -0.1924   29.8627 O.3     1  UNL1       -0.4045
     17 C          -0.6442    0.4753   28.9171 C.3     1  UNL1        0.5753
     18 F          -1.5983    1.1430   27.9715 F       1  UNL1       -0.1328
     19 F          -1.2211   -0.8612   28.5554 F       1  UNL1       -0.1328
     20 F          -0.0674    1.8118   29.2788 F       1  UNL1       -0.1328
     21 O           5.2417   -0.4153   21.9018 O.3     1  UNL1       -0.4761
     22 C           4.1957   -0.3903   20.8269 C.3     1  UNL1        0.2058
     23 C           2.7561   -0.6263   21.1756 C.3     1  UNL1        0.0532
     24 C           1.7635   -0.9357   20.0945 C.3     1  UNL1        0.0455
     25 C           0.7776    0.1083   19.6603 C.2     1  UNL1        0.0505
     26 O          -0.2631    0.6026   20.6208 O.co2   1  UNL1       -0.5492
     27 O           0.8326    0.6579   18.2657 O.co2   1  UNL1       -0.5492
@<TRIPOS>UNITY_ATOM_ATTR
26 1
charge -1
@<TRIPOS>BOND
     1     1     2    1
     2     2     3   ar
     3     3     4   ar
     4     4     9    1
     5     9    10   ar
     6    10    11   ar
     7    11    16    1
     8    16    17    1
     9    17    18    1
    10    17    19    1
    11    17    20    1
    12    11    12   ar
    13    12    13   ar
    14    13    14   ar
    15    14    15    1
    16     4     5   ar
    17     5     6   ar
    18     6     7    1
    19     6     8   ar
    20     8    21    1
    21    21    22    1
    22    22    23    1
    23    23    24    1
    24    24    25    1
    25    25    26   ar
    26    25    27   ar
    27     8     2   ar
    28    14     9   ar
@<TRIPOS>MOLECULE
*****
 27 28 0 0 0
SMALL
GASTEIGER

@<TRIPOS>ATOM
      1 C           7.0475   -0.8779   26.9142 C.3     1  UNL1        0.0342
      2 C           6.6455   -1.8673   25.8609 C.ar    1  UNL1        0.0118
      3 C           5.6965   -1.4604   24.7729 C.ar    1  UNL1       -0.0013
      4 C           5.2945   -2.4498   23.7196 C.ar    1  UNL1        0.0005
      5 C           5.8413   -3.8461   23.7543 C.ar    1  UNL1       -0.0013
      6 C           6.7903   -4.2530   24.8424 C.ar    1  UNL1        0.0118
      7 C           7.3372   -5.6494   24.8772 C.3     1  UNL1        0.0342
      8 C           7.1924   -3.2636   25.8957 C.ar    1  UNL1        0.1305
      9 C           4.3454   -2.0429   22.6315 C.ar    1  UNL1        0.0136
     10 C           4.4933   -2.6173   21.2538 C.ar    1  UNL1        0.0380
     11 C           3.5444   -2.2104   20.1657 C.ar    1  UNL1        0.1469
     12 C           2.4475   -1.2291   20.4554 C.ar    1  UNL1        0.0380
     13 C           2.2996   -0.6547   21.8331 C.ar    1  UNL1        0.0145
     14 C           3.2486   -1.0616   22.9212 C.ar    1  UNL1        0.0578
     15 CL          3.1007   -0.4872   24.2989 Cl      1  UNL1       -0.0822
     16 O           3.6923   -2.7848   18.7880 O.3     1  UNL1       -0.4045
     17 C           4.2342   -4.1718   18.6078 C.3     1  UNL1        0.5753
     18 F           4.7761   -5.5589   18.4277 F       1  UNL1       -0.1328
     19 F           2.9179   -4.7429   19.0452 F       1  UNL1       -0.1328
     20 F           5.5504   -3.6008   18.1705 F       1  UNL1       -0.1328
     21 O           8.1414   -3.6706   26.9837 O.3     1  UNL1       -0.4761
     22 C           7.6215   -4.3433   28.2195 C.3     1  UNL1        0.2058
     23 C           7.4506   -3.5576   29.4857 C.3     1  UNL1        0.0532
     24 C           6.7912   -4.1881   30.6764 C.3     1  UNL1        0.0455
     25 C           7.4428   -5.3492   31.3674 C.2     1  UNL1        0.0505
     26 O           8.9333   -5.5104   31.3189 O.co2   1  UNL1       -0.5492
     27 O           6.6039   -6.3489   32.1068 O.co2   1  UNL1       -0.5492
@<TRIPOS>UNITY_ATOM_ATTR
26 1
charge -1
@<TRIPOS>BOND
     1     1     2    1
     2     2     3   ar
     3     3     4   ar
     4     4     9    1
     5     9    10   ar
     6    10    11   ar
     7    11    16    1
     8    16    17    1
     9    17    18    1
    10    17    19    1
    11    17    20    1
    12    11    12   ar
    13    12    13   ar
    14    13    14   ar
    15    14    15    1
    16     4     5   ar
    17     5     6   ar
    18     6     7    1
    19     6     8   ar
    20     8    21    1
    21    21    22    1
    22    22    23    1
    23    23    24    1
    24    24    25    1
    25    25    26   ar
    26    25    27   ar
    27     8     2   ar
    28    14     9   ar
@<TRIPOS>MOLECULE
*****
 27 28 0 0 0
SMALL
GASTEIGER

@<TRIPOS>ATOM
      1 C           6.1837    0.4858   20.3250 C.3     1  UNL1        0.0342
      2 C           5.6545   -0.7192   21.0447 C.ar    1  UNL1        0.0118
      3 C           5.6217   -0.7428   22.5441 C.ar    1  UNL1       -0.0013
      4 C           5.0926   -1.9477   23.2639 C.ar    1  UNL1        0.0005
      5 C           4.5961   -3.1291   22.4843 C.ar    1  UNL1       -0.0013
      6 C           4.6289   -3.1055   20.9848 C.ar    1  UNL1        0.0118
      7 C           4.1325   -4.2869   20.2051 C.3     1  UNL1        0.0342
      8 C           5.1581   -1.9005   20.2651 C.ar    1  UNL1        0.1305
      9 C           5.0598   -1.9712   24.7634 C.ar    1  UNL1        0.0136
     10 C           6.1041   -2.7329   25.5245 C.ar    1  UNL1        0.0380
     11 C           6.0713   -2.7565   27.0240 C.ar    1  UNL1        0.1469
     12 C           4.9943   -2.0183   27.7624 C.ar    1  UNL1        0.0380
     13 C           3.9500   -1.2566   27.0012 C.ar    1  UNL1        0.0145
     14 C           3.9828   -1.2331   25.5017 C.ar    1  UNL1        0.0578
     15 CL          2.9385   -0.4714   24.7406 Cl      1  UNL1       -0.0822
     16 O           7.1156   -3.5182   27.7851 O.3     1  UNL1       -0.4045
     17 C           6.7054   -4.5560   28.7873 C.3     1  UNL1        0.5753
     18 F           6.2952   -5.5940   29.7896 F       1  UNL1       -0.1328
     19 F           7.3070   -3.7319   29.8869 F       1  UNL1       -0.1328
     20 F           6.1039   -5.3801   27.6878 F       1  UNL1       -0.1328
     21 O           5.1909   -1.8770   18.7656 O.3     1  UNL1       -0.4761
     22 C           3.9585   -1.5080   17.9942 C.3     1  UNL1        0.2058
     23 C           3.1428   -0.3191   18.4077 C.3     1  UNL1        0.0532
     24 C           2.1353   -0.4480   19.5115 C.3     1  UNL1        0.0455
     25 C           0.8468    0.3172   19.4440 C.2     1  UNL1        0.0505
     26 O          -0.1046    0.2876   20.6032 O.co2   1  UNL1       -0.5492
     27 O           0.5100    1.1120   18.2173 O.co2   1  UNL1       -0.5492
@<TRIPOS>UNITY_ATOM_ATTR
26 1
charge -1
@<TRIPOS>BOND
     1     1     2    1
     2     2     3   ar
     3     3     4   ar
     4     4     9    1
     5     9    10   ar
     6    10    11   ar
     7    11    16    1
     8    16    17    1
     9    17    18    1
    10    17    19    1
    11    17    20    1
    12    11    12   ar
    13    12    13   ar
    14    13    14   ar
    15    14    15    1
    16     4     5   ar
    17     5     6   ar
    18     6     7    1
    19     6     8   ar
    20     8    21    1
    21    21    22    1
    22    22    23    1
    23    23    24    1
    24    24    25    1
    25    25    26   ar
    26    25    27   ar
    27     8     2   ar
    28    14     9   ar
@<TRIPOS>MOLECULE
*****
 27 28 0 0 0
SMALL
GASTEIGER

@<TRIPOS>ATOM
      1 C           3.1402   -0.0254   25.4624 C.3     1  UNL1        0.0342
      2 C           2.4859    0.3994   24.1812 C.ar    1  UNL1        0.0118
      3 C           2.9927   -0.1250   22.8705 C.ar    1  UNL1       -0.0013
      4 C           2.3384    0.2998   21.5893 C.ar    1  UNL1        0.0005
      5 C           1.1773    1.2489   21.6188 C.ar    1  UNL1       -0.0013
      6 C           0.6705    1.7733   22.9296 C.ar    1  UNL1        0.0118
      7 C          -0.4907    2.7225   22.9592 C.3     1  UNL1        0.0342
      8 C           1.3248    1.3485   24.2108 C.ar    1  UNL1        0.1305
      9 C           2.8452   -0.2247   20.2785 C.ar    1  UNL1        0.0136
     10 C           3.3514   -1.6332   20.1795 C.ar    1  UNL1        0.0380
     11 C           3.8583   -2.1577   18.8688 C.ar    1  UNL1        0.1469
     12 C           3.8589   -1.2736   17.6569 C.ar    1  UNL1        0.0380
     13 C           3.3527    0.1350   17.7559 C.ar    1  UNL1        0.0145
     14 C           2.8458    0.6594   19.0667 C.ar    1  UNL1        0.0578
     15 CL          2.3396    2.0679   19.1657 Cl      1  UNL1       -0.0822
     16 O           4.3645   -3.5662   18.7698 O.3     1  UNL1       -0.4045
     17 C           3.7437   -4.6467   19.6047 C.3     1  UNL1        0.5753
     18 F           3.1229   -5.7272   20.4397 F       1  UNL1       -0.1328
     19 F           4.9282   -4.6165   20.5245 F       1  UNL1       -0.1328
     20 F           2.5592   -4.6769   18.6850 F       1  UNL1       -0.1328
     21 O           0.8180    1.8730   25.5216 O.3     1  UNL1       -0.4761
     22 C          -0.2665    1.1397   26.2539 C.3     1  UNL1        0.2058
     23 C          -0.3108    1.1681   27.7530 C.3     1  UNL1        0.0532
     24 C           0.9493    1.3874   28.5365 C.3     1  UNL1        0.0455
     25 C           1.5483    0.2602   29.3244 C.2     1  UNL1        0.0505
     26 O           1.6778    0.3725   30.8146 O.co2   1  UNL1       -0.5492
     27 O           2.0179   -0.9792   28.6220 O.co2   1  UNL1       -0.5492
@<TRIPOS>UNITY_ATOM_ATTR
26 1
charge -1
@<TRIPOS>BOND
     1     1     2    1
     2     2     3   ar
     3     3     4   ar
     4     4     9    1
     5     9    10   ar
     6    10    11   ar
     7    11    16    1
     8    16    17    1
     9    17    18    1
    10    17    19    1
    11    17    20    1
    12    11    12   ar
    13    12    13   ar
    14    13    14   ar
    15    14    15    1
    16     4     5   ar
    17     5     6   ar
    18     6     7    1
    19     6     8   ar
    20     8    21    1
    21    21    22    1
    22    22    23    1
    23    23    24    1
    24    24    25    1
    25    25    26   ar
    26    25    27   ar
    27     8     2   ar
    28    14     9   ar
