@<TRIPOS>MOLECULE
*****
 18 19 0 0 0
SMALL
GASTEIGER

@<TRIPOS>ATOM
      1 C          -6.5468  -20.1057   22.0067 C.2     1  UNL1        0.0033
      2 C          -7.5918  -19.0298   21.9845 C.2     1  UNL1        0.0435
      3 C          -2.3450  -19.1888   20.6822 C.ar    1  UNL1        0.1387
      4 C          -3.3374  -19.7391   19.7012 C.ar    1  UNL1        0.0369
      5 C          -4.7380  -20.0447   20.1427 C.ar    1  UNL1        0.0031
      6 C          -5.1462  -19.8000   21.5652 C.ar    1  UNL1        0.0003
      7 C          -4.1538  -19.2497   22.5461 C.ar    1  UNL1        0.0031
      8 C          -2.7533  -18.9441   22.1046 C.ar    1  UNL1        0.0369
      9 C          -0.5072  -17.4590   20.0654 C.3     1  UNL1        0.2525
     10 O          -0.9445  -18.8831   20.2406 O.3     1  UNL1       -0.4714
     11 C          -8.9924  -19.3355   22.4260 C.2     1  UNL1        0.2111
     12 O          -9.2324  -20.3234   23.5289 O.2     1  UNL1       -0.2850
     13 C         -10.1530  -18.6531   21.7646 C.ar    1  UNL1        0.0961
     14 C         -11.5717  -18.6555   22.2520 C.ar    1  UNL1        0.0218
     15 C         -12.3942  -17.8525   21.2884 C.ar    1  UNL1        0.0200
     16 C         -11.4839  -17.3538   20.2055 C.ar    1  UNL1        0.0725
     17 N         -10.0988  -17.8486   20.4998 N.ar    1  UNL1       -0.3495
     18 H          -9.2952  -17.6757   19.9580 H       1  UNL1        0.1661
@<TRIPOS>BOND
     1     9    10    1
     2    10     3    1
     3     3     4   ar
     4     4     5   ar
     5     5     6   ar
     6     6     1    1
     7     1     2    2
     8     2    11    1
     9    11    12    2
    10    11    13    1
    11    13    14   ar
    12    14    15   ar
    13    15    16   ar
    14    16    17   ar
    15     6     7   ar
    16     7     8   ar
    17     8     3   ar
    18    17    13   ar
    19    17    18    1
@<TRIPOS>MOLECULE
*****
 18 19 0 0 0
SMALL
GASTEIGER

@<TRIPOS>ATOM
      1 C          -6.6740  -19.9588   21.1711 C.2     1  UNL1        0.0033
      2 C          -7.6970  -18.8658   21.0780 C.2     1  UNL1        0.0435
      3 C          -2.2910  -18.9631   20.9521 C.ar    1  UNL1        0.1387
      4 C          -3.0643  -19.2255   19.6939 C.ar    1  UNL1        0.0369
      5 C          -4.5253  -19.5574   19.7669 C.ar    1  UNL1        0.0031
      6 C          -5.2130  -19.6269   21.0981 C.ar    1  UNL1        0.0003
      7 C          -4.4397  -19.3645   22.3563 C.ar    1  UNL1        0.0031
      8 C          -2.9787  -19.0326   22.2833 C.ar    1  UNL1        0.0369
      9 C          -0.2972  -17.8421   19.7201 C.3     1  UNL1        0.2525
     10 O          -0.8300  -18.6312   20.8791 O.3     1  UNL1       -0.4714
     11 C          -9.1580  -19.1977   21.1510 C.2     1  UNL1        0.2111
     12 O          -9.9284  -19.4723   19.8936 O.2     1  UNL1       -0.2850
     13 C          -9.8485  -19.2550   22.4814 C.ar    1  UNL1        0.0961
     14 C          -9.5025  -20.1737   23.6155 C.ar    1  UNL1        0.0218
     15 C         -10.4463  -19.8901   24.7463 C.ar    1  UNL1        0.0200
     16 C         -11.3757  -18.7961   24.3110 C.ar    1  UNL1        0.0725
     17 N         -11.0062  -18.4036   22.9112 N.ar    1  UNL1       -0.3495
     18 H         -11.4463  -17.7091   22.3697 H       1  UNL1        0.1661
@<TRIPOS>BOND
     1     9    10    1
     2    10     3    1
     3     3     4   ar
     4     4     5   ar
     5     5     6   ar
     6     6     1    1
     7     1     2    2
     8     2    11    1
     9    11    12    2
    10    11    13    1
    11    13    14   ar
    12    14    15   ar
    13    15    16   ar
    14    16    17   ar
    15     6     7   ar
    16     7     8   ar
    17     8     3   ar
    18    17    13   ar
    19    17    18    1
@<TRIPOS>MOLECULE
*****
 18 19 0 0 0
SMALL
GASTEIGER

@<TRIPOS>ATOM
      1 C          -7.6202  -19.6322   22.3140 C.2     1  UNL1        0.0033
      2 C          -6.8733  -19.2606   21.0675 C.2     1  UNL1        0.0435
      3 C         -11.8295  -18.1676   22.9361 C.ar    1  UNL1        0.1387
      4 C         -11.4946  -18.9986   21.7331 C.ar    1  UNL1        0.0369
      5 C         -10.0915  -19.4868   21.5257 C.ar    1  UNL1        0.0031
      6 C          -9.0233  -19.1440   22.5214 C.ar    1  UNL1        0.0003
      7 C          -9.3582  -18.3129   23.7243 C.ar    1  UNL1        0.0031
      8 C         -10.7613  -17.8247   23.9317 C.ar    1  UNL1        0.0369
      9 C         -14.0341  -18.1742   24.3107 C.3     1  UNL1        0.2525
     10 O         -13.2326  -17.6793   23.1434 O.3     1  UNL1       -0.4714
     11 C          -5.4702  -19.7488   20.8601 C.2     1  UNL1        0.2111
     12 O          -5.2255  -21.0527   20.1602 O.2     1  UNL1       -0.2850
     13 C          -4.3118  -18.9330   21.3527 C.ar    1  UNL1        0.0961
     14 C          -3.9228  -18.7304   22.7872 C.ar    1  UNL1        0.0218
     15 C          -2.7096  -17.8488   22.8184 C.ar    1  UNL1        0.0200
     16 C          -2.3488  -17.5066   21.4032 C.ar    1  UNL1        0.0725
     17 N          -3.3390  -18.1767   20.4974 N.ar    1  UNL1       -0.3495
     18 H          -3.3487  -18.1285   19.5141 H       1  UNL1        0.1661
@<TRIPOS>BOND
     1     9    10    1
     2    10     3    1
     3     3     4   ar
     4     4     5   ar
     5     5     6   ar
     6     6     1    1
     7     1     2    2
     8     2    11    1
     9    11    12    2
    10    11    13    1
    11    13    14   ar
    12    14    15   ar
    13    15    16   ar
    14    16    17   ar
    15     6     7   ar
    16     7     8   ar
    17     8     3   ar
    18    17    13   ar
    19    17    18    1
@<TRIPOS>MOLECULE
*****
 18 19 0 0 0
SMALL
GASTEIGER

@<TRIPOS>ATOM
      1 C          -6.2078  -17.7266   23.1296 C.2     1  UNL1        0.0033
      2 C          -6.4329  -16.3527   23.6879 C.2     1  UNL1        0.0435
      3 C          -2.2616  -18.7659   21.2329 C.ar    1  UNL1        0.1387
      4 C          -3.5204  -19.4279   20.7562 C.ar    1  UNL1        0.0369
      5 C          -4.8358  -19.0815   21.3884 C.ar    1  UNL1        0.0031
      6 C          -4.8924  -18.0731   22.4974 C.ar    1  UNL1        0.0003
      7 C          -3.6336  -17.4111   22.9741 C.ar    1  UNL1        0.0031
      8 C          -2.3183  -17.7575   22.3419 C.ar    1  UNL1        0.0369
      9 C          -0.1262  -18.0433   19.9415 C.3     1  UNL1        0.2525
     10 O          -0.9462  -19.1124   20.6007 O.3     1  UNL1       -0.4714
     11 C          -7.7482  -16.0063   24.3201 C.2     1  UNL1        0.2111
     12 O          -7.7834  -15.2004   25.5847 O.2     1  UNL1       -0.2850
     13 C          -9.0285  -16.4658   23.6877 C.ar    1  UNL1        0.0961
     14 C          -9.9136  -17.5682   24.1892 C.ar    1  UNL1        0.0218
     15 C         -11.0805  -17.6873   23.2543 C.ar    1  UNL1        0.0200
     16 C         -10.9166  -16.6585   22.1750 C.ar    1  UNL1        0.0725
     17 N          -9.6484  -15.9036   22.4429 N.ar    1  UNL1       -0.3495
     18 H          -9.2865  -15.1682   21.8975 H       1  UNL1        0.1661
@<TRIPOS>BOND
     1     9    10    1
     2    10     3    1
     3     3     4   ar
     4     4     5   ar
     5     5     6   ar
     6     6     1    1
     7     1     2    2
     8     2    11    1
     9    11    12    2
    10    11    13    1
    11    13    14   ar
    12    14    15   ar
    13    15    16   ar
    14    16    17   ar
    15     6     7   ar
    16     7     8   ar
    17     8     3   ar
    18    17    13   ar
    19    17    18    1
@<TRIPOS>MOLECULE
*****
 18 19 0 0 0
SMALL
GASTEIGER

@<TRIPOS>ATOM
      1 C         -12.9453   -5.5296   19.1752 C.2     1  UNL1        0.0033
      2 C         -11.5307   -5.9021   18.8439 C.2     1  UNL1        0.0435
      3 C         -16.2312   -8.5755   18.7567 C.ar    1  UNL1        0.1387
      4 C         -14.8404   -8.9054   18.3019 C.ar    1  UNL1        0.0369
      5 C         -13.7451   -7.8900   18.4414 C.ar    1  UNL1        0.0031
      6 C         -14.0406   -6.5449   19.0357 C.ar    1  UNL1        0.0003
      7 C         -15.4314   -6.2151   19.4905 C.ar    1  UNL1        0.0031
      8 C         -16.5267   -7.2304   19.3510 C.ar    1  UNL1        0.0369
      9 C         -16.9951  -11.0536   18.5969 C.3     1  UNL1        0.2525
     10 O         -17.3265   -9.5908   18.6172 O.3     1  UNL1       -0.4714
     11 C         -10.4354   -4.8868   18.9834 C.2     1  UNL1        0.2111
     12 O          -9.1590   -5.2517   19.6817 O.2     1  UNL1       -0.2850
     13 C         -10.6165   -3.5066   18.4245 C.ar    1  UNL1        0.0961
     14 C         -10.2378   -3.0576   17.0443 C.ar    1  UNL1        0.0218
     15 C         -10.5954   -1.6066   16.9144 C.ar    1  UNL1        0.0200
     16 C         -11.1950   -1.1589   18.2145 C.ar    1  UNL1        0.0725
     17 N         -11.2080   -2.3332   19.1477 N.ar    1  UNL1       -0.3495
     18 H         -11.5456   -2.3336   20.0726 H       1  UNL1        0.1661
@<TRIPOS>BOND
     1     9    10    1
     2    10     3    1
     3     3     4   ar
     4     4     5   ar
     5     5     6   ar
     6     6     1    1
     7     1     2    2
     8     2    11    1
     9    11    12    2
    10    11    13    1
    11    13    14   ar
    12    14    15   ar
    13    15    16   ar
    14    16    17   ar
    15     6     7   ar
    16     7     8   ar
    17     8     3   ar
    18    17    13   ar
    19    17    18    1
@<TRIPOS>MOLECULE
*****
 18 19 0 0 0
SMALL
GASTEIGER

@<TRIPOS>ATOM
      1 C         -13.9867   -7.4853   18.7318 C.2     1  UNL1        0.0033
      2 C         -14.2545   -8.6805   17.8660 C.2     1  UNL1        0.0435
      3 C         -10.6034   -4.6929   17.7286 C.ar    1  UNL1        0.1387
      4 C         -11.3696   -4.5144   19.0057 C.ar    1  UNL1        0.0369
      5 C         -12.4974   -5.4452   19.3401 C.ar    1  UNL1        0.0031
      6 C         -12.8589   -6.5545   18.3974 C.ar    1  UNL1        0.0003
      7 C         -12.0927   -6.7330   17.1203 C.ar    1  UNL1        0.0031
      8 C         -10.9650   -5.8022   16.7859 C.ar    1  UNL1        0.0369
      9 C          -8.9532   -3.6910   15.9899 C.3     1  UNL1        0.2525
     10 O          -9.4757   -3.7621   17.3942 O.3     1  UNL1       -0.4714
     11 C         -15.3822   -9.6113   18.2004 C.2     1  UNL1        0.2111
     12 O         -15.1959  -11.0936   18.0669 O.2     1  UNL1       -0.2850
     13 C         -16.6963   -9.0596   18.6683 C.ar    1  UNL1        0.0961
     14 C         -17.0637   -8.7409   20.0873 C.ar    1  UNL1        0.0218
     15 C         -18.4681   -8.2142   20.0954 C.ar    1  UNL1        0.0200
     16 C         -18.9688   -8.2073   18.6814 C.ar    1  UNL1        0.0725
     17 N         -17.8737   -8.7298   17.7994 N.ar    1  UNL1       -0.3495
     18 H         -17.9197   -8.8374   16.8219 H       1  UNL1        0.1661
@<TRIPOS>BOND
     1     9    10    1
     2    10     3    1
     3     3     4   ar
     4     4     5   ar
     5     5     6   ar
     6     6     1    1
     7     1     2    2
     8     2    11    1
     9    11    12    2
    10    11    13    1
    11    13    14   ar
    12    14    15   ar
    13    15    16   ar
    14    16    17   ar
    15     6     7   ar
    16     7     8   ar
    17     8     3   ar
    18    17    13   ar
    19    17    18    1
@<TRIPOS>MOLECULE
*****
 18 19 0 0 0
SMALL
GASTEIGER

@<TRIPOS>ATOM
      1 C         -14.0594   -8.2915   17.6153 C.2     1  UNL1        0.0033
      2 C         -15.1911   -8.7075   18.5075 C.2     1  UNL1        0.0435
      3 C         -11.7663   -4.5216   18.4984 C.ar    1  UNL1        0.1387
      4 C         -11.5808   -5.2221   17.1850 C.ar    1  UNL1        0.0369
      5 C         -12.3452   -6.4787   16.8907 C.ar    1  UNL1        0.0031
      6 C         -13.2950   -7.0349   17.9096 C.ar    1  UNL1        0.0003
      7 C         -13.4805   -6.3345   19.2230 C.ar    1  UNL1        0.0031
      8 C         -12.7162   -5.0779   19.5174 C.ar    1  UNL1        0.0369
      9 C         -11.7285   -1.9598   18.9290 C.3     1  UNL1        0.2525
     10 O         -11.0020   -3.2650   18.7928 O.3     1  UNL1       -0.4714
     11 C         -15.9554   -9.9641   18.2132 C.2     1  UNL1        0.2111
     12 O         -15.2401  -11.2814   18.1574 O.2     1  UNL1       -0.2850
     13 C         -17.4351   -9.9034   17.9745 C.ar    1  UNL1        0.0961
     14 C         -18.1909   -8.7341   17.4164 C.ar    1  UNL1        0.0218
     15 C         -19.6417   -9.1093   17.3490 C.ar    1  UNL1        0.0200
     16 C         -19.7824  -10.5106   17.8654 C.ar    1  UNL1        0.0725
     17 N         -18.4187  -11.0014   18.2519 N.ar    1  UNL1       -0.3495
     18 H         -18.2065  -11.8884   18.6227 H       1  UNL1        0.1661
@<TRIPOS>BOND
     1     9    10    1
     2    10     3    1
     3     3     4   ar
     4     4     5   ar
     5     5     6   ar
     6     6     1    1
     7     1     2    2
     8     2    11    1
     9    11    12    2
    10    11    13    1
    11    13    14   ar
    12    14    15   ar
    13    15    16   ar
    14    16    17   ar
    15     6     7   ar
    16     7     8   ar
    17     8     3   ar
    18    17    13   ar
    19    17    18    1
@<TRIPOS>MOLECULE
*****
 18 19 0 0 0
SMALL
GASTEIGER

@<TRIPOS>ATOM
      1 C          -4.5043  -17.5371   22.6671 C.2     1  UNL1        0.0033
      2 C          -5.1053  -18.7988   22.1221 C.2     1  UNL1        0.0435
      3 C          -6.4228  -15.4602   26.1679 C.ar    1  UNL1        0.1387
      4 C          -5.0693  -16.0890   26.3186 C.ar    1  UNL1        0.0369
      5 C          -4.4298  -16.7813   25.1516 C.ar    1  UNL1        0.0031
      6 C          -5.1438  -16.8448   23.8340 C.ar    1  UNL1        0.0003
      7 C          -6.4972  -16.2161   23.6834 C.ar    1  UNL1        0.0031
      8 C          -7.1367  -15.5238   24.8503 C.ar    1  UNL1        0.0369
      9 C          -8.4918  -15.0556   27.6862 C.3     1  UNL1        0.2525
     10 O          -7.0622  -14.7679   27.3349 O.3     1  UNL1       -0.4714
     11 C          -4.4658  -19.4911   20.9552 C.2     1  UNL1        0.2111
     12 O          -5.0206  -20.7937   20.4599 O.2     1  UNL1       -0.2850
     13 C          -3.2715  -18.8807   20.2835 C.ar    1  UNL1        0.0961
     14 C          -1.8361  -19.1294   20.6407 C.ar    1  UNL1        0.0218
     15 C          -0.9804  -18.3169   19.7147 C.ar    1  UNL1        0.0200
     16 C          -1.8870  -17.5659   18.7851 C.ar    1  UNL1        0.0725
     17 N          -3.3030  -17.9144   19.1366 N.ar    1  UNL1       -0.3495
     18 H          -4.1112  -17.5694   18.6926 H       1  UNL1        0.1661
@<TRIPOS>BOND
     1     9    10    1
     2    10     3    1
     3     3     4   ar
     4     4     5   ar
     5     5     6   ar
     6     6     1    1
     7     1     2    2
     8     2    11    1
     9    11    12    2
    10    11    13    1
    11    13    14   ar
    12    14    15   ar
    13    15    16   ar
    14    16    17   ar
    15     6     7   ar
    16     7     8   ar
    17     8     3   ar
    18    17    13   ar
    19    17    18    1
@<TRIPOS>MOLECULE
*****
 18 19 0 0 0
SMALL
GASTEIGER

@<TRIPOS>ATOM
      1 C          -7.5461  -17.3464   23.0601 C.2     1  UNL1        0.0033
      2 C          -6.6209  -16.1888   22.8278 C.2     1  UNL1        0.0435
      3 C          -9.2278  -19.6202   19.5599 C.ar    1  UNL1        0.1387
      4 C          -7.7443  -19.5626   19.7739 C.ar    1  UNL1        0.0369
      5 C          -7.1837  -18.8047   20.9407 C.ar    1  UNL1        0.0031
      6 C          -8.1067  -18.1043   21.8934 C.ar    1  UNL1        0.0003
      7 C          -9.5902  -18.1619   21.6793 C.ar    1  UNL1        0.0031
      8 C         -10.1507  -18.9199   20.5126 C.ar    1  UNL1        0.0369
      9 C          -8.9491  -21.4056   17.6931 C.3     1  UNL1        0.2525
     10 O          -9.7884  -20.3782   18.3932 O.3     1  UNL1       -0.4714
     11 C          -6.0604  -15.4309   23.9946 C.2     1  UNL1        0.2111
     12 O          -4.7969  -14.6380   23.8367 O.2     1  UNL1       -0.2850
     13 C          -6.7633  -15.4658   25.3192 C.ar    1  UNL1        0.0961
     14 C          -6.1516  -15.8564   26.6320 C.ar    1  UNL1        0.0218
     15 C          -7.2116  -15.7483   27.6878 C.ar    1  UNL1        0.0200
     16 C          -8.4784  -15.2909   27.0276 C.ar    1  UNL1        0.0725
     17 N          -8.2014  -15.1163   25.5637 N.ar    1  UNL1       -0.3495
     18 H          -8.8496  -14.8236   24.8830 H       1  UNL1        0.1661
@<TRIPOS>BOND
     1     9    10    1
     2    10     3    1
     3     3     4   ar
     4     4     5   ar
     5     5     6   ar
     6     6     1    1
     7     1     2    2
     8     2    11    1
     9    11    12    2
    10    11    13    1
    11    13    14   ar
    12    14    15   ar
    13    15    16   ar
    14    16    17   ar
    15     6     7   ar
    16     7     8   ar
    17     8     3   ar
    18    17    13   ar
    19    17    18    1
