@<TRIPOS>MOLECULE
*****
 34 38 0 0 0
SMALL
GASTEIGER

@<TRIPOS>ATOM
      1 C           2.6893   -0.2511   24.2633 C.ar    1  UNL1        0.1655
      2 N           3.2295   -1.1081   23.1571 N.ar    1  UNL1       -0.2219
      3 C           4.3243   -1.9621   23.7247 C.ar    1  UNL1        0.1344
      4 C           5.2146   -2.9969   23.1031 C.ar    1  UNL1        0.1049
      5 C           6.2413   -3.7026   23.9385 C.ar    1  UNL1        0.0392
      6 C           6.3777   -3.3733   25.3956 C.ar    1  UNL1        0.0751
      7 N           5.4874   -2.3385   26.0171 N.ar    1  UNL1       -0.3361
      8 C           4.4606   -1.6328   25.1818 C.ar    1  UNL1        0.1615
      9 N           3.4502   -0.5754   25.5146 N.ar    1  UNL1       -0.2081
     10 H           5.5769   -2.1224   26.9735 H       1  UNL1        0.1675
     11 C          -0.1705    1.7682   27.6486 C.ar    1  UNL1        0.0535
     12 C          -1.1589    2.7382   27.0725 C.ar    1  UNL1        0.0060
     13 C          -1.1860    2.9926   25.5944 C.ar    1  UNL1        0.0173
     14 C          -0.2246    2.2769   24.6926 C.ar    1  UNL1        0.0601
     15 C           0.7639    1.3069   25.2687 C.ar    1  UNL1        0.0203
     16 C           0.7909    1.0525   26.7467 C.ar    1  UNL1        0.0061
     17 C           1.5825    0.7537   24.1399 C.ar    1  UNL1        0.0544
     18 C           1.0999    1.3819   22.8662 C.ar    1  UNL1        0.0790
     19 N          -0.0169    2.3233   23.2077 N.ar    1  UNL1       -0.3240
     20 C          -0.7903    3.1635   22.2352 C.3     1  UNL1        0.1305
     21 C           0.6375    2.1865   31.5115 C.3     1  UNL1        0.1109
     22 N           0.6104    2.4408   30.0335 N.am    1  UNL1       -0.2992
     23 C          -0.1435    1.5139   29.1267 C.2     1  UNL1        0.2459
     24 O          -0.8703    0.3326   29.6978 O.2     1  UNL1       -0.2701
     25 H           1.0875    3.2161   29.6586 H       1  UNL1        0.1498
     26 N           5.0781   -3.3261   21.6460 N.ar    1  UNL1       -0.2268
     27 C           5.5994   -2.5050   20.5041 C.ar    1  UNL1        0.0991
     28 C           5.2399   -3.2056   19.2274 C.ar    1  UNL1        0.0339
     29 C           4.4964   -4.4596   19.5803 C.ar    1  UNL1        0.1191
     30 N           4.3964   -4.5341   21.0751 N.ar    1  UNL1       -0.1637
     31 C           5.5666   -2.7348   17.8411 C.3     1  UNL1        0.1024
     32 N           5.3147   -1.3074   17.4551 N.3     1  UNL1       -0.2664
     33 C           6.4366   -0.3124   17.4881 C.3     1  UNL1        0.0899
     34 C           3.9410   -0.8751   17.0359 C.3     1  UNL1        0.0899
@<TRIPOS>BOND
     1    21    22    1
     2    22    23   am
     3    23    24    2
     4    23    11    1
     5    11    12   ar
     6    12    13   ar
     7    13    14   ar
     8    14    15   ar
     9    15    16   ar
    10    15    17   ar
    11    17     1    1
    12     1     2   ar
    13     2     3   ar
    14     3     4   ar
    15     4    26    1
    16    26    27   ar
    17    27    28   ar
    18    28    31    1
    19    31    32    1
    20    32    33    1
    21    32    34    1
    22    28    29   ar
    23    29    30   ar
    24     4     5   ar
    25     5     6   ar
    26     6     7   ar
    27     7     8   ar
    28     8     9   ar
    29    17    18   ar
    30    18    19   ar
    31    19    20    1
    32    16    11   ar
    33     9     1   ar
    34    19    14   ar
    35     8     3    1
    36    30    26   ar
    37    22    25    1
    38     7    10    1
@<TRIPOS>MOLECULE
*****
 34 38 0 0 0
SMALL
GASTEIGER

@<TRIPOS>ATOM
      1 C          -8.9427  -16.2585   23.2226 C.ar    1  UNL1        0.1655
      2 N          -7.4595  -16.3416   23.0148 N.ar    1  UNL1       -0.2219
      3 C          -6.7885  -15.8891   24.2777 C.ar    1  UNL1        0.1344
      4 C          -5.3426  -15.7605   24.6555 C.ar    1  UNL1        0.1049
      5 C          -4.9651  -15.2692   26.0216 C.ar    1  UNL1        0.0392
      6 C          -6.0337  -14.9065   27.0099 C.ar    1  UNL1        0.0751
      7 N          -7.4795  -15.0351   26.6321 N.ar    1  UNL1       -0.3361
      8 C          -7.8570  -15.5264   25.2660 C.ar    1  UNL1        0.1615
      9 N          -9.1884  -15.7547   24.6139 N.ar    1  UNL1       -0.2081
     10 H          -8.1808  -14.7971   27.2807 H       1  UNL1        0.1675
     11 C          -8.9979  -19.6713   19.7489 C.ar    1  UNL1        0.0535
     12 C         -10.2733  -19.6779   18.9595 C.ar    1  UNL1        0.0060
     13 C         -11.3603  -18.6959   19.2823 C.ar    1  UNL1        0.0173
     14 C         -11.1718  -17.7072   20.3945 C.ar    1  UNL1        0.0601
     15 C          -9.8963  -17.7006   21.1838 C.ar    1  UNL1        0.0203
     16 C          -8.8094  -18.6826   20.8610 C.ar    1  UNL1        0.0061
     17 C          -9.9955  -16.6164   22.2158 C.ar    1  UNL1        0.0544
     18 C         -11.3322  -15.9530   22.0641 C.ar    1  UNL1        0.0790
     19 N         -12.0592  -16.6272   20.9385 N.ar    1  UNL1       -0.3240
     20 C         -13.4325  -16.2820   20.4437 C.3     1  UNL1        0.1305
     21 C          -5.5285  -21.5952   19.8584 C.3     1  UNL1        0.1109
     22 N          -6.6155  -20.6132   20.1811 N.am    1  UNL1       -0.2992
     23 C          -7.9109  -20.6533   19.4261 C.2     1  UNL1        0.2459
     24 O          -8.1194  -21.6753   18.3482 O.2     1  UNL1       -0.2701
     25 H          -6.4786  -19.9424   20.8886 H       1  UNL1        0.1498
     26 N          -4.2741  -16.1232   23.6672 N.ar    1  UNL1       -0.2268
     27 C          -3.7164  -17.4963   23.4359 C.ar    1  UNL1        0.0991
     28 C          -2.6733  -17.3983   22.3623 C.ar    1  UNL1        0.0339
     29 C          -2.5864  -15.9645   21.9302 C.ar    1  UNL1        0.1191
     30 N          -3.5757  -15.1765   22.7366 N.ar    1  UNL1       -0.1637
     31 C          -1.8601  -18.5345   21.8168 C.3     1  UNL1        0.1024
     32 N          -1.5781  -18.6165   20.3458 N.3     1  UNL1       -0.2664
     33 C          -0.2202  -18.2547   19.8212 C.3     1  UNL1        0.0899
     34 C          -2.6539  -19.0601   19.3996 C.3     1  UNL1        0.0899
@<TRIPOS>BOND
     1    21    22    1
     2    22    23   am
     3    23    24    2
     4    23    11    1
     5    11    12   ar
     6    12    13   ar
     7    13    14   ar
     8    14    15   ar
     9    15    16   ar
    10    15    17   ar
    11    17     1    1
    12     1     2   ar
    13     2     3   ar
    14     3     4   ar
    15     4    26    1
    16    26    27   ar
    17    27    28   ar
    18    28    31    1
    19    31    32    1
    20    32    33    1
    21    32    34    1
    22    28    29   ar
    23    29    30   ar
    24     4     5   ar
    25     5     6   ar
    26     6     7   ar
    27     7     8   ar
    28     8     9   ar
    29    17    18   ar
    30    18    19   ar
    31    19    20    1
    32    16    11   ar
    33     9     1   ar
    34    19    14   ar
    35     8     3    1
    36    30    26   ar
    37    22    25    1
    38     7    10    1
@<TRIPOS>MOLECULE
*****
 34 38 0 0 0
SMALL
GASTEIGER

@<TRIPOS>ATOM
      1 C           1.9375   -0.3342   20.9534 C.ar    1  UNL1        0.1655
      2 N           1.6597    0.3394   22.2645 N.ar    1  UNL1       -0.2219
      3 C           0.6068    1.3830   22.0355 C.ar    1  UNL1        0.1344
      4 C          -0.0605    2.3557   22.9620 C.ar    1  UNL1        0.1049
      5 C          -1.1007    3.2998   22.4360 C.ar    1  UNL1        0.0392
      6 C          -1.4735    3.2711   20.9833 C.ar    1  UNL1        0.0751
      7 N          -0.8062    2.2984   20.0568 N.ar    1  UNL1       -0.3361
      8 C           0.2340    1.3544   20.5828 C.ar    1  UNL1        0.1615
      9 N           1.0564    0.2931   19.9141 N.ar    1  UNL1       -0.2081
     10 H          -1.0509    2.2796   19.1034 H       1  UNL1        0.1675
     11 C           5.1173   -2.4494   23.9752 C.ar    1  UNL1        0.0535
     12 C           5.9181   -3.5313   23.3133 C.ar    1  UNL1        0.0060
     13 C           5.6903   -3.8546   21.8664 C.ar    1  UNL1        0.0173
     14 C           4.6617   -3.0961   21.0814 C.ar    1  UNL1        0.0601
     15 C           3.8608   -2.0142   21.7432 C.ar    1  UNL1        0.0203
     16 C           4.0886   -1.6908   23.1901 C.ar    1  UNL1        0.0061
     17 C           2.9233   -1.4408   20.7221 C.ar    1  UNL1        0.0544
     18 C           3.1449   -2.1684   19.4293 C.ar    1  UNL1        0.0790
     19 N           4.2192   -3.1914   19.6513 N.ar    1  UNL1       -0.3240
     20 C           4.7567   -4.1428   18.6237 C.3     1  UNL1        0.1305
     21 C           4.4045   -1.5347   27.7706 C.3     1  UNL1        0.1109
     22 N           4.1767   -1.8581   26.3237 N.am    1  UNL1       -0.2992
     23 C           5.3451   -2.1260   25.4221 C.2     1  UNL1        0.2459
     24 O           6.7413   -2.0706   25.9674 O.2     1  UNL1       -0.2701
     25 H           3.2602   -1.8944   25.9658 H       1  UNL1        0.1498
     26 N           0.3123    2.3843   24.4147 N.ar    1  UNL1       -0.2268
     27 C          -0.5335    1.8930   25.5518 C.ar    1  UNL1        0.0991
     28 C           0.2279    2.1143   26.8252 C.ar    1  UNL1        0.0339
     29 C           1.5442    2.7423   26.4749 C.ar    1  UNL1        0.1191
     30 N           1.5964    2.9092   24.9852 N.ar    1  UNL1       -0.1637
     31 C          -0.2443    1.7683   28.2063 C.3     1  UNL1        0.1024
     32 N          -0.1292    0.3591   28.7071 N.3     1  UNL1       -0.2664
     33 C           1.1946   -0.1623   29.1820 C.3     1  UNL1        0.0899
     34 C          -1.3379   -0.5287   28.7329 C.3     1  UNL1        0.0899
@<TRIPOS>BOND
     1    21    22    1
     2    22    23   am
     3    23    24    2
     4    23    11    1
     5    11    12   ar
     6    12    13   ar
     7    13    14   ar
     8    14    15   ar
     9    15    16   ar
    10    15    17   ar
    11    17     1    1
    12     1     2   ar
    13     2     3   ar
    14     3     4   ar
    15     4    26    1
    16    26    27   ar
    17    27    28   ar
    18    28    31    1
    19    31    32    1
    20    32    33    1
    21    32    34    1
    22    28    29   ar
    23    29    30   ar
    24     4     5   ar
    25     5     6   ar
    26     6     7   ar
    27     7     8   ar
    28     8     9   ar
    29    17    18   ar
    30    18    19   ar
    31    19    20    1
    32    16    11   ar
    33     9     1   ar
    34    19    14   ar
    35     8     3    1
    36    30    26   ar
    37    22    25    1
    38     7    10    1
@<TRIPOS>MOLECULE
*****
 34 38 0 0 0
SMALL
GASTEIGER

@<TRIPOS>ATOM
      1 C           0.8504    1.1240   20.0278 C.ar    1  UNL1        0.1655
      2 N          -0.3482    1.6494   20.7606 N.ar    1  UNL1       -0.2219
      3 C          -1.0139    2.6716   19.8876 C.ar    1  UNL1        0.1344
      4 C          -2.2352    3.5194   20.0868 C.ar    1  UNL1        0.1049
      5 C          -2.6692    4.4734   19.0137 C.ar    1  UNL1        0.0392
      6 C          -1.8818    4.5795   17.7413 C.ar    1  UNL1        0.0751
      7 N          -0.6605    3.7318   17.5422 N.ar    1  UNL1       -0.3361
      8 C          -0.2265    2.7778   18.6153 C.ar    1  UNL1        0.1615
      9 N           0.9257    1.8213   18.7019 N.ar    1  UNL1       -0.2081
     10 H          -0.1438    3.8015   16.7071 H       1  UNL1        0.1675
     11 C           2.5505    0.2680   24.5104 C.ar    1  UNL1        0.0535
     12 C           3.5008   -0.8915   24.5611 C.ar    1  UNL1        0.0060
     13 C           3.8305   -1.6463   23.3075 C.ar    1  UNL1        0.0173
     14 C           3.2099   -1.2417   22.0032 C.ar    1  UNL1        0.0601
     15 C           2.2596   -0.0823   21.9526 C.ar    1  UNL1        0.0203
     16 C           1.9299    0.6726   23.2062 C.ar    1  UNL1        0.0061
     17 C           1.8061    0.0837   20.5323 C.ar    1  UNL1        0.0544
     18 C           2.4762   -0.9731   19.7053 C.ar    1  UNL1        0.0790
     19 N           3.3438   -1.7923   20.6144 N.ar    1  UNL1       -0.3240
     20 C           4.1957   -2.9575   20.2062 C.3     1  UNL1        0.1305
     21 C           1.5133    1.0334   28.2638 C.3     1  UNL1        0.1109
     22 N           1.8429    0.2785   27.0102 N.am    1  UNL1       -0.2992
     23 C           2.2208    1.0228   25.7640 C.2     1  UNL1        0.2459
     24 O           2.2691    2.5220   25.7714 O.2     1  UNL1       -0.2701
     25 H           1.8113   -0.7055   27.0054 H       1  UNL1        0.1498
     26 N          -3.0225    3.4131   21.3591 N.ar    1  UNL1       -0.2268
     27 C          -2.5581    3.8362   22.7212 C.ar    1  UNL1        0.0991
     28 C          -3.6610    3.5497   23.6968 C.ar    1  UNL1        0.0339
     29 C          -4.8070    2.9495   22.9375 C.ar    1  UNL1        0.1191
     30 N          -4.4124    2.8651   21.4928 N.ar    1  UNL1       -0.1637
     31 C          -3.6243    3.8166   25.1724 C.3     1  UNL1        0.1024
     32 N          -2.3080    3.9873   25.8711 N.3     1  UNL1       -0.2664
     33 C          -1.8714    5.3482   26.3261 C.3     1  UNL1        0.0899
     34 C          -1.4284    2.7970   26.1149 C.3     1  UNL1        0.0899
@<TRIPOS>BOND
     1    21    22    1
     2    22    23   am
     3    23    24    2
     4    23    11    1
     5    11    12   ar
     6    12    13   ar
     7    13    14   ar
     8    14    15   ar
     9    15    16   ar
    10    15    17   ar
    11    17     1    1
    12     1     2   ar
    13     2     3   ar
    14     3     4   ar
    15     4    26    1
    16    26    27   ar
    17    27    28   ar
    18    28    31    1
    19    31    32    1
    20    32    33    1
    21    32    34    1
    22    28    29   ar
    23    29    30   ar
    24     4     5   ar
    25     5     6   ar
    26     6     7   ar
    27     7     8   ar
    28     8     9   ar
    29    17    18   ar
    30    18    19   ar
    31    19    20    1
    32    16    11   ar
    33     9     1   ar
    34    19    14   ar
    35     8     3    1
    36    30    26   ar
    37    22    25    1
    38     7    10    1
@<TRIPOS>MOLECULE
*****
 34 38 0 0 0
SMALL
GASTEIGER

@<TRIPOS>ATOM
      1 C           1.9557   -0.1775   19.9124 C.ar    1  UNL1        0.1655
      2 N           1.2279    0.6136   20.9585 N.ar    1  UNL1       -0.2219
      3 C           0.4597    1.7005   20.2668 C.ar    1  UNL1        0.1344
      4 C          -0.4375    2.7835   20.7884 C.ar    1  UNL1        0.1049
      5 C          -1.0818    3.7471   19.8364 C.ar    1  UNL1        0.0392
      6 C          -0.8287    3.6277   18.3626 C.ar    1  UNL1        0.0751
      7 N           0.0685    2.5447   17.8411 N.ar    1  UNL1       -0.3361
      8 C           0.7127    1.5811   18.7931 C.ar    1  UNL1        0.1615
      9 N           1.6373    0.4204   18.5741 N.ar    1  UNL1       -0.2081
     10 H           0.2345    2.4663   16.8739 H       1  UNL1        0.1675
     11 C           4.2062   -1.6730   23.9639 C.ar    1  UNL1        0.0535
     12 C           5.0071   -2.9242   23.7569 C.ar    1  UNL1        0.0060
     13 C           5.0484   -3.5733   22.4053 C.ar    1  UNL1        0.0173
     14 C           4.2887   -2.9712   21.2606 C.ar    1  UNL1        0.0601
     15 C           3.4877   -1.7200   21.4676 C.ar    1  UNL1        0.0203
     16 C           3.4465   -1.0709   22.8193 C.ar    1  UNL1        0.0061
     17 C           2.8457   -1.3591   20.1608 C.ar    1  UNL1        0.0544
     18 C           3.2498   -2.3873   19.1462 C.ar    1  UNL1        0.0790
     19 N           4.1417   -3.3836   19.8259 N.ar    1  UNL1       -0.3240
     20 C           4.7753   -4.5820   19.1837 C.3     1  UNL1        0.1305
     21 C           3.5403   -1.1123   27.8359 C.3     1  UNL1        0.1109
     22 N           3.5816   -1.7614   26.4842 N.am    1  UNL1       -0.2992
     23 C           4.1649   -1.0239   25.3156 C.2     1  UNL1        0.2459
     24 O           4.7070    0.3626   25.4986 O.2     1  UNL1       -0.2701
     25 H           3.2258   -2.6715   26.3641 H       1  UNL1        0.1498
     26 N          -0.6905    2.9029   22.2621 N.ar    1  UNL1       -0.2268
     27 C          -1.8996    3.5179   22.9021 C.ar    1  UNL1        0.0991
     28 C          -1.7352    3.4233   24.3901 C.ar    1  UNL1        0.0339
     29 C          -0.4244    2.7499   24.6696 C.ar    1  UNL1        0.1191
     30 N           0.2213    2.4282   23.3545 N.ar    1  UNL1       -0.1637
     31 C          -2.7103    3.9158   25.4180 C.3     1  UNL1        0.1024
     32 N          -3.9837    4.5804   24.9859 N.3     1  UNL1       -0.2664
     33 C          -4.0204    6.0649   24.7741 C.3     1  UNL1        0.0899
     34 C          -5.2204    3.7607   24.7657 C.3     1  UNL1        0.0899
@<TRIPOS>BOND
     1    21    22    1
     2    22    23   am
     3    23    24    2
     4    23    11    1
     5    11    12   ar
     6    12    13   ar
     7    13    14   ar
     8    14    15   ar
     9    15    16   ar
    10    15    17   ar
    11    17     1    1
    12     1     2   ar
    13     2     3   ar
    14     3     4   ar
    15     4    26    1
    16    26    27   ar
    17    27    28   ar
    18    28    31    1
    19    31    32    1
    20    32    33    1
    21    32    34    1
    22    28    29   ar
    23    29    30   ar
    24     4     5   ar
    25     5     6   ar
    26     6     7   ar
    27     7     8   ar
    28     8     9   ar
    29    17    18   ar
    30    18    19   ar
    31    19    20    1
    32    16    11   ar
    33     9     1   ar
    34    19    14   ar
    35     8     3    1
    36    30    26   ar
    37    22    25    1
    38     7    10    1
@<TRIPOS>MOLECULE
*****
 34 38 0 0 0
SMALL
GASTEIGER

@<TRIPOS>ATOM
      1 C           4.5962   -1.8680   25.0586 C.ar    1  UNL1        0.1655
      2 N           3.5003   -1.2398   25.8676 N.ar    1  UNL1       -0.2219
      3 C           3.9721   -1.1389   27.2879 C.ar    1  UNL1        0.1344
      4 C           3.3176   -0.6049   28.5274 C.ar    1  UNL1        0.1049
      5 C           4.0505   -0.6367   29.8358 C.ar    1  UNL1        0.0392
      6 C           5.4381   -1.2026   29.9045 C.ar    1  UNL1        0.0751
      7 N           6.0925   -1.7365   28.6650 N.ar    1  UNL1       -0.3361
      8 C           5.3596   -1.7047   27.3566 C.ar    1  UNL1        0.1615
      9 N           5.7453   -2.1553   25.9789 N.ar    1  UNL1       -0.2081
     10 H           7.0032   -2.1079   28.7102 H       1  UNL1        0.1675
     11 C           1.7741   -0.0370   21.5373 C.ar    1  UNL1        0.0535
     12 C           2.0740   -0.6205   20.1884 C.ar    1  UNL1        0.0060
     13 C           3.1501   -1.6550   20.0412 C.ar    1  UNL1        0.0173
     14 C           3.9264   -2.1060   21.2428 C.ar    1  UNL1        0.0601
     15 C           3.6265   -1.5225   22.5917 C.ar    1  UNL1        0.0203
     16 C           2.5503   -0.4880   22.7389 C.ar    1  UNL1        0.0061
     17 C           4.5510   -2.1579   23.5876 C.ar    1  UNL1        0.0544
     18 C           5.4222   -3.1341   22.8542 C.ar    1  UNL1        0.0790
     19 N           5.0362   -3.1020   21.4050 N.ar    1  UNL1       -0.3240
     20 C           5.6519   -3.9220   20.3102 C.3     1  UNL1        0.1305
     21 C          -0.3802    2.9484   23.0192 C.3     1  UNL1        0.1109
     22 N           0.6960    1.9139   22.8720 N.am    1  UNL1       -0.2992
     23 C           0.6979    0.9975   21.6845 C.2     1  UNL1        0.2459
     24 O          -0.3762    1.1156   20.6443 O.2     1  UNL1       -0.2701
     25 H           1.4010    1.8364   23.5548 H       1  UNL1        0.1498
     26 N           1.9301   -0.0391   28.4585 N.ar    1  UNL1       -0.2268
     27 C           1.4140    0.9054   27.4138 C.ar    1  UNL1        0.0991
     28 C          -0.0200    1.2098   27.7319 C.ar    1  UNL1        0.0339
     29 C          -0.3901    0.4534   28.9732 C.ar    1  UNL1        0.1191
     30 N           0.8152   -0.3185   29.4223 N.ar    1  UNL1       -0.1637
     31 C          -0.9249    2.1122   26.9465 C.3     1  UNL1        0.1024
     32 N          -0.8936    3.5936   27.1802 N.3     1  UNL1       -0.2664
     33 C          -1.8303    4.4914   26.4275 C.3     1  UNL1        0.0899
     34 C           0.0742    4.1770   28.1664 C.3     1  UNL1        0.0899
@<TRIPOS>BOND
     1    21    22    1
     2    22    23   am
     3    23    24    2
     4    23    11    1
     5    11    12   ar
     6    12    13   ar
     7    13    14   ar
     8    14    15   ar
     9    15    16   ar
    10    15    17   ar
    11    17     1    1
    12     1     2   ar
    13     2     3   ar
    14     3     4   ar
    15     4    26    1
    16    26    27   ar
    17    27    28   ar
    18    28    31    1
    19    31    32    1
    20    32    33    1
    21    32    34    1
    22    28    29   ar
    23    29    30   ar
    24     4     5   ar
    25     5     6   ar
    26     6     7   ar
    27     7     8   ar
    28     8     9   ar
    29    17    18   ar
    30    18    19   ar
    31    19    20    1
    32    16    11   ar
    33     9     1   ar
    34    19    14   ar
    35     8     3    1
    36    30    26   ar
    37    22    25    1
    38     7    10    1
@<TRIPOS>MOLECULE
*****
 34 38 0 0 0
SMALL
GASTEIGER

@<TRIPOS>ATOM
      1 C           0.6597    1.7282   21.5072 C.ar    1  UNL1        0.1655
      2 N          -0.6632    2.3946   21.7438 N.ar    1  UNL1       -0.2219
      3 C          -1.1308    2.9723   20.4409 C.ar    1  UNL1        0.1344
      4 C          -2.3644    3.7401   20.0686 C.ar    1  UNL1        0.1049
      5 C          -2.5642    4.1986   18.6544 C.ar    1  UNL1        0.0392
      6 C          -1.5303    3.8892   17.6126 C.ar    1  UNL1        0.0751
      7 N          -0.2967    3.1214   17.9850 N.ar    1  UNL1       -0.3361
      8 C          -0.0969    2.6629   19.3991 C.ar    1  UNL1        0.1615
      9 N           1.0096    1.8940   20.0581 N.ar    1  UNL1       -0.2081
     10 H           0.3818    2.9184   17.3012 H       1  UNL1        0.1675
     11 C           3.6318   -2.1100   21.1189 C.ar    1  UNL1        0.0535
     12 C           4.2660   -2.4896   22.4241 C.ar    1  UNL1        0.0060
     13 C           3.9542   -1.7069   23.6652 C.ar    1  UNL1        0.0173
     14 C           3.0082   -0.5447   23.6010 C.ar    1  UNL1        0.0601
     15 C           2.3740   -0.1651   22.2958 C.ar    1  UNL1        0.0203
     16 C           2.6858   -0.9478   21.0548 C.ar    1  UNL1        0.0061
     17 C           1.4873    1.0202   22.5386 C.ar    1  UNL1        0.0544
     18 C           1.5735    1.3731   23.9939 C.ar    1  UNL1        0.0790
     19 N           2.5135    0.4060   24.6505 N.ar    1  UNL1       -0.3240
     20 C           2.8923    0.3919   26.1018 C.3     1  UNL1        0.1305
     21 C           4.6289   -5.1246   18.7381 C.3     1  UNL1        0.1109
     22 N           4.3171   -4.3419   19.9792 N.am    1  UNL1       -0.2992
     23 C           3.9436   -2.8927   19.8779 C.2     1  UNL1        0.2459
     24 O           3.8820   -2.2262   18.5356 O.2     1  UNL1       -0.2701
     25 H           4.3575   -4.7794   20.8602 H       1  UNL1        0.1498
     26 N          -3.3982    4.0494   21.1105 N.ar    1  UNL1       -0.2268
     27 C          -4.8656    3.7545   21.0113 C.ar    1  UNL1        0.0991
     28 C          -5.5205    4.2308   22.2740 C.ar    1  UNL1        0.0339
     29 C          -4.4579    4.8200   23.1535 C.ar    1  UNL1        0.1191
     30 N          -3.1462    4.7079   22.4344 N.ar    1  UNL1       -0.1637
     31 C          -6.9815    4.1347   22.5999 C.3     1  UNL1        0.1024
     32 N          -7.7444    5.3645   22.9944 N.3     1  UNL1       -0.2664
     33 C          -8.5662    5.3669   24.2492 C.3     1  UNL1        0.0899
     34 C          -7.6855    6.5917   22.1341 C.3     1  UNL1        0.0899
@<TRIPOS>BOND
     1    21    22    1
     2    22    23   am
     3    23    24    2
     4    23    11    1
     5    11    12   ar
     6    12    13   ar
     7    13    14   ar
     8    14    15   ar
     9    15    16   ar
    10    15    17   ar
    11    17     1    1
    12     1     2   ar
    13     2     3   ar
    14     3     4   ar
    15     4    26    1
    16    26    27   ar
    17    27    28   ar
    18    28    31    1
    19    31    32    1
    20    32    33    1
    21    32    34    1
    22    28    29   ar
    23    29    30   ar
    24     4     5   ar
    25     5     6   ar
    26     6     7   ar
    27     7     8   ar
    28     8     9   ar
    29    17    18   ar
    30    18    19   ar
    31    19    20    1
    32    16    11   ar
    33     9     1   ar
    34    19    14   ar
    35     8     3    1
    36    30    26   ar
    37    22    25    1
    38     7    10    1
@<TRIPOS>MOLECULE
*****
 34 38 0 0 0
SMALL
GASTEIGER

@<TRIPOS>ATOM
      1 C          -2.0372    3.6428   21.9529 C.ar    1  UNL1        0.1655
      2 N          -0.8830    3.1198   21.1503 N.ar    1  UNL1       -0.2219
      3 C          -1.1334    3.4498   19.7087 C.ar    1  UNL1        0.1344
      4 C          -0.3387    3.1822   18.4650 C.ar    1  UNL1        0.1049
      5 C          -0.8529    3.6417   17.1329 C.ar    1  UNL1        0.0392
      6 C          -2.1620    4.3688   17.0446 C.ar    1  UNL1        0.0751
      7 N          -2.9567    4.6363   18.2882 N.ar    1  UNL1       -0.3361
      8 C          -2.4425    4.1768   19.6203 C.ar    1  UNL1        0.1615
      9 N          -3.0010    4.2961   21.0073 N.ar    1  UNL1       -0.2081
     10 H          -3.8159    5.1135   18.2302 H       1  UNL1        0.1675
     11 C           0.8045    1.5684   25.3200 C.ar    1  UNL1        0.0535
     12 C           0.2497    1.6944   26.7079 C.ar    1  UNL1        0.0060
     13 C          -1.0525    2.4038   26.9335 C.ar    1  UNL1        0.0173
     14 C          -1.8000    2.9872   25.7712 C.ar    1  UNL1        0.0601
     15 C          -1.2451    2.8611   24.3833 C.ar    1  UNL1        0.0203
     16 C           0.0571    2.1517   24.1577 C.ar    1  UNL1        0.0061
     17 C          -2.1992    3.5321   23.4400 C.ar    1  UNL1        0.0544
     18 C          -3.3436    4.0728   24.2449 C.ar    1  UNL1        0.0790
     19 N          -3.0969    3.7360   25.6857 N.ar    1  UNL1       -0.3240
     20 C          -3.9902    4.0865   26.8385 C.3     1  UNL1        0.1305
     21 C           3.8504   -0.9270   25.8154 C.3     1  UNL1        0.1109
     22 N           2.5482   -0.2176   26.0410 N.am    1  UNL1       -0.2992
     23 C           2.1068    0.8590   25.0944 C.2     1  UNL1        0.2459
     24 O           2.9676    1.2261   23.9222 O.2     1  UNL1       -0.2701
     25 H           1.9832   -0.4586   26.8104 H       1  UNL1        0.1498
     26 N           0.9704    2.4552   18.5534 N.ar    1  UNL1       -0.2268
     27 C           1.1706    0.9773   18.3930 C.ar    1  UNL1        0.0991
     28 C           2.6330    0.6871   18.5583 C.ar    1  UNL1        0.0339
     29 C           3.3365    1.9856   18.8208 C.ar    1  UNL1        0.1191
     30 N           2.3089    3.0784   18.8178 N.ar    1  UNL1       -0.1637
     31 C           3.2785   -0.6644   18.4755 C.3     1  UNL1        0.1024
     32 N           3.2358   -1.5895   19.6555 N.3     1  UNL1       -0.2664
     33 C           3.5308   -3.0491   19.4752 C.3     1  UNL1        0.0899
     34 C           2.8980   -1.0550   21.0156 C.3     1  UNL1        0.0899
@<TRIPOS>BOND
     1    21    22    1
     2    22    23   am
     3    23    24    2
     4    23    11    1
     5    11    12   ar
     6    12    13   ar
     7    13    14   ar
     8    14    15   ar
     9    15    16   ar
    10    15    17   ar
    11    17     1    1
    12     1     2   ar
    13     2     3   ar
    14     3     4   ar
    15     4    26    1
    16    26    27   ar
    17    27    28   ar
    18    28    31    1
    19    31    32    1
    20    32    33    1
    21    32    34    1
    22    28    29   ar
    23    29    30   ar
    24     4     5   ar
    25     5     6   ar
    26     6     7   ar
    27     7     8   ar
    28     8     9   ar
    29    17    18   ar
    30    18    19   ar
    31    19    20    1
    32    16    11   ar
    33     9     1   ar
    34    19    14   ar
    35     8     3    1
    36    30    26   ar
    37    22    25    1
    38     7    10    1
@<TRIPOS>MOLECULE
*****
 34 38 0 0 0
SMALL
GASTEIGER

@<TRIPOS>ATOM
      1 C           3.5740   -0.7182   26.7107 C.ar    1  UNL1        0.1655
      2 N           3.9899   -1.1379   28.0894 N.ar    1  UNL1       -0.2219
      3 C           3.2765   -0.2614   29.0757 C.ar    1  UNL1        0.1344
      4 C           3.2964   -0.2145   30.5748 C.ar    1  UNL1        0.1049
      5 C           2.4596    0.7938   31.3048 C.ar    1  UNL1        0.0392
      6 C           1.6027    1.7553   30.5356 C.ar    1  UNL1        0.0751
      7 N           1.5829    1.7083   29.0366 N.ar    1  UNL1       -0.3361
      8 C           2.4197    0.7000   28.3065 C.ar    1  UNL1        0.1615
      9 N           2.6036    0.4177   26.8449 N.ar    1  UNL1       -0.2081
     10 H           1.0205    2.3393   28.5317 H       1  UNL1        0.1675
     11 C           2.0398   -0.0769   22.1334 C.ar    1  UNL1        0.0535
     12 C           2.8074   -0.8997   21.1415 C.ar    1  UNL1        0.0060
     13 C           3.9151   -1.7968   21.6086 C.ar    1  UNL1        0.0173
     14 C           4.2553   -1.8711   23.0676 C.ar    1  UNL1        0.0601
     15 C           3.4878   -1.0483   24.0595 C.ar    1  UNL1        0.0203
     16 C           2.3800   -0.1512   23.5924 C.ar    1  UNL1        0.0061
     17 C           4.0456   -1.3274   25.4237 C.ar    1  UNL1        0.0544
     18 C           5.1579   -2.3227   25.2748 C.ar    1  UNL1        0.0790
     19 N           5.2875   -2.6587   23.8187 N.ar    1  UNL1       -0.3240
     20 C           6.2757   -3.6145   23.2189 C.3     1  UNL1        0.1305
     21 C          -0.2441    3.1367   21.6793 C.3     1  UNL1        0.1109
     22 N           0.8636    2.2396   22.1464 N.am    1  UNL1       -0.2992
     23 C           0.9321    0.8202   21.6663 C.2     1  UNL1        0.2459
     24 O          -0.1071    0.2979   20.7191 O.2     1  UNL1       -0.2701
     25 H           1.5457    2.5825   22.7681 H       1  UNL1        0.1498
     26 N           4.1532   -1.1759   31.3439 N.ar    1  UNL1       -0.2268
     27 C           5.5832   -1.5163   31.0449 C.ar    1  UNL1        0.0991
     28 C           6.0443   -2.5165   32.0633 C.ar    1  UNL1        0.0339
     29 C           4.8993   -2.7943   32.9916 C.ar    1  UNL1        0.1191
     30 N           3.7306   -1.9658   32.5470 N.ar    1  UNL1       -0.1637
     31 C           7.4105   -3.1310   32.1398 C.3     1  UNL1        0.1024
     32 N           7.7686   -4.2774   31.2412 N.3     1  UNL1       -0.2664
     33 C           7.0692   -5.5957   31.3924 C.3     1  UNL1        0.0899
     34 C           8.8260   -4.1055   30.1914 C.3     1  UNL1        0.0899
@<TRIPOS>BOND
     1    21    22    1
     2    22    23   am
     3    23    24    2
     4    23    11    1
     5    11    12   ar
     6    12    13   ar
     7    13    14   ar
     8    14    15   ar
     9    15    16   ar
    10    15    17   ar
    11    17     1    1
    12     1     2   ar
    13     2     3   ar
    14     3     4   ar
    15     4    26    1
    16    26    27   ar
    17    27    28   ar
    18    28    31    1
    19    31    32    1
    20    32    33    1
    21    32    34    1
    22    28    29   ar
    23    29    30   ar
    24     4     5   ar
    25     5     6   ar
    26     6     7   ar
    27     7     8   ar
    28     8     9   ar
    29    17    18   ar
    30    18    19   ar
    31    19    20    1
    32    16    11   ar
    33     9     1   ar
    34    19    14   ar
    35     8     3    1
    36    30    26   ar
    37    22    25    1
    38     7    10    1
