@<TRIPOS>MOLECULE
*****
 25 27 0 0 0
SMALL
GASTEIGER

@<TRIPOS>ATOM
      1 N          -8.1342  -20.3145   22.7177 N.pl3   1  UNL1       -0.2150
      2 H          -8.1840  -21.1433   23.2468 H       1  UNL1        0.1737
      3 C          -6.8361  -19.9030   22.0888 C.ar    1  UNL1        0.0648
      4 C          -6.2311  -20.7400   21.0010 C.ar    1  UNL1        0.0159
      5 C          -4.9330  -20.3285   20.3721 C.ar    1  UNL1        0.0013
      6 C          -4.2399  -19.0799   20.8310 C.ar    1  UNL1        0.0002
      7 C          -4.8448  -18.2429   21.9188 C.ar    1  UNL1        0.0013
      8 C          -6.1429  -18.6544   22.5477 C.ar    1  UNL1        0.0159
      9 C          -2.9417  -18.6684   20.2021 C.ar    1  UNL1        0.0031
     10 C          -1.6554  -18.8441   20.9534 C.ar    1  UNL1        0.0207
     11 C          -0.3572  -18.4325   20.3244 C.ar    1  UNL1        0.0989
     12 N          -0.3455  -17.8453   18.9442 N.ar    1  UNL1       -0.2423
     13 C          -1.6319  -17.6696   18.1929 C.ar    1  UNL1        0.0989
     14 C          -2.9300  -18.0811   18.8218 C.ar    1  UNL1        0.0207
     15 O          -9.4801  -19.3309   24.0295 O.2     1  UNL1       -0.1499
     16 S          -9.3565  -19.4634   22.5405 S.O2    1  UNL1        0.0736
     17 O          -9.2329  -19.5959   21.0515 O.2     1  UNL1       -0.1499
     18 C         -10.5789  -18.6122   22.3632 C.ar    1  UNL1        0.1268
     19 C         -11.6982  -18.6906   23.3587 C.ar    1  UNL1        0.0316
     20 C         -12.9206  -17.8395   23.1815 C.ar    1  UNL1        0.0599
     21 CL        -14.0399  -17.9179   24.1770 Cl      1  UNL1       -0.0822
     22 C         -13.0236  -16.9099   22.0088 C.ar    1  UNL1        0.0229
     23 C         -11.9043  -16.8315   21.0133 C.ar    1  UNL1        0.0599
     24 CL        -12.0073  -15.9019   19.8406 Cl      1  UNL1       -0.0822
     25 C         -10.6819  -17.6826   21.1905 C.ar    1  UNL1        0.0316
@<TRIPOS>BOND
     1    15    16    2
     2    16    17    2
     3    16     1    1
     4     1     3    1
     5     3     4   ar
     6     4     5   ar
     7     5     6   ar
     8     6     9    1
     9     9    10   ar
    10    10    11   ar
    11    11    12   ar
    12    12    13   ar
    13    13    14   ar
    14     6     7   ar
    15     7     8   ar
    16    16    18    1
    17    18    19   ar
    18    19    20   ar
    19    20    21    1
    20    20    22   ar
    21    22    23   ar
    22    23    24    1
    23    23    25   ar
    24     8     3   ar
    25    25    18   ar
    26    14     9   ar
    27     1     2    1
@<TRIPOS>MOLECULE
*****
 25 27 0 0 0
SMALL
GASTEIGER

@<TRIPOS>ATOM
      1 N          -8.1348  -20.3454   22.6709 N.pl3   1  UNL1       -0.2150
      2 H          -8.1887  -21.1840   23.1839 H       1  UNL1        0.1737
      3 C          -6.8340  -19.9272   22.0520 C.ar    1  UNL1        0.0648
      4 C          -6.1374  -18.6895   22.5345 C.ar    1  UNL1        0.0159
      5 C          -4.8367  -18.2713   21.9156 C.ar    1  UNL1        0.0013
      6 C          -4.2325  -19.0908   20.8140 C.ar    1  UNL1        0.0002
      7 C          -4.9290  -20.3285   20.3315 C.ar    1  UNL1        0.0013
      8 C          -6.2297  -20.7467   20.9504 C.ar    1  UNL1        0.0159
      9 C          -2.9317  -18.6725   20.1951 C.ar    1  UNL1        0.0031
     10 C          -1.6504  -18.8407   20.9566 C.ar    1  UNL1        0.0207
     11 C          -0.3496  -18.4225   20.3376 C.ar    1  UNL1        0.0989
     12 N          -0.3302  -17.8360   18.9571 N.ar    1  UNL1       -0.2423
     13 C          -1.6116  -17.6678   18.1956 C.ar    1  UNL1        0.0989
     14 C          -2.9123  -18.0860   18.8146 C.ar    1  UNL1        0.0207
     15 O          -9.5083  -19.4237   23.9989 O.2     1  UNL1       -0.1499
     16 S          -9.3534  -19.4861   22.5083 S.O2    1  UNL1        0.0736
     17 O          -9.1984  -19.5485   21.0176 O.2     1  UNL1       -0.1499
     18 C         -10.5720  -18.6267   22.3455 C.ar    1  UNL1        0.1268
     19 C         -10.6789  -17.6901   21.1788 C.ar    1  UNL1        0.0316
     20 C         -11.8974  -16.8307   21.0160 C.ar    1  UNL1        0.0599
     21 CL        -12.0043  -15.8941   19.8492 Cl      1  UNL1       -0.0822
     22 C         -13.0092  -16.9080   22.0200 C.ar    1  UNL1        0.0229
     23 C         -12.9023  -17.8446   23.1868 C.ar    1  UNL1        0.0599
     24 CL        -14.0141  -17.9218   24.1908 Cl      1  UNL1       -0.0822
     25 C         -11.6837  -18.7040   23.3495 C.ar    1  UNL1        0.0316
@<TRIPOS>BOND
     1    15    16    2
     2    16    17    2
     3    16     1    1
     4     1     3    1
     5     3     4   ar
     6     4     5   ar
     7     5     6   ar
     8     6     9    1
     9     9    10   ar
    10    10    11   ar
    11    11    12   ar
    12    12    13   ar
    13    13    14   ar
    14     6     7   ar
    15     7     8   ar
    16    16    18    1
    17    18    19   ar
    18    19    20   ar
    19    20    21    1
    20    20    22   ar
    21    22    23   ar
    22    23    24    1
    23    23    25   ar
    24     8     3   ar
    25    25    18   ar
    26    14     9   ar
    27     1     2    1
@<TRIPOS>MOLECULE
*****
 25 27 0 0 0
SMALL
GASTEIGER

@<TRIPOS>ATOM
      1 N          -7.6172  -16.5664   24.3418 N.pl3   1  UNL1       -0.2150
      2 H          -7.5765  -16.2804   25.2829 H       1  UNL1        0.1737
      3 C          -6.3546  -16.9010   23.6043 C.ar    1  UNL1        0.0648
      4 C          -6.3222  -18.0696   22.6644 C.ar    1  UNL1        0.0159
      5 C          -5.0596  -18.4042   21.9270 C.ar    1  UNL1        0.0013
      6 C          -3.8294  -17.5701   22.1293 C.ar    1  UNL1        0.0002
      7 C          -3.8618  -16.4016   23.0692 C.ar    1  UNL1        0.0013
      8 C          -5.1244  -16.0670   23.8066 C.ar    1  UNL1        0.0159
      9 C          -2.5668  -17.9047   21.3918 C.ar    1  UNL1        0.0031
     10 C          -2.2481  -19.3323   21.0596 C.ar    1  UNL1        0.0207
     11 C          -0.9855  -19.6669   20.3221 C.ar    1  UNL1        0.0989
     12 N          -0.0415  -18.5739   19.9168 N.ar    1  UNL1       -0.2423
     13 C          -0.3603  -17.1462   20.2491 C.ar    1  UNL1        0.0989
     14 C          -1.6229  -16.8117   20.9865 C.ar    1  UNL1        0.0207
     15 O          -9.3661  -17.7371   24.6078 O.2     1  UNL1       -0.1499
     16 S          -8.9419  -16.6677   23.6453 S.O2    1  UNL1        0.0736
     17 O          -8.5176  -15.5983   22.6829 O.2     1  UNL1       -0.1499
     18 C         -10.2666  -16.7689   22.9489 C.ar    1  UNL1        0.1268
     19 C         -11.4380  -17.3886   23.6516 C.ar    1  UNL1        0.0316
     20 C         -12.7626  -17.4898   22.9552 C.ar    1  UNL1        0.0599
     21 CL        -13.9340  -18.1095   23.6580 Cl      1  UNL1       -0.0822
     22 C         -12.9158  -16.9714   21.5560 C.ar    1  UNL1        0.0229
     23 C         -11.7445  -16.3518   20.8533 C.ar    1  UNL1        0.0599
     24 CL        -11.8978  -15.8333   19.4540 Cl      1  UNL1       -0.0822
     25 C         -10.4198  -16.2505   21.5497 C.ar    1  UNL1        0.0316
@<TRIPOS>BOND
     1    15    16    2
     2    16    17    2
     3    16     1    1
     4     1     3    1
     5     3     4   ar
     6     4     5   ar
     7     5     6   ar
     8     6     9    1
     9     9    10   ar
    10    10    11   ar
    11    11    12   ar
    12    12    13   ar
    13    13    14   ar
    14     6     7   ar
    15     7     8   ar
    16    16    18    1
    17    18    19   ar
    18    19    20   ar
    19    20    21    1
    20    20    22   ar
    21    22    23   ar
    22    23    24    1
    23    23    25   ar
    24     8     3   ar
    25    25    18   ar
    26    14     9   ar
    27     1     2    1
@<TRIPOS>MOLECULE
*****
 25 27 0 0 0
SMALL
GASTEIGER

@<TRIPOS>ATOM
      1 N          -7.6424  -16.5783   24.3588 N.pl3   1  UNL1       -0.2150
      2 H          -7.5995  -16.2903   25.2993 H       1  UNL1        0.1737
      3 C          -6.3814  -16.9134   23.6188 C.ar    1  UNL1        0.0648
      4 C          -6.3555  -18.0732   22.6679 C.ar    1  UNL1        0.0159
      5 C          -5.0946  -18.4082   21.9279 C.ar    1  UNL1        0.0013
      6 C          -3.8595  -17.5836   22.1388 C.ar    1  UNL1        0.0002
      7 C          -3.8854  -16.4238   23.0897 C.ar    1  UNL1        0.0013
      8 C          -5.1463  -16.0888   23.8297 C.ar    1  UNL1        0.0159
      9 C          -2.5985  -17.9187   21.3987 C.ar    1  UNL1        0.0031
     10 C          -2.2812  -19.3464   21.0657 C.ar    1  UNL1        0.0207
     11 C          -1.0202  -19.6815   20.3257 C.ar    1  UNL1        0.0989
     12 N          -0.0765  -18.5889   19.9187 N.ar    1  UNL1       -0.2423
     13 C          -0.3938  -17.1611   20.2518 C.ar    1  UNL1        0.0989
     14 C          -1.6548  -16.8261   20.9918 C.ar    1  UNL1        0.0207
     15 O          -8.5105  -15.6883   22.6401 O.2     1  UNL1       -0.1499
     16 S          -8.9688  -16.6819   23.6660 S.O2    1  UNL1        0.0736
     17 O          -9.4270  -17.6756   24.6919 O.2     1  UNL1       -0.1499
     18 C         -10.2952  -16.7856   22.9731 C.ar    1  UNL1        0.1268
     19 C         -10.4526  -16.2696   21.5735 C.ar    1  UNL1        0.0316
     20 C         -11.7789  -16.3733   20.8807 C.ar    1  UNL1        0.0599
     21 CL        -11.9363  -15.8573   19.4811 Cl      1  UNL1       -0.0822
     22 C         -12.9478  -16.9930   21.5874 C.ar    1  UNL1        0.0229
     23 C         -12.7904  -17.5090   22.9871 C.ar    1  UNL1        0.0599
     24 CL        -13.9594  -18.1288   23.6938 Cl      1  UNL1       -0.0822
     25 C         -11.4641  -17.4054   23.6799 C.ar    1  UNL1        0.0316
@<TRIPOS>BOND
     1    15    16    2
     2    16    17    2
     3    16     1    1
     4     1     3    1
     5     3     4   ar
     6     4     5   ar
     7     5     6   ar
     8     6     9    1
     9     9    10   ar
    10    10    11   ar
    11    11    12   ar
    12    12    13   ar
    13    13    14   ar
    14     6     7   ar
    15     7     8   ar
    16    16    18    1
    17    18    19   ar
    18    19    20   ar
    19    20    21    1
    20    20    22   ar
    21    22    23   ar
    22    23    24    1
    23    23    25   ar
    24     8     3   ar
    25    25    18   ar
    26    14     9   ar
    27     1     2    1
@<TRIPOS>MOLECULE
*****
 25 27 0 0 0
SMALL
GASTEIGER

@<TRIPOS>ATOM
      1 N          -6.7349  -20.3088   19.7777 N.pl3   1  UNL1       -0.2150
      2 H          -6.8053  -20.9688   19.0506 H       1  UNL1        0.1737
      3 C          -7.9540  -19.9254   20.5632 C.ar    1  UNL1        0.0648
      4 C          -7.8879  -19.8469   22.0597 C.ar    1  UNL1        0.0159
      5 C          -9.1069  -19.4635   22.8451 C.ar    1  UNL1        0.0013
      6 C         -10.3920  -19.1586   22.1341 C.ar    1  UNL1        0.0002
      7 C         -10.4581  -19.2371   20.6376 C.ar    1  UNL1        0.0013
      8 C          -9.2391  -19.6205   19.8522 C.ar    1  UNL1        0.0159
      9 C         -11.6111  -18.7752   22.9196 C.ar    1  UNL1        0.0031
     10 C         -11.7186  -19.1501   24.3680 C.ar    1  UNL1        0.0207
     11 C         -12.9376  -18.7667   25.1535 C.ar    1  UNL1        0.0989
     12 N         -14.0492  -18.0084   24.4906 N.ar    1  UNL1       -0.2423
     13 C         -13.9416  -17.6335   23.0421 C.ar    1  UNL1        0.0989
     14 C         -12.7226  -18.0169   22.2567 C.ar    1  UNL1        0.0207
     15 O          -6.0336  -18.3242   20.0409 O.2     1  UNL1       -0.1499
     16 S          -5.4087  -19.6866   20.0999 S.O2    1  UNL1        0.0736
     17 O          -4.7838  -21.0489   20.1589 O.2     1  UNL1       -0.1499
     18 C          -4.0824  -19.0643   20.4222 C.ar    1  UNL1        0.1268
     19 C          -3.7542  -18.6885   21.8368 C.ar    1  UNL1        0.0316
     20 C          -2.4280  -18.0663   22.1591 C.ar    1  UNL1        0.0599
     21 CL         -2.0999  -17.6904   23.5737 Cl      1  UNL1       -0.0822
     22 C          -1.4299  -17.8199   21.0669 C.ar    1  UNL1        0.0229
     23 C          -1.7581  -18.1958   19.6523 C.ar    1  UNL1        0.0599
     24 CL         -0.7599  -17.9494   18.5600 Cl      1  UNL1       -0.0822
     25 C          -3.0843  -18.8180   19.3300 C.ar    1  UNL1        0.0316
@<TRIPOS>BOND
     1    15    16    2
     2    16    17    2
     3    16     1    1
     4     1     3    1
     5     3     4   ar
     6     4     5   ar
     7     5     6   ar
     8     6     9    1
     9     9    10   ar
    10    10    11   ar
    11    11    12   ar
    12    12    13   ar
    13    13    14   ar
    14     6     7   ar
    15     7     8   ar
    16    16    18    1
    17    18    19   ar
    18    19    20   ar
    19    20    21    1
    20    20    22   ar
    21    22    23   ar
    22    23    24    1
    23    23    25   ar
    24     8     3   ar
    25    25    18   ar
    26    14     9   ar
    27     1     2    1
@<TRIPOS>MOLECULE
*****
 25 27 0 0 0
SMALL
GASTEIGER

@<TRIPOS>ATOM
      1 N          -6.8877  -20.2014   19.7474 N.pl3   1  UNL1       -0.2150
      2 H          -6.9807  -20.8071   18.9769 H       1  UNL1        0.1737
      3 C          -8.0911  -19.8391   20.5662 C.ar    1  UNL1        0.0648
      4 C          -7.9872  -19.7668   22.0609 C.ar    1  UNL1        0.0159
      5 C          -9.1907  -19.4045   22.8796 C.ar    1  UNL1        0.0013
      6 C         -10.4980  -19.1145   22.2038 C.ar    1  UNL1        0.0002
      7 C         -10.6019  -19.1868   20.7092 C.ar    1  UNL1        0.0013
      8 C          -9.3985  -19.5491   19.8904 C.ar    1  UNL1        0.0159
      9 C         -11.7015  -18.7522   23.0226 C.ar    1  UNL1        0.0031
     10 C         -12.8290  -17.9838   22.3995 C.ar    1  UNL1        0.0207
     11 C         -14.0325  -17.6215   23.2183 C.ar    1  UNL1        0.0989
     12 N         -14.1084  -18.0276   24.6603 N.ar    1  UNL1       -0.2423
     13 C         -12.9808  -18.7959   25.2835 C.ar    1  UNL1        0.0989
     14 C         -11.7774  -19.1582   24.4646 C.ar    1  UNL1        0.0207
     15 O          -6.1065  -18.2520   20.0467 O.2     1  UNL1       -0.1499
     16 S          -5.5425  -19.6408   20.1025 S.O2    1  UNL1        0.0736
     17 O          -4.9784  -21.0295   20.1582 O.2     1  UNL1       -0.1499
     18 C          -4.1972  -19.0802   20.4576 C.ar    1  UNL1        0.1268
     19 C          -3.1658  -18.8714   19.3886 C.ar    1  UNL1        0.0316
     20 C          -1.8206  -18.3108   19.7437 C.ar    1  UNL1        0.0599
     21 CL         -0.7892  -18.1020   18.6747 Cl      1  UNL1       -0.0822
     22 C          -1.5067  -17.9591   21.1676 C.ar    1  UNL1        0.0229
     23 C          -2.5381  -18.1679   22.2366 C.ar    1  UNL1        0.0599
     24 CL         -2.2242  -17.8161   23.6606 Cl      1  UNL1       -0.0822
     25 C          -3.8834  -18.7284   21.8815 C.ar    1  UNL1        0.0316
@<TRIPOS>BOND
     1    15    16    2
     2    16    17    2
     3    16     1    1
     4     1     3    1
     5     3     4   ar
     6     4     5   ar
     7     5     6   ar
     8     6     9    1
     9     9    10   ar
    10    10    11   ar
    11    11    12   ar
    12    12    13   ar
    13    13    14   ar
    14     6     7   ar
    15     7     8   ar
    16    16    18    1
    17    18    19   ar
    18    19    20   ar
    19    20    21    1
    20    20    22   ar
    21    22    23   ar
    22    23    24    1
    23    23    25   ar
    24     8     3   ar
    25    25    18   ar
    26    14     9   ar
    27     1     2    1
@<TRIPOS>MOLECULE
*****
 25 27 0 0 0
SMALL
GASTEIGER

@<TRIPOS>ATOM
      1 N         -14.4265   -9.0366   18.8691 N.pl3   1  UNL1       -0.2150
      2 H         -13.8565   -9.8261   19.0142 H       1  UNL1        0.1737
      3 C         -13.8013   -7.6967   18.6160 C.ar    1  UNL1        0.0648
      4 C         -14.3938   -6.4642   19.2325 C.ar    1  UNL1        0.0159
      5 C         -13.7687   -5.1244   18.9794 C.ar    1  UNL1        0.0013
      6 C         -12.5511   -5.0170   18.1099 C.ar    1  UNL1        0.0002
      7 C         -11.9587   -6.2495   17.4935 C.ar    1  UNL1        0.0013
      8 C         -12.5838   -7.5893   17.7466 C.ar    1  UNL1        0.0159
      9 C         -11.9260   -3.6771   17.8569 C.ar    1  UNL1        0.0031
     10 C         -11.2748   -3.3907   16.5364 C.ar    1  UNL1        0.0207
     11 C         -10.6496   -2.0508   16.2834 C.ar    1  UNL1        0.0989
     12 N         -10.6759   -0.9974   17.3509 N.ar    1  UNL1       -0.2423
     13 C         -11.3272   -1.2838   18.6715 C.ar    1  UNL1        0.0989
     14 C         -11.9522   -2.6237   18.9244 C.ar    1  UNL1        0.0207
     15 O         -15.8719   -9.3503   20.3897 O.2     1  UNL1       -0.1499
     16 S         -15.9198   -9.1735   18.9009 S.O2    1  UNL1        0.0736
     17 O         -15.9678   -8.9968   17.4122 O.2     1  UNL1       -0.1499
     18 C         -17.4133   -9.3104   18.9327 C.ar    1  UNL1        0.1268
     19 C         -18.1301   -9.9729   17.7937 C.ar    1  UNL1        0.0316
     20 C         -19.6234  -10.1098   17.8255 C.ar    1  UNL1        0.0599
     21 CL        -20.3403  -10.7723   16.6865 Cl      1  UNL1       -0.0822
     22 C         -20.4000   -9.5843   18.9963 C.ar    1  UNL1        0.0229
     23 C         -19.6832   -8.9218   20.1353 C.ar    1  UNL1        0.0599
     24 CL        -20.4598   -8.3963   21.3061 Cl      1  UNL1       -0.0822
     25 C         -18.1898   -8.7849   20.1035 C.ar    1  UNL1        0.0316
@<TRIPOS>BOND
     1    15    16    2
     2    16    17    2
     3    16     1    1
     4     1     3    1
     5     3     4   ar
     6     4     5   ar
     7     5     6   ar
     8     6     9    1
     9     9    10   ar
    10    10    11   ar
    11    11    12   ar
    12    12    13   ar
    13    13    14   ar
    14     6     7   ar
    15     7     8   ar
    16    16    18    1
    17    18    19   ar
    18    19    20   ar
    19    20    21    1
    20    20    22   ar
    21    22    23   ar
    22    23    24    1
    23    23    25   ar
    24     8     3   ar
    25    25    18   ar
    26    14     9   ar
    27     1     2    1
@<TRIPOS>MOLECULE
*****
 25 27 0 0 0
SMALL
GASTEIGER

@<TRIPOS>ATOM
      1 N          -5.9802  -20.7331   20.2190 N.pl3   1  UNL1       -0.2150
      2 H          -5.9007  -21.6674   19.9188 H       1  UNL1        0.1737
      3 C          -7.2714  -20.2399   20.8020 C.ar    1  UNL1        0.0648
      4 C          -8.4304  -19.9291   19.9020 C.ar    1  UNL1        0.0159
      5 C          -9.7214  -19.4359   20.4850 C.ar    1  UNL1        0.0013
      6 C          -9.8534  -19.2536   21.9680 C.ar    1  UNL1        0.0002
      7 C          -8.6944  -19.5643   22.8680 C.ar    1  UNL1        0.0013
      8 C          -7.4034  -20.0575   22.2850 C.ar    1  UNL1        0.0159
      9 C         -11.1445  -18.7604   22.5510 C.ar    1  UNL1        0.0031
     10 C         -11.4463  -18.9856   24.0029 C.ar    1  UNL1        0.0207
     11 C         -12.7375  -18.4924   24.5860 C.ar    1  UNL1        0.0989
     12 N         -13.7267  -17.7740   23.7170 N.ar    1  UNL1       -0.2423
     13 C         -13.4249  -17.5487   22.2650 C.ar    1  UNL1        0.0989
     14 C         -12.1338  -18.0419   21.6820 C.ar    1  UNL1        0.0207
     15 O          -3.8792  -20.9273   20.4379 O.2     1  UNL1       -0.1499
     16 S          -4.8103  -19.8029   20.0933 S.O2    1  UNL1        0.0736
     17 O          -5.7413  -18.6785   19.7487 O.2     1  UNL1       -0.1499
     18 C          -3.6403  -18.8726   19.9677 C.ar    1  UNL1        0.1268
     19 C          -2.8837  -18.7894   18.6751 C.ar    1  UNL1        0.0316
     20 C          -1.7138  -17.8591   18.5494 C.ar    1  UNL1        0.0599
     21 CL         -0.9572  -17.7759   17.2569 Cl      1  UNL1       -0.0822
     22 C          -1.3004  -17.0121   19.7163 C.ar    1  UNL1        0.0229
     23 C          -2.0569  -17.0953   21.0088 C.ar    1  UNL1        0.0599
     24 CL         -1.6435  -16.2482   22.1757 Cl      1  UNL1       -0.0822
     25 C          -3.2269  -18.0256   21.1345 C.ar    1  UNL1        0.0316
@<TRIPOS>BOND
     1    15    16    2
     2    16    17    2
     3    16     1    1
     4     1     3    1
     5     3     4   ar
     6     4     5   ar
     7     5     6   ar
     8     6     9    1
     9     9    10   ar
    10    10    11   ar
    11    11    12   ar
    12    12    13   ar
    13    13    14   ar
    14     6     7   ar
    15     7     8   ar
    16    16    18    1
    17    18    19   ar
    18    19    20   ar
    19    20    21    1
    20    20    22   ar
    21    22    23   ar
    22    23    24    1
    23    23    25   ar
    24     8     3   ar
    25    25    18   ar
    26    14     9   ar
    27     1     2    1
@<TRIPOS>MOLECULE
*****
 25 27 0 0 0
SMALL
GASTEIGER

@<TRIPOS>ATOM
      1 N           0.2651    3.3442   20.2997 N.pl3   1  UNL1       -0.2150
      2 H           0.7244    4.1583   19.9906 H       1  UNL1        0.1737
      3 C           1.0224    2.0548   20.4181 C.ar    1  UNL1        0.0648
      4 C           2.4817    2.0712   20.7643 C.ar    1  UNL1        0.0159
      5 C           3.2390    0.7819   20.8828 C.ar    1  UNL1        0.0013
      6 C           2.5368   -0.5239   20.6550 C.ar    1  UNL1        0.0002
      7 C           1.0774   -0.5404   20.3088 C.ar    1  UNL1        0.0013
      8 C           0.3202    0.7490   20.1904 C.ar    1  UNL1        0.0159
      9 C           3.2941   -1.8134   20.7734 C.ar    1  UNL1        0.0031
     10 C           3.9058   -2.2061   22.0855 C.ar    1  UNL1        0.0207
     11 C           4.6631   -3.4955   22.2039 C.ar    1  UNL1        0.0989
     12 N           4.8087   -4.3921   21.0102 N.ar    1  UNL1       -0.2423
     13 C           4.1970   -3.9993   19.6981 C.ar    1  UNL1        0.0989
     14 C           3.4397   -2.7100   19.5797 C.ar    1  UNL1        0.0207
     15 O          -1.5396    3.5162   19.1982 O.2     1  UNL1       -0.1499
     16 S          -1.1921    3.3933   20.6522 S.O2    1  UNL1        0.0736
     17 O          -0.8445    3.2704   22.1061 O.2     1  UNL1       -0.1499
     18 C          -2.6493    3.4424   21.0047 C.ar    1  UNL1        0.1268
     19 C          -3.0708    3.5291   22.4417 C.ar    1  UNL1        0.0316
     20 C          -4.5279    3.5781   22.7942 C.ar    1  UNL1        0.0599
     21 CL         -4.9494    3.6649   24.2312 Cl      1  UNL1       -0.0822
     22 C          -5.5635    3.5405   21.7098 C.ar    1  UNL1        0.0229
     23 C          -5.1421    3.4538   20.2728 C.ar    1  UNL1        0.0599
     24 CL         -6.1778    3.4161   19.1884 Cl      1  UNL1       -0.0822
     25 C          -3.6849    3.4047   19.9203 C.ar    1  UNL1        0.0316
@<TRIPOS>BOND
     1    15    16    2
     2    16    17    2
     3    16     1    1
     4     1     3    1
     5     3     4   ar
     6     4     5   ar
     7     5     6   ar
     8     6     9    1
     9     9    10   ar
    10    10    11   ar
    11    11    12   ar
    12    12    13   ar
    13    13    14   ar
    14     6     7   ar
    15     7     8   ar
    16    16    18    1
    17    18    19   ar
    18    19    20   ar
    19    20    21    1
    20    20    22   ar
    21    22    23   ar
    22    23    24    1
    23    23    25   ar
    24     8     3   ar
    25    25    18   ar
    26    14     9   ar
    27     1     2    1
