@<TRIPOS>MOLECULE
*****
 15 16 0 0 0
SMALL
GASTEIGER

@<TRIPOS>ATOM
      1 C          -6.9220  -20.0039   20.9051 C.3     1  UNL1        0.0345
      2 C          -8.1881  -19.6427   21.6239 C.2     1  UNL1        0.0202
      3 C          -8.3437  -19.9700   23.0794 C.2     1  UNL1        0.0410
      4 C          -9.6097  -19.6089   23.7982 C.2     1  UNL1        0.1984
      5 O          -9.7653  -19.9362   25.2538 O.2     1  UNL1       -0.2865
      6 C         -10.7202  -18.9204   23.0615 C.ar    1  UNL1        0.0756
      7 C         -11.9863  -18.5593   23.7803 C.ar    1  UNL1        0.1368
      8 O         -12.1418  -18.8866   25.2358 O.3     1  UNL1       -0.5054
      9 C         -13.0967  -17.8708   23.0435 C.ar    1  UNL1        0.0367
     10 C         -12.9412  -17.5435   21.5879 C.ar    1  UNL1        0.0032
     11 C         -11.6751  -17.9046   20.8691 C.ar    1  UNL1        0.0035
     12 C         -10.5647  -18.5931   21.6059 C.ar    1  UNL1        0.0446
     13 C          -9.2986  -18.9543   20.8871 C.2     1  UNL1        0.1919
     14 O          -9.1430  -18.6269   19.4315 O.2     1  UNL1       -0.2869
     15 H         -11.4481  -19.3166   25.6961 H       1  UNL1        0.2922
@<TRIPOS>BOND
     1     1     2    1
     2     2     3    2
     3     3     4    1
     4     4     5    2
     5     4     6    1
     6     6     7   ar
     7     7     8    1
     8     7     9   ar
     9     9    10   ar
    10    10    11   ar
    11    11    12   ar
    12    12    13    1
    13    13    14    2
    14    13     2    1
    15    12     6   ar
    16     8    15    1
@<TRIPOS>MOLECULE
*****
 15 16 0 0 0
SMALL
GASTEIGER

@<TRIPOS>ATOM
      1 C         -10.9788  -19.3782   21.7861 C.3     1  UNL1        0.0345
      2 C         -10.1842  -18.3802   22.5752 C.2     1  UNL1        0.0202
      3 C          -9.4531  -17.2770   21.8693 C.2     1  UNL1        0.0410
      4 C          -8.6585  -16.2789   22.6583 C.2     1  UNL1        0.1984
      5 O          -7.9273  -15.1757   21.9524 O.2     1  UNL1       -0.2865
      6 C          -8.5950  -16.3841   24.1533 C.ar    1  UNL1        0.0756
      7 C          -7.8004  -15.3861   24.9423 C.ar    1  UNL1        0.1368
      8 O          -7.0693  -14.2829   24.2364 O.3     1  UNL1       -0.5054
      9 C          -7.7369  -15.4913   26.4372 C.ar    1  UNL1        0.0367
     10 C          -8.4681  -16.5946   27.1432 C.ar    1  UNL1        0.0032
     11 C          -9.2627  -17.5926   26.3542 C.ar    1  UNL1        0.0035
     12 C          -9.3261  -17.4873   24.8592 C.ar    1  UNL1        0.0446
     13 C         -10.1208  -18.4854   24.0702 C.2     1  UNL1        0.1919
     14 O         -10.8519  -19.5886   24.7761 O.2     1  UNL1       -0.2869
     15 H          -7.1089  -14.2172   23.3025 H       1  UNL1        0.2922
@<TRIPOS>BOND
     1     1     2    1
     2     2     3    2
     3     3     4    1
     4     4     5    2
     5     4     6    1
     6     6     7   ar
     7     7     8    1
     8     7     9   ar
     9     9    10   ar
    10    10    11   ar
    11    11    12   ar
    12    12    13    1
    13    13    14    2
    14    13     2    1
    15    12     6   ar
    16     8    15    1
@<TRIPOS>MOLECULE
*****
 15 16 0 0 0
SMALL
GASTEIGER

@<TRIPOS>ATOM
      1 C          -7.2073  -20.3134   22.3359 C.3     1  UNL1        0.0345
      2 C          -8.5206  -19.5965   22.2300 C.2     1  UNL1        0.0202
      3 C          -8.8442  -18.8020   20.9995 C.2     1  UNL1        0.0410
      4 C         -10.1575  -18.0851   20.8934 C.2     1  UNL1        0.1984
      5 O         -10.4811  -17.2907   19.6629 O.2     1  UNL1       -0.2865
      6 C         -11.1473  -18.1627   22.0179 C.ar    1  UNL1        0.0756
      7 C         -12.4606  -17.4458   21.9119 C.ar    1  UNL1        0.1368
      8 O         -12.7842  -16.6514   20.6814 O.3     1  UNL1       -0.5054
      9 C         -13.4503  -17.5234   23.0364 C.ar    1  UNL1        0.0367
     10 C         -13.1267  -18.3179   24.2668 C.ar    1  UNL1        0.0032
     11 C         -11.8134  -19.0347   24.3729 C.ar    1  UNL1        0.0035
     12 C         -10.8237  -18.9572   23.2484 C.ar    1  UNL1        0.0446
     13 C          -9.5103  -19.6741   23.3544 C.2     1  UNL1        0.1919
     14 O          -9.1867  -20.4685   24.5849 O.2     1  UNL1       -0.2869
     15 H         -12.1660  -16.6029   19.9790 H       1  UNL1        0.2922
@<TRIPOS>BOND
     1     1     2    1
     2     2     3    2
     3     3     4    1
     4     4     5    2
     5     4     6    1
     6     6     7   ar
     7     7     8    1
     8     7     9   ar
     9     9    10   ar
    10    10    11   ar
    11    11    12   ar
    12    12    13    1
    13    13    14    2
    14    13     2    1
    15    12     6   ar
    16     8    15    1
@<TRIPOS>MOLECULE
*****
 15 16 0 0 0
SMALL
GASTEIGER

@<TRIPOS>ATOM
      1 C         -11.5010  -16.3223   19.1564 C.3     1  UNL1        0.0345
      2 C         -11.4932  -17.0378   20.4748 C.2     1  UNL1        0.0202
      3 C         -12.5917  -16.7943   21.4668 C.2     1  UNL1        0.0410
      4 C         -12.5839  -17.5097   22.7851 C.2     1  UNL1        0.1984
      5 O         -13.6825  -17.2662   23.7771 O.2     1  UNL1       -0.2865
      6 C         -11.4776  -18.4687   23.1116 C.ar    1  UNL1        0.0756
      7 C         -11.4699  -19.1841   24.4299 C.ar    1  UNL1        0.1368
      8 O         -12.5684  -18.9406   25.4219 O.3     1  UNL1       -0.5054
      9 C         -10.3636  -20.1430   24.7563 C.ar    1  UNL1        0.0367
     10 C          -9.2651  -20.3865   23.7644 C.ar    1  UNL1        0.0032
     11 C          -9.2728  -19.6711   22.4460 C.ar    1  UNL1        0.0035
     12 C         -10.3791  -18.7122   22.1196 C.ar    1  UNL1        0.0446
     13 C         -10.3869  -17.9967   20.8012 C.2     1  UNL1        0.1919
     14 O          -9.2884  -18.2402   19.8093 O.2     1  UNL1       -0.2869
     15 H         -13.2595  -18.3416   25.2180 H       1  UNL1        0.2922
@<TRIPOS>BOND
     1     1     2    1
     2     2     3    2
     3     3     4    1
     4     4     5    2
     5     4     6    1
     6     6     7   ar
     7     7     8    1
     8     7     9   ar
     9     9    10   ar
    10    10    11   ar
    11    11    12   ar
    12    12    13    1
    13    13    14    2
    14    13     2    1
    15    12     6   ar
    16     8    15    1
@<TRIPOS>MOLECULE
*****
 15 16 0 0 0
SMALL
GASTEIGER

@<TRIPOS>ATOM
      1 C          -6.7749  -15.4924   26.2167 C.3     1  UNL1        0.0345
      2 C          -7.6845  -15.8815   25.0891 C.2     1  UNL1        0.0202
      3 C          -7.4849  -15.2886   23.7258 C.2     1  UNL1        0.0410
      4 C          -8.3944  -15.6776   22.5982 C.2     1  UNL1        0.1984
      5 O          -8.1948  -15.0848   21.2349 O.2     1  UNL1       -0.2865
      6 C          -9.5036  -16.6596   22.8340 C.ar    1  UNL1        0.0756
      7 C         -10.4131  -17.0487   21.7065 C.ar    1  UNL1        0.1368
      8 O         -10.2135  -16.4558   20.3431 O.3     1  UNL1       -0.5054
      9 C         -11.5222  -18.0306   21.9422 C.ar    1  UNL1        0.0367
     10 C         -11.7218  -18.6235   23.3056 C.ar    1  UNL1        0.0032
     11 C         -10.8123  -18.2345   24.4331 C.ar    1  UNL1        0.0035
     12 C          -9.7032  -17.2525   24.1973 C.ar    1  UNL1        0.0446
     13 C          -8.7936  -16.8634   25.3249 C.2     1  UNL1        0.1919
     14 O          -8.9932  -17.4563   26.6882 O.2     1  UNL1       -0.2869
     15 H          -9.5207  -15.8424   20.1959 H       1  UNL1        0.2922
@<TRIPOS>BOND
     1     1     2    1
     2     2     3    2
     3     3     4    1
     4     4     5    2
     5     4     6    1
     6     6     7   ar
     7     7     8    1
     8     7     9   ar
     9     9    10   ar
    10    10    11   ar
    11    11    12   ar
    12    12    13    1
    13    13    14    2
    14    13     2    1
    15    12     6   ar
    16     8    15    1
@<TRIPOS>MOLECULE
*****
 15 16 0 0 0
SMALL
GASTEIGER

@<TRIPOS>ATOM
      1 C         -13.9197  -17.8346   24.1024 C.3     1  UNL1        0.0345
      2 C         -12.6127  -18.2971   23.5296 C.2     1  UNL1        0.0202
      3 C         -11.5672  -18.8879   24.4283 C.2     1  UNL1        0.0410
      4 C         -10.2603  -19.3504   23.8556 C.2     1  UNL1        0.1984
      5 O          -9.2147  -19.9412   24.7543 O.2     1  UNL1       -0.2865
      6 C          -9.9989  -19.2221   22.3841 C.ar    1  UNL1        0.0756
      7 C          -8.6920  -19.6846   21.8113 C.ar    1  UNL1        0.1368
      8 O          -7.6464  -20.2754   22.7101 O.3     1  UNL1       -0.5054
      9 C          -8.4307  -19.5563   20.3399 C.ar    1  UNL1        0.0367
     10 C          -9.4762  -18.9654   19.4412 C.ar    1  UNL1        0.0032
     11 C         -10.7831  -18.5029   20.0139 C.ar    1  UNL1        0.0035
     12 C         -11.0445  -18.6313   21.4853 C.ar    1  UNL1        0.0446
     13 C         -12.3514  -18.1688   22.0581 C.2     1  UNL1        0.1919
     14 O         -13.3970  -17.5779   21.1594 O.2     1  UNL1       -0.2869
     15 H          -7.8097  -20.3556   23.6292 H       1  UNL1        0.2922
@<TRIPOS>BOND
     1     1     2    1
     2     2     3    2
     3     3     4    1
     4     4     5    2
     5     4     6    1
     6     6     7   ar
     7     7     8    1
     8     7     9   ar
     9     9    10   ar
    10    10    11   ar
    11    11    12   ar
    12    12    13    1
    13    13    14    2
    14    13     2    1
    15    12     6   ar
    16     8    15    1
@<TRIPOS>MOLECULE
*****
 15 16 0 0 0
SMALL
GASTEIGER

@<TRIPOS>ATOM
      1 C          -9.0976  -20.4042   18.5346 C.3     1  UNL1        0.0345
      2 C          -9.4730  -19.4055   19.5891 C.2     1  UNL1        0.0202
      3 C         -10.7929  -18.6968   19.5149 C.2     1  UNL1        0.0410
      4 C         -11.1683  -17.6981   20.5692 C.2     1  UNL1        0.1984
      5 O         -12.4882  -16.9894   20.4950 O.2     1  UNL1       -0.2865
      6 C         -10.2237  -17.4081   21.6978 C.ar    1  UNL1        0.0756
      7 C         -10.5990  -16.4094   22.7522 C.ar    1  UNL1        0.1368
      8 O         -11.9190  -15.7007   22.6780 O.3     1  UNL1       -0.5054
      9 C          -9.6545  -16.1195   23.8807 C.ar    1  UNL1        0.0367
     10 C          -8.3345  -16.8282   23.9549 C.ar    1  UNL1        0.0032
     11 C          -7.9592  -17.8269   22.9006 C.ar    1  UNL1        0.0035
     12 C          -8.9038  -18.1168   21.7720 C.ar    1  UNL1        0.0446
     13 C          -8.5284  -19.1156   20.7176 C.2     1  UNL1        0.1919
     14 O          -7.2085  -19.8243   20.7918 O.2     1  UNL1       -0.2869
     15 H         -12.5090  -15.8819   21.9730 H       1  UNL1        0.2922
@<TRIPOS>BOND
     1     1     2    1
     2     2     3    2
     3     3     4    1
     4     4     5    2
     5     4     6    1
     6     6     7   ar
     7     7     8    1
     8     7     9   ar
     9     9    10   ar
    10    10    11   ar
    11    11    12   ar
    12    12    13    1
    13    13    14    2
    14    13     2    1
    15    12     6   ar
    16     8    15    1
@<TRIPOS>MOLECULE
*****
 15 16 0 0 0
SMALL
GASTEIGER

@<TRIPOS>ATOM
      1 C         -12.3787  -15.8890   22.8313 C.3     1  UNL1        0.0345
      2 C         -11.1095  -16.5736   22.4182 C.2     1  UNL1        0.0202
      3 C          -9.8417  -16.3268   23.1810 C.2     1  UNL1        0.0410
      4 C          -8.5726  -17.0114   22.7680 C.2     1  UNL1        0.1984
      5 O          -7.3048  -16.7645   23.5308 O.2     1  UNL1       -0.2865
      6 C          -8.5711  -17.9428   21.5922 C.ar    1  UNL1        0.0756
      7 C          -7.3020  -18.6274   21.1792 C.ar    1  UNL1        0.1368
      8 O          -6.0342  -18.3805   21.9420 O.3     1  UNL1       -0.5054
      9 C          -7.3006  -19.5587   20.0035 C.ar    1  UNL1        0.0367
     10 C          -8.5684  -19.8056   19.2407 C.ar    1  UNL1        0.0032
     11 C          -9.8375  -19.1210   19.6537 C.ar    1  UNL1        0.0035
     12 C          -9.8389  -18.1896   20.8294 C.ar    1  UNL1        0.0446
     13 C         -11.1081  -17.5050   21.2425 C.2     1  UNL1        0.1919
     14 O         -12.3759  -17.7518   20.4797 O.2     1  UNL1       -0.2869
     15 H          -6.0351  -17.7987   22.6765 H       1  UNL1        0.2922
@<TRIPOS>BOND
     1     1     2    1
     2     2     3    2
     3     3     4    1
     4     4     5    2
     5     4     6    1
     6     6     7   ar
     7     7     8    1
     8     7     9   ar
     9     9    10   ar
    10    10    11   ar
    11    11    12   ar
    12    12    13    1
    13    13    14    2
    14    13     2    1
    15    12     6   ar
    16     8    15    1
@<TRIPOS>MOLECULE
*****
 15 16 0 0 0
SMALL
GASTEIGER

@<TRIPOS>ATOM
      1 C          -6.2536  -15.1663   23.6005 C.3     1  UNL1        0.0345
      2 C          -7.5695  -15.8861   23.6208 C.2     1  UNL1        0.0202
      3 C          -7.9505  -16.7190   24.8087 C.2     1  UNL1        0.0410
      4 C          -9.2664  -17.4387   24.8291 C.2     1  UNL1        0.1984
      5 O          -9.6474  -18.2716   26.0170 O.2     1  UNL1       -0.2865
      6 C         -10.2014  -17.3255   23.6615 C.ar    1  UNL1        0.0756
      7 C         -11.5172  -18.0452   23.6819 C.ar    1  UNL1        0.1368
      8 O         -11.8982  -18.8782   24.8698 O.3     1  UNL1       -0.5054
      9 C         -12.4521  -17.9320   22.5144 C.ar    1  UNL1        0.0367
     10 C         -12.0711  -17.0991   21.3265 C.ar    1  UNL1        0.0032
     11 C         -10.7553  -16.3794   21.3061 C.ar    1  UNL1        0.0035
     12 C          -9.8204  -16.4926   22.4737 C.ar    1  UNL1        0.0446
     13 C          -8.5044  -15.7729   22.4533 C.2     1  UNL1        0.1919
     14 O          -8.1234  -14.9399   21.2654 O.2     1  UNL1       -0.2869
     15 H         -11.3142  -18.9489   25.5991 H       1  UNL1        0.2922
@<TRIPOS>BOND
     1     1     2    1
     2     2     3    2
     3     3     4    1
     4     4     5    2
     5     4     6    1
     6     6     7   ar
     7     7     8    1
     8     7     9   ar
     9     9    10   ar
    10    10    11   ar
    11    11    12   ar
    12    12    13    1
    13    13    14    2
    14    13     2    1
    15    12     6   ar
    16     8    15    1
