@<TRIPOS>MOLECULE
*****
 31 32 0 0 0
SMALL
GASTEIGER

@<TRIPOS>ATOM
      1 C         -10.5635  -16.1720   21.9226 C.3     1  UNL1        0.2430
      2 C         -10.3344  -15.3931   20.6613 C.2     1  UNL1        0.2845
      3 O         -11.1624  -15.6774   19.4433 O.2     1  UNL1       -0.2691
      4 N          -9.2772  -14.3298   20.6181 N.am    1  UNL1       -0.1940
      5 O          -9.0480  -13.5508   19.3569 O.3     1  UNL1       -0.2951
      6 H          -8.7337  -14.1432   21.4175 H       1  UNL1        0.1823
      7 H          -9.6622  -13.8573   18.6715 H       1  UNL1        0.2414
      8 O          -9.4672  -17.0271   22.4856 O.3     1  UNL1       -0.4699
      9 C          -4.7030  -15.3080   23.6462 C.3     1  UNL1        0.0335
     10 C          -6.1177  -15.5907   24.0566 C.ar    1  UNL1        0.0083
     11 C          -7.0851  -16.1675   23.0659 C.ar    1  UNL1        0.0349
     12 C          -8.4998  -16.4502   23.4763 C.ar    1  UNL1        0.1386
     13 C          -8.9473  -16.1561   24.8775 C.ar    1  UNL1        0.0349
     14 C          -7.9800  -15.5792   25.8681 C.ar    1  UNL1        0.0083
     15 C          -8.4275  -15.2851   27.2693 C.3     1  UNL1        0.0335
     16 C          -6.5652  -15.2965   25.4577 C.ar    1  UNL1        0.1323
     17 F          -5.5979  -14.7197   26.4485 F       1  UNL1       -0.2048
     18 C         -11.8888  -16.0959   22.6208 C.3     1  UNL1        0.0533
     19 C         -12.8073  -17.2818   22.6179 C.3     1  UNL1        0.0057
     20 C         -12.8702  -18.1846   23.8142 C.3     1  UNL1        0.0172
     21 C         -11.6208  -18.5011   24.5815 C.3     1  UNL1        0.0688
     22 N         -11.1700  -19.9244   24.7265 N.3     1  UNL1       -0.2937
     23 H         -11.8494  -20.5005   24.2296 H       1  UNL1        0.1236
     24 C          -9.8131  -20.3350   24.2362 C.3     1  UNL1        0.0956
     25 C          -9.4168  -20.0677   22.8145 C.ar    1  UNL1       -0.0062
     26 C         -10.4671  -19.9783   21.7473 C.ar    1  UNL1       -0.0006
     27 C         -10.0708  -19.7110   20.3254 C.ar    1  UNL1        0.0294
     28 C          -8.6242  -19.5332   19.9708 C.ar    1  UNL1        0.1401
     29 F          -8.2280  -19.2659   18.5491 F       1  UNL1       -0.2042
     30 C          -7.5739  -19.6226   21.0380 C.ar    1  UNL1        0.0294
     31 C          -7.9702  -19.8899   22.4598 C.ar    1  UNL1       -0.0006
@<TRIPOS>BOND
     1     9    10    1
     2    10    11   ar
     3    11    12   ar
     4    12     8    1
     5     8     1    1
     6     1    18    1
     7    18    19    1
     8    19    20    1
     9    20    21    1
    10    21    22    1
    11    22    24    1
    12    24    25    1
    13    25    26   ar
    14    26    27   ar
    15    27    28   ar
    16    28    29    1
    17    28    30   ar
    18    30    31   ar
    19     1     2    1
    20     2     3    2
    21     2     4   am
    22     4     5    1
    23    12    13   ar
    24    13    14   ar
    25    14    15    1
    26    14    16   ar
    27    16    17    1
    28    16    10   ar
    29    31    25   ar
    30    22    23    1
    31     4     6    1
    32     5     7    1
@<TRIPOS>MOLECULE
*****
 31 32 0 0 0
SMALL
GASTEIGER

@<TRIPOS>ATOM
      1 C         -10.2129  -18.0842   22.4617 C.3     1  UNL1        0.2430
      2 C          -9.8223  -19.1214   23.4725 C.2     1  UNL1        0.2845
      3 O          -8.6154  -19.9806   23.2375 O.2     1  UNL1       -0.2691
      4 N         -10.6386  -19.2995   24.7182 N.am    1  UNL1       -0.1940
      5 O         -10.2481  -20.3367   25.7290 O.3     1  UNL1       -0.2951
      6 H         -11.4307  -18.7355   24.8724 H       1  UNL1        0.1823
      7 H          -9.4517  -20.8000   25.4256 H       1  UNL1        0.2414
      8 O          -9.8532  -16.6453   22.6862 O.3     1  UNL1       -0.4699
      9 C          -4.8019  -15.9271   23.6704 C.3     1  UNL1        0.0335
     10 C          -6.2284  -15.9283   24.1342 C.ar    1  UNL1        0.0083
     11 C          -7.3276  -16.2862   23.1784 C.ar    1  UNL1        0.0349
     12 C          -8.7540  -16.2874   23.6422 C.ar    1  UNL1        0.1386
     13 C          -9.0814  -15.9307   25.0619 C.ar    1  UNL1        0.0349
     14 C          -7.9822  -15.5728   26.0177 C.ar    1  UNL1        0.0083
     15 C          -8.3095  -15.2160   27.4375 C.3     1  UNL1        0.0335
     16 C          -6.5557  -15.5716   25.5539 C.ar    1  UNL1        0.1323
     17 F          -5.4566  -15.2136   26.5099 F       1  UNL1       -0.2048
     18 C         -10.9631  -18.4857   21.2264 C.3     1  UNL1        0.0533
     19 C         -10.4407  -19.5916   20.3580 C.3     1  UNL1        0.0057
     20 C          -9.3392  -19.3183   19.3771 C.3     1  UNL1        0.0172
     21 C          -7.9231  -19.6729   19.7218 C.3     1  UNL1        0.0688
     22 N          -7.1205  -18.7732   20.6141 N.3     1  UNL1       -0.2937
     23 H          -7.7810  -18.3181   21.2442 H       1  UNL1        0.1236
     24 C          -6.0293  -19.3449   21.4698 C.3     1  UNL1        0.0956
     25 C          -4.5925  -19.1237   21.1001 C.ar    1  UNL1       -0.0062
     26 C          -4.2006  -18.9936   19.6581 C.ar    1  UNL1       -0.0006
     27 C          -2.7637  -18.7724   19.2884 C.ar    1  UNL1        0.0294
     28 C          -1.7189  -18.6814   20.3607 C.ar    1  UNL1        0.1401
     29 F          -0.2821  -18.4602   19.9910 F       1  UNL1       -0.2042
     30 C          -2.1108  -18.8115   21.8027 C.ar    1  UNL1        0.0294
     31 C          -3.5475  -19.0326   22.1725 C.ar    1  UNL1       -0.0006
@<TRIPOS>BOND
     1     9    10    1
     2    10    11   ar
     3    11    12   ar
     4    12     8    1
     5     8     1    1
     6     1    18    1
     7    18    19    1
     8    19    20    1
     9    20    21    1
    10    21    22    1
    11    22    24    1
    12    24    25    1
    13    25    26   ar
    14    26    27   ar
    15    27    28   ar
    16    28    29    1
    17    28    30   ar
    18    30    31   ar
    19     1     2    1
    20     2     3    2
    21     2     4   am
    22     4     5    1
    23    12    13   ar
    24    13    14   ar
    25    14    15    1
    26    14    16   ar
    27    16    17    1
    28    16    10   ar
    29    31    25   ar
    30    22    23    1
    31     4     6    1
    32     5     7    1
@<TRIPOS>MOLECULE
*****
 31 32 0 0 0
SMALL
GASTEIGER

@<TRIPOS>ATOM
      1 C         -10.2939  -17.9551   22.5233 C.3     1  UNL1        0.2430
      2 C          -9.8899  -19.0300   23.4885 C.2     1  UNL1        0.2845
      3 O          -8.6812  -19.8731   23.2092 O.2     1  UNL1       -0.2691
      4 N         -10.6947  -19.2616   24.7329 N.am    1  UNL1       -0.1940
      5 O         -10.2908  -20.3364   25.6981 O.3     1  UNL1       -0.2951
      6 H         -11.4880  -18.7081   24.9162 H       1  UNL1        0.1823
      7 H          -9.4950  -20.7834   25.3698 H       1  UNL1        0.2414
      8 O          -9.9246  -16.5266   22.7939 O.3     1  UNL1       -0.4699
      9 C          -8.2033  -15.1709   27.5055 C.3     1  UNL1        0.0335
     10 C          -7.9275  -15.5304   26.0756 C.ar    1  UNL1        0.0083
     11 C          -9.0639  -15.8488   25.1497 C.ar    1  UNL1        0.0349
     12 C          -8.7882  -16.2082   23.7198 C.ar    1  UNL1        0.1386
     13 C          -7.3760  -16.2493   23.2157 C.ar    1  UNL1        0.0349
     14 C          -6.2397  -15.9309   24.1415 C.ar    1  UNL1        0.0083
     15 C          -4.8274  -15.9720   23.6374 C.3     1  UNL1        0.0335
     16 C          -6.5154  -15.5715   25.5714 C.ar    1  UNL1        0.1323
     17 F          -5.3789  -15.2531   26.4973 F       1  UNL1       -0.2048
     18 C         -11.0670  -18.3087   21.2875 C.3     1  UNL1        0.0533
     19 C         -10.6016  -19.4303   20.4069 C.3     1  UNL1        0.0057
     20 C          -9.5061  -19.1957   19.4095 C.3     1  UNL1        0.0172
     21 C          -8.1155  -19.6801   19.6951 C.3     1  UNL1        0.0688
     22 N          -7.1668  -18.8191   20.4752 N.3     1  UNL1       -0.2937
     23 H          -7.7345  -18.2473   21.1006 H       1  UNL1        0.1236
     24 C          -6.0989  -19.4521   21.3172 C.3     1  UNL1        0.0956
     25 C          -4.6532  -19.1818   21.0228 C.ar    1  UNL1       -0.0062
     26 C          -3.6695  -19.0553   22.1482 C.ar    1  UNL1       -0.0006
     27 C          -2.2237  -18.7850   21.8537 C.ar    1  UNL1        0.0294
     28 C          -1.7616  -18.6413   20.4340 C.ar    1  UNL1        0.1401
     29 F          -0.3158  -18.3711   20.1396 F       1  UNL1       -0.2042
     30 C          -2.7452  -18.7679   19.3086 C.ar    1  UNL1        0.0294
     31 C          -4.1910  -19.0382   19.6030 C.ar    1  UNL1       -0.0006
@<TRIPOS>BOND
     1     9    10    1
     2    10    11   ar
     3    11    12   ar
     4    12     8    1
     5     8     1    1
     6     1    18    1
     7    18    19    1
     8    19    20    1
     9    20    21    1
    10    21    22    1
    11    22    24    1
    12    24    25    1
    13    25    26   ar
    14    26    27   ar
    15    27    28   ar
    16    28    29    1
    17    28    30   ar
    18    30    31   ar
    19     1     2    1
    20     2     3    2
    21     2     4   am
    22     4     5    1
    23    12    13   ar
    24    13    14   ar
    25    14    15    1
    26    14    16   ar
    27    16    17    1
    28    16    10   ar
    29    31    25   ar
    30    22    23    1
    31     4     6    1
    32     5     7    1
@<TRIPOS>MOLECULE
*****
 31 32 0 0 0
SMALL
GASTEIGER

@<TRIPOS>ATOM
      1 C          -3.6061  -17.2904   22.6230 C.3     1  UNL1        0.2430
      2 C          -2.4739  -17.3524   21.6409 C.2     1  UNL1        0.2845
      3 O          -2.5187  -16.5236   20.3915 O.2     1  UNL1       -0.2691
      4 N          -1.2970  -18.2431   21.9084 N.am    1  UNL1       -0.1940
      5 O          -0.1649  -18.3050   20.9264 O.3     1  UNL1       -0.2951
      6 H          -1.2677  -18.7870   22.7285 H       1  UNL1        0.1823
      7 H          -0.3508  -17.7131   20.1808 H       1  UNL1        0.2414
      8 O          -4.1020  -15.9623   23.1131 O.3     1  UNL1       -0.4699
      9 C          -6.6204  -15.2001   27.5938 C.3     1  UNL1        0.0335
     10 C          -6.6455  -15.4980   26.1239 C.ar    1  UNL1        0.0083
     11 C          -5.3613  -15.5812   25.3535 C.ar    1  UNL1        0.0349
     12 C          -5.3864  -15.8791   23.8836 C.ar    1  UNL1        0.1386
     13 C          -6.6958  -16.0938   23.1841 C.ar    1  UNL1        0.0349
     14 C          -7.9801  -16.0106   23.9546 C.ar    1  UNL1        0.0083
     15 C          -9.2896  -16.2253   23.2551 C.3     1  UNL1        0.0335
     16 C          -7.9550  -15.7127   25.4245 C.ar    1  UNL1        0.1323
     17 F          -9.2393  -15.6295   26.1949 F       1  UNL1       -0.2048
     18 C          -4.2424  -18.5566   23.1149 C.3     1  UNL1        0.0533
     19 C          -4.8632  -19.5121   22.1394 C.3     1  UNL1        0.0057
     20 C          -6.3239  -19.4083   21.8141 C.3     1  UNL1        0.0172
     21 C          -6.8264  -19.8492   20.4713 C.3     1  UNL1        0.0688
     22 N          -7.8531  -19.0289   19.7484 N.3     1  UNL1       -0.2937
     23 H          -7.5083  -18.8968   18.7975 H       1  UNL1        0.1236
     24 C          -9.2638  -19.5254   19.6323 C.3     1  UNL1        0.0956
     25 C         -10.3128  -19.0337   20.5850 C.ar    1  UNL1       -0.0062
     26 C         -10.4186  -19.6302   21.9572 C.ar    1  UNL1       -0.0006
     27 C         -11.4677  -19.1383   22.9100 C.ar    1  UNL1        0.0294
     28 C         -12.4108  -18.0500   22.4905 C.ar    1  UNL1        0.1401
     29 F         -13.4598  -17.5583   23.4432 F       1  UNL1       -0.2042
     30 C         -12.3050  -17.4535   21.1182 C.ar    1  UNL1        0.0294
     31 C         -11.2560  -17.9453   20.1655 C.ar    1  UNL1       -0.0006
@<TRIPOS>BOND
     1     9    10    1
     2    10    11   ar
     3    11    12   ar
     4    12     8    1
     5     8     1    1
     6     1    18    1
     7    18    19    1
     8    19    20    1
     9    20    21    1
    10    21    22    1
    11    22    24    1
    12    24    25    1
    13    25    26   ar
    14    26    27   ar
    15    27    28   ar
    16    28    29    1
    17    28    30   ar
    18    30    31   ar
    19     1     2    1
    20     2     3    2
    21     2     4   am
    22     4     5    1
    23    12    13   ar
    24    13    14   ar
    25    14    15    1
    26    14    16   ar
    27    16    17    1
    28    16    10   ar
    29    31    25   ar
    30    22    23    1
    31     4     6    1
    32     5     7    1
@<TRIPOS>MOLECULE
*****
 31 32 0 0 0
SMALL
GASTEIGER

@<TRIPOS>ATOM
      1 C          -5.0998  -15.9526   24.7056 C.3     1  UNL1        0.2430
      2 C          -5.6385  -15.2412   23.4998 C.2     1  UNL1        0.2845
      3 O          -4.7350  -14.3725   22.6758 O.2     1  UNL1       -0.2691
      4 N          -7.0806  -15.3984   23.1183 N.am    1  UNL1       -0.1940
      5 O          -7.6192  -14.6870   21.9126 O.3     1  UNL1       -0.2951
      6 H          -7.6735  -15.9685   23.6592 H       1  UNL1        0.1823
      7 H          -6.9096  -14.1725   21.4969 H       1  UNL1        0.2414
      8 O          -4.3475  -17.2401   24.5429 O.3     1  UNL1       -0.4699
      9 C          -1.1056  -17.0545   20.4863 C.3     1  UNL1        0.0335
     10 C          -2.3299  -17.6164   21.1462 C.ar    1  UNL1        0.0083
     11 C          -2.7266  -17.1473   22.5146 C.ar    1  UNL1        0.0349
     12 C          -3.9509  -17.7092   23.1744 C.ar    1  UNL1        0.1386
     13 C          -4.7786  -18.7400   22.4658 C.ar    1  UNL1        0.0349
     14 C          -4.3819  -19.2091   21.0974 C.ar    1  UNL1        0.0083
     15 C          -5.2096  -20.2400   20.3887 C.3     1  UNL1        0.0335
     16 C          -3.1576  -18.6472   20.4375 C.ar    1  UNL1        0.1323
     17 F          -2.7610  -19.1163   19.0690 F       1  UNL1       -0.2048
     18 C          -5.3136  -15.3766   26.0740 C.3     1  UNL1        0.0533
     19 C          -6.4231  -15.8942   26.9407 C.3     1  UNL1        0.0057
     20 C          -7.8470  -15.5430   26.6256 C.3     1  UNL1        0.0172
     21 C          -8.8119  -16.6169   26.2185 C.3     1  UNL1        0.0688
     22 N          -8.9023  -17.0386   24.7819 N.3     1  UNL1       -0.2937
     23 H          -7.9572  -17.2840   24.4870 H       1  UNL1        0.1236
     24 C          -9.7890  -18.1835   24.3908 C.3     1  UNL1        0.0956
     25 C          -9.8024  -18.6711   22.9723 C.ar    1  UNL1       -0.0062
     26 C         -11.0357  -19.3159   22.4125 C.ar    1  UNL1       -0.0006
     27 C         -11.0491  -19.8034   20.9940 C.ar    1  UNL1        0.0294
     28 C          -9.8294  -19.6462   20.1353 C.ar    1  UNL1        0.1401
     29 F          -9.8428  -20.1337   18.7168 F       1  UNL1       -0.2042
     30 C          -8.5961  -19.0014   20.6951 C.ar    1  UNL1        0.0294
     31 C          -8.5826  -18.5138   22.1135 C.ar    1  UNL1       -0.0006
@<TRIPOS>BOND
     1     9    10    1
     2    10    11   ar
     3    11    12   ar
     4    12     8    1
     5     8     1    1
     6     1    18    1
     7    18    19    1
     8    19    20    1
     9    20    21    1
    10    21    22    1
    11    22    24    1
    12    24    25    1
    13    25    26   ar
    14    26    27   ar
    15    27    28   ar
    16    28    29    1
    17    28    30   ar
    18    30    31   ar
    19     1     2    1
    20     2     3    2
    21     2     4   am
    22     4     5    1
    23    12    13   ar
    24    13    14   ar
    25    14    15    1
    26    14    16   ar
    27    16    17    1
    28    16    10   ar
    29    31    25   ar
    30    22    23    1
    31     4     6    1
    32     5     7    1
@<TRIPOS>MOLECULE
*****
 31 32 0 0 0
SMALL
GASTEIGER

@<TRIPOS>ATOM
      1 C         -10.0532  -17.4589   22.2481 C.3     1  UNL1        0.2430
      2 C         -10.2408  -17.0263   20.8241 C.2     1  UNL1        0.2845
      3 O         -10.1445  -18.0323   19.7157 O.2     1  UNL1       -0.2691
      4 N         -10.5247  -15.5876   20.5086 N.am    1  UNL1       -0.1940
      5 O         -10.7124  -15.1549   19.0847 O.3     1  UNL1       -0.2951
      6 H         -10.5880  -14.9273   21.2362 H       1  UNL1        0.1823
      7 H         -10.6190  -15.9222   18.4987 H       1  UNL1        0.2414
      8 O         -10.0680  -16.4407   23.3495 O.3     1  UNL1       -0.4699
      9 C          -5.0265  -15.1882   23.2294 C.3     1  UNL1        0.0335
     10 C          -6.2770  -15.4691   24.0087 C.ar    1  UNL1        0.0083
     11 C          -7.5472  -15.8144   23.2895 C.ar    1  UNL1        0.0349
     12 C          -8.7977  -16.0954   24.0688 C.ar    1  UNL1        0.1386
     13 C          -8.7781  -16.0309   25.5672 C.ar    1  UNL1        0.0349
     14 C          -7.5079  -15.6856   26.2864 C.ar    1  UNL1        0.0083
     15 C          -7.4881  -15.6212   27.7849 C.3     1  UNL1        0.0335
     16 C          -6.2573  -15.4047   25.5071 C.ar    1  UNL1        0.1323
     17 F          -4.9871  -15.0593   26.2264 F       1  UNL1       -0.2048
     18 C          -9.8507  -18.9098   22.5707 C.3     1  UNL1        0.0533
     19 C          -8.4636  -19.4766   22.6382 C.3     1  UNL1        0.0057
     20 C          -7.3932  -18.9501   21.7287 C.3     1  UNL1        0.0172
     21 C          -6.9769  -19.7408   20.5239 C.3     1  UNL1        0.0688
     22 N          -5.9710  -20.8449   20.6623 N.3     1  UNL1       -0.2937
     23 H          -6.3678  -21.6641   20.2022 H       1  UNL1        0.1236
     24 C          -4.5853  -20.6698   20.1153 C.3     1  UNL1        0.0956
     25 C          -3.7796  -19.4603   20.4867 C.ar    1  UNL1       -0.0062
     26 C          -3.6239  -19.0767   21.9284 C.ar    1  UNL1       -0.0006
     27 C          -2.8182  -17.8671   22.2999 C.ar    1  UNL1        0.0294
     28 C          -2.1681  -17.0414   21.2296 C.ar    1  UNL1        0.1401
     29 F          -1.3624  -15.8319   21.6011 F       1  UNL1       -0.2042
     30 C          -2.3238  -17.4250   19.7879 C.ar    1  UNL1        0.0294
     31 C          -3.1295  -18.6345   19.4164 C.ar    1  UNL1       -0.0006
@<TRIPOS>BOND
     1     9    10    1
     2    10    11   ar
     3    11    12   ar
     4    12     8    1
     5     8     1    1
     6     1    18    1
     7    18    19    1
     8    19    20    1
     9    20    21    1
    10    21    22    1
    11    22    24    1
    12    24    25    1
    13    25    26   ar
    14    26    27   ar
    15    27    28   ar
    16    28    29    1
    17    28    30   ar
    18    30    31   ar
    19     1     2    1
    20     2     3    2
    21     2     4   am
    22     4     5    1
    23    12    13   ar
    24    13    14   ar
    25    14    15    1
    26    14    16   ar
    27    16    17    1
    28    16    10   ar
    29    31    25   ar
    30    22    23    1
    31     4     6    1
    32     5     7    1
@<TRIPOS>MOLECULE
*****
 31 32 0 0 0
SMALL
GASTEIGER

@<TRIPOS>ATOM
      1 C          -3.6542  -17.8135   22.4392 C.3     1  UNL1        0.2430
      2 C          -2.4970  -17.9492   21.4945 C.2     1  UNL1        0.2845
      3 O          -1.4211  -18.9583   21.7664 O.2     1  UNL1       -0.2691
      4 N          -2.4157  -17.0756   20.2778 N.am    1  UNL1       -0.1940
      5 O          -1.2585  -17.2112   19.3331 O.3     1  UNL1       -0.2951
      6 H          -3.1218  -16.4132   20.0994 H       1  UNL1        0.1823
      7 H          -0.6590  -17.9031   19.6534 H       1  UNL1        0.2414
      8 O          -3.8788  -16.5227   23.1695 O.3     1  UNL1       -0.4699
      9 C          -9.0680  -16.3599   22.9555 C.3     1  UNL1        0.0335
     10 C          -7.7931  -16.1734   23.7234 C.ar    1  UNL1        0.0083
     11 C          -6.4735  -16.4413   23.0626 C.ar    1  UNL1        0.0349
     12 C          -5.1985  -16.2548   23.8305 C.ar    1  UNL1        0.1386
     13 C          -5.2431  -15.8003   25.2593 C.ar    1  UNL1        0.0349
     14 C          -6.5628  -15.5324   25.9201 C.ar    1  UNL1        0.0083
     15 C          -6.6075  -15.0780   27.3490 C.3     1  UNL1        0.0335
     16 C          -7.8377  -15.7189   25.1522 C.ar    1  UNL1        0.1323
     17 F          -9.1574  -15.4510   25.8132 F       1  UNL1       -0.2048
     18 C          -4.5867  -18.9686   22.6536 C.3     1  UNL1        0.0533
     19 C          -5.1338  -19.7195   21.4759 C.3     1  UNL1        0.0057
     20 C          -6.6106  -19.9532   21.3556 C.3     1  UNL1        0.0172
     21 C          -7.4730  -18.9519   20.6460 C.3     1  UNL1        0.0688
     22 N          -8.1677  -19.3299   19.3714 N.3     1  UNL1       -0.2937
     23 H          -7.6585  -20.1237   18.9828 H       1  UNL1        0.1236
     24 C          -9.6175  -19.7139   19.3929 C.3     1  UNL1        0.0956
     25 C         -10.5452  -19.0853   20.3900 C.ar    1  UNL1       -0.0062
     26 C         -11.2912  -17.8334   20.0348 C.ar    1  UNL1       -0.0006
     27 C         -12.2190  -17.2048   21.0320 C.ar    1  UNL1        0.0294
     28 C         -12.4007  -17.8281   22.3841 C.ar    1  UNL1        0.1401
     29 F         -13.3284  -17.1995   23.3812 F       1  UNL1       -0.2042
     30 C         -11.6547  -19.0801   22.7392 C.ar    1  UNL1        0.0294
     31 C         -10.7270  -19.7087   21.7422 C.ar    1  UNL1       -0.0006
@<TRIPOS>BOND
     1     9    10    1
     2    10    11   ar
     3    11    12   ar
     4    12     8    1
     5     8     1    1
     6     1    18    1
     7    18    19    1
     8    19    20    1
     9    20    21    1
    10    21    22    1
    11    22    24    1
    12    24    25    1
    13    25    26   ar
    14    26    27   ar
    15    27    28   ar
    16    28    29    1
    17    28    30   ar
    18    30    31   ar
    19     1     2    1
    20     2     3    2
    21     2     4   am
    22     4     5    1
    23    12    13   ar
    24    13    14   ar
    25    14    15    1
    26    14    16   ar
    27    16    17    1
    28    16    10   ar
    29    31    25   ar
    30    22    23    1
    31     4     6    1
    32     5     7    1
@<TRIPOS>MOLECULE
*****
 31 32 0 0 0
SMALL
GASTEIGER

@<TRIPOS>ATOM
      1 C          -7.0614  -18.9962   20.2230 C.3     1  UNL1        0.2430
      2 C          -8.0803  -19.6396   19.3297 C.2     1  UNL1        0.2845
      3 O          -9.3466  -18.9109   18.9899 O.2     1  UNL1       -0.2691
      4 N          -7.8329  -21.0116   18.7762 N.am    1  UNL1       -0.1940
      5 O          -8.8517  -21.6549   17.8829 O.3     1  UNL1       -0.2951
      6 H          -7.0018  -21.4898   18.9992 H       1  UNL1        0.1823
      7 H          -9.6042  -21.0541   17.7655 H       1  UNL1        0.2414
      8 O          -7.4511  -17.8379   21.0927 O.3     1  UNL1       -0.4699
      9 C         -10.1080  -20.2128   24.8743 C.3     1  UNL1        0.0335
     10 C          -9.9970  -19.1180   23.8549 C.ar    1  UNL1        0.0083
     11 C          -8.7796  -19.0253   22.9835 C.ar    1  UNL1        0.0349
     12 C          -8.6685  -17.9305   21.9642 C.ar    1  UNL1        0.1386
     13 C          -9.7748  -16.9284   21.8162 C.ar    1  UNL1        0.0349
     14 C         -10.9921  -17.0211   22.6877 C.ar    1  UNL1        0.0083
     15 C         -12.0984  -16.0189   22.5398 C.3     1  UNL1        0.0335
     16 C         -11.1032  -18.1159   23.7070 C.ar    1  UNL1        0.1323
     17 F         -12.3206  -18.2085   24.5785 F       1  UNL1       -0.2048
     18 C          -5.6528  -19.5113   20.2467 C.3     1  UNL1        0.0533
     19 C          -5.0352  -19.9469   21.5424 C.3     1  UNL1        0.0057
     20 C          -3.7550  -19.3209   22.0109 C.3     1  UNL1        0.0172
     21 C          -3.7908  -18.0738   22.8437 C.3     1  UNL1        0.0688
     22 N          -5.0789  -17.3253   23.0184 N.3     1  UNL1       -0.2937
     23 H          -5.7071  -17.9377   23.5387 H       1  UNL1        0.1236
     24 C          -5.0868  -15.9997   23.7203 C.3     1  UNL1        0.0956
     25 C          -6.0791  -15.7359   24.8137 C.ar    1  UNL1       -0.0062
     26 C          -5.6033  -15.4866   26.2143 C.ar    1  UNL1       -0.0006
     27 C          -6.5958  -15.2228   27.3077 C.ar    1  UNL1        0.0294
     28 C          -8.0639  -15.2084   27.0007 C.ar    1  UNL1        0.1401
     29 F          -9.0562  -14.9446   28.0941 F       1  UNL1       -0.2042
     30 C          -8.5397  -15.4577   25.6001 C.ar    1  UNL1        0.0294
     31 C          -7.5474  -15.7215   24.5067 C.ar    1  UNL1       -0.0006
@<TRIPOS>BOND
     1     9    10    1
     2    10    11   ar
     3    11    12   ar
     4    12     8    1
     5     8     1    1
     6     1    18    1
     7    18    19    1
     8    19    20    1
     9    20    21    1
    10    21    22    1
    11    22    24    1
    12    24    25    1
    13    25    26   ar
    14    26    27   ar
    15    27    28   ar
    16    28    29    1
    17    28    30   ar
    18    30    31   ar
    19     1     2    1
    20     2     3    2
    21     2     4   am
    22     4     5    1
    23    12    13   ar
    24    13    14   ar
    25    14    15    1
    26    14    16   ar
    27    16    17    1
    28    16    10   ar
    29    31    25   ar
    30    22    23    1
    31     4     6    1
    32     5     7    1
@<TRIPOS>MOLECULE
*****
 31 32 0 0 0
SMALL
GASTEIGER

@<TRIPOS>ATOM
      1 C          -5.1415  -18.6929   22.2885 C.3     1  UNL1        0.2430
      2 C          -3.7593  -18.7410   21.7078 C.2     1  UNL1        0.2845
      3 O          -3.1504  -17.5038   21.1175 O.2     1  UNL1       -0.2691
      4 N          -2.9859  -20.0262   21.7176 N.am    1  UNL1       -0.1940
      5 O          -1.6037  -20.0743   21.1370 O.3     1  UNL1       -0.2951
      6 H          -3.3856  -20.8382   22.1051 H       1  UNL1        0.1823
      7 H          -1.3637  -19.1967   20.8006 H       1  UNL1        0.2414
      8 O          -6.0010  -19.9223   22.2817 O.3     1  UNL1       -0.4699
      9 C         -10.8542  -19.9827   24.1371 C.3     1  UNL1        0.0335
     10 C          -9.9059  -19.8329   22.9846 C.ar    1  UNL1        0.0083
     11 C          -8.4277  -19.9525   23.2093 C.ar    1  UNL1        0.0349
     12 C          -7.4793  -19.8027   22.0569 C.ar    1  UNL1        0.1386
     13 C          -8.0091  -19.5332   20.6797 C.ar    1  UNL1        0.0349
     14 C          -9.4873  -19.4136   20.4550 C.ar    1  UNL1        0.0083
     15 C         -10.0172  -19.1441   19.0778 C.3     1  UNL1        0.0335
     16 C         -10.4357  -19.5634   21.6075 C.ar    1  UNL1        0.1323
     17 F         -11.9140  -19.4438   21.3827 F       1  UNL1       -0.2048
     18 C          -5.6643  -17.4156   22.8759 C.3     1  UNL1        0.0533
     19 C          -4.8328  -16.6470   23.8597 C.3     1  UNL1        0.0057
     20 C          -5.3494  -15.3620   24.4360 C.3     1  UNL1        0.0172
     21 C          -6.4499  -15.3859   25.4549 C.3     1  UNL1        0.0688
     22 N          -7.8694  -15.1499   25.0314 N.3     1  UNL1       -0.2937
     23 H          -7.8363  -14.5246   24.2262 H       1  UNL1        0.1236
     24 C          -8.7391  -16.3090   24.6441 C.3     1  UNL1        0.0956
     25 C          -9.6178  -16.2153   23.4320 C.ar    1  UNL1       -0.0062
     26 C          -9.0104  -15.9708   22.0825 C.ar    1  UNL1       -0.0006
     27 C          -9.8891  -15.8771   20.8704 C.ar    1  UNL1        0.0294
     28 C         -11.3751  -16.0279   21.0078 C.ar    1  UNL1        0.1401
     29 F         -12.2537  -15.9342   19.7958 F       1  UNL1       -0.2042
     30 C         -11.9825  -16.2724   22.3574 C.ar    1  UNL1        0.0294
     31 C         -11.1039  -16.3661   23.5695 C.ar    1  UNL1       -0.0006
@<TRIPOS>BOND
     1     9    10    1
     2    10    11   ar
     3    11    12   ar
     4    12     8    1
     5     8     1    1
     6     1    18    1
     7    18    19    1
     8    19    20    1
     9    20    21    1
    10    21    22    1
    11    22    24    1
    12    24    25    1
    13    25    26   ar
    14    26    27   ar
    15    27    28   ar
    16    28    29    1
    17    28    30   ar
    18    30    31   ar
    19     1     2    1
    20     2     3    2
    21     2     4   am
    22     4     5    1
    23    12    13   ar
    24    13    14   ar
    25    14    15    1
    26    14    16   ar
    27    16    17    1
    28    16    10   ar
    29    31    25   ar
    30    22    23    1
    31     4     6    1
    32     5     7    1
