@<TRIPOS>MOLECULE
*****
 30 33 0 0 0
SMALL
GASTEIGER

@<TRIPOS>ATOM
      1 C          -3.6516  -19.7996   19.8814 C.3     1  UNL1        0.0646
      2 C          -4.7871  -20.7659   20.0446 C.3     1  UNL1        0.0759
      3 C          -8.7478  -19.3361   21.6318 C.3     1  UNL1        0.0087
      4 C          -8.4620  -19.2718   20.1607 C.3     1  UNL1        0.0178
      5 C          -7.1418  -19.7484   19.6317 C.3     1  UNL1        0.0721
      6 N          -6.1074  -20.2893   20.5737 N.3     1  UNL1       -0.2726
      7 C          -6.3932  -20.3536   22.0448 C.3     1  UNL1        0.0721
      8 C          -7.7134  -19.8770   22.5738 C.3     1  UNL1        0.0178
      9 C         -10.0680  -18.8595   22.1609 C.3     1  UNL1        0.0475
     10 C         -11.4074  -15.8441   20.1168 C.ar    1  UNL1        0.1747
     11 N         -10.2756  -16.6015   20.7456 N.ar    1  UNL1       -0.2285
     12 C         -10.8456  -17.8195   21.4101 C.ar    1  UNL1        0.0776
     13 C         -12.3296  -17.8148   21.1920 C.ar    1  UNL1        0.0885
     14 N         -12.6769  -16.5940   20.3927 N.ar    1  UNL1       -0.3340
     15 H         -13.5795  -16.3310   20.1005 H       1  UNL1        0.1675
     16 C          -2.3148  -20.1034   20.4904 C.3     1  UNL1        0.2069
     17 O          -1.7519  -19.2040   21.5506 O.3     1  UNL1       -0.4738
     18 C          -2.5947  -18.1053   22.1272 C.ar    1  UNL1        0.1576
     19 C          -3.6661  -18.4277   23.1264 C.ar    1  UNL1        0.0398
     20 C          -4.5089  -17.3290   23.7030 C.ar    1  UNL1        0.0193
     21 C          -4.2806  -15.9080   23.2804 C.ar    1  UNL1        0.0754
     22 N          -3.2094  -15.5857   22.2811 N.ar    1  UNL1       -0.2436
     23 C          -2.3664  -16.6843   21.7045 C.ar    1  UNL1        0.1352
     24 C          -5.1235  -14.8094   23.8569 C.3     1  UNL1        0.1186
     25 N          -6.1806  -15.1291   24.8720 N.3     1  UNL1       -0.2677
     26 C          -7.6118  -15.2695   24.4456 C.3     1  UNL1        0.0724
     27 C          -8.6689  -15.5893   25.4606 C.3     1  UNL1        0.0174
     28 C          -8.2948  -15.7686   26.9021 C.3     1  UNL1        0.0029
     29 C          -6.8636  -15.6282   27.3286 C.3     1  UNL1        0.0174
     30 C          -5.8065  -15.3084   26.3135 C.3     1  UNL1        0.0724
@<TRIPOS>BOND
     1    10    11   ar
     2    11    12   ar
     3    12     9    1
     4     9     3    1
     5     3     4    1
     6     4     5    1
     7     5     6    1
     8     6     2    1
     9     2     1    1
    10     1    16    1
    11    16    17    1
    12    17    18    1
    13    18    19   ar
    14    19    20   ar
    15    20    21   ar
    16    21    24    1
    17    24    25    1
    18    25    26    1
    19    26    27    1
    20    27    28    1
    21    28    29    1
    22    29    30    1
    23    21    22   ar
    24    22    23   ar
    25     6     7    1
    26     7     8    1
    27    12    13   ar
    28    13    14   ar
    29    14    10   ar
    30     8     3    1
    31    23    18   ar
    32    30    25    1
    33    14    15    1
@<TRIPOS>MOLECULE
*****
 30 33 0 0 0
SMALL
GASTEIGER

@<TRIPOS>ATOM
      1 C          -8.8380  -19.6807   19.0989 C.3     1  UNL1        0.0646
      2 C          -7.9932  -20.5862   19.9452 C.3     1  UNL1        0.0759
      3 C          -4.1548  -19.0618   21.7321 C.3     1  UNL1        0.0087
      4 C          -5.4721  -18.6347   22.3086 C.3     1  UNL1        0.0178
      5 C          -6.7515  -19.1428   21.7129 C.3     1  UNL1        0.0721
      6 N          -6.7136  -20.0781   20.5408 N.3     1  UNL1       -0.2726
      7 C          -5.3964  -20.5052   19.9643 C.3     1  UNL1        0.0721
      8 C          -4.1170  -19.9970   20.5600 C.3     1  UNL1        0.0178
      9 C          -2.8753  -18.5537   22.3277 C.3     1  UNL1        0.0475
     10 C           0.0727  -17.8546   19.9017 C.ar    1  UNL1        0.1747
     11 N          -0.8145  -18.8090   20.6446 N.ar    1  UNL1       -0.2285
     12 C          -1.8003  -18.0035   21.4380 C.ar    1  UNL1        0.0776
     13 C          -1.5223  -16.5513   21.1854 C.ar    1  UNL1        0.0885
     14 N          -0.3648  -16.4592   20.2359 N.ar    1  UNL1       -0.3340
     15 H           0.0373  -15.6288   19.8924 H       1  UNL1        0.1675
     16 C         -10.3335  -19.7879   19.1478 C.3     1  UNL1        0.2069
     17 O         -11.0462  -19.7371   20.4666 O.3     1  UNL1       -0.4738
     18 C         -10.6461  -18.7230   21.4969 C.ar    1  UNL1        0.1576
     19 C         -10.2219  -19.1703   22.8644 C.ar    1  UNL1        0.0398
     20 C          -9.8217  -18.1561   23.8946 C.ar    1  UNL1        0.0193
     21 C          -9.8458  -16.6947   23.5574 C.ar    1  UNL1        0.0754
     22 N         -10.2700  -16.2475   22.1899 N.ar    1  UNL1       -0.2436
     23 C         -10.6702  -17.2616   21.1596 C.ar    1  UNL1        0.1352
     24 C          -9.4457  -15.6806   24.5876 C.3     1  UNL1        0.1186
     25 N          -8.0203  -15.6017   25.0483 N.3     1  UNL1       -0.2677
     26 C          -6.9104  -15.5212   24.0426 C.3     1  UNL1        0.0724
     27 C          -5.4851  -15.4422   24.5032 C.3     1  UNL1        0.0174
     28 C          -5.1697  -15.4439   25.9697 C.3     1  UNL1        0.0029
     29 C          -6.2796  -15.5244   26.9755 C.3     1  UNL1        0.0174
     30 C          -7.7049  -15.6033   26.5148 C.3     1  UNL1        0.0724
@<TRIPOS>BOND
     1    10    11   ar
     2    11    12   ar
     3    12     9    1
     4     9     3    1
     5     3     4    1
     6     4     5    1
     7     5     6    1
     8     6     2    1
     9     2     1    1
    10     1    16    1
    11    16    17    1
    12    17    18    1
    13    18    19   ar
    14    19    20   ar
    15    20    21   ar
    16    21    24    1
    17    24    25    1
    18    25    26    1
    19    26    27    1
    20    27    28    1
    21    28    29    1
    22    29    30    1
    23    21    22   ar
    24    22    23   ar
    25     6     7    1
    26     7     8    1
    27    12    13   ar
    28    13    14   ar
    29    14    10   ar
    30     8     3    1
    31    23    18   ar
    32    30    25    1
    33    14    15    1
@<TRIPOS>MOLECULE
*****
 30 33 0 0 0
SMALL
GASTEIGER

@<TRIPOS>ATOM
      1 C          -8.2902  -15.5573   27.3105 C.3     1  UNL1        0.0646
      2 C          -8.5846  -16.9892   26.9746 C.3     1  UNL1        0.0759
      3 C         -10.2211  -18.0588   22.9214 C.3     1  UNL1        0.0087
      4 C          -9.4703  -16.7743   23.1120 C.3     1  UNL1        0.0178
      5 C          -8.9248  -16.4178   24.4630 C.3     1  UNL1        0.0721
      6 N          -9.1301  -17.3458   25.6235 N.3     1  UNL1       -0.2726
      7 C          -9.8809  -18.6302   25.4329 C.3     1  UNL1        0.0721
      8 C         -10.4264  -18.9868   24.0819 C.3     1  UNL1        0.0178
      9 C         -10.7666  -18.4154   21.5704 C.3     1  UNL1        0.0475
     10 C         -11.6705  -15.7016   18.9468 C.ar    1  UNL1        0.1747
     11 N         -10.7116  -16.7036   19.5182 N.ar    1  UNL1       -0.2285
     12 C         -11.3688  -17.3523   20.7002 C.ar    1  UNL1        0.0776
     13 C         -12.7338  -16.7513   20.8594 C.ar    1  UNL1        0.0885
     14 N         -12.9204  -15.7311   19.7757 N.ar    1  UNL1       -0.3340
     15 H         -13.7223  -15.1779   19.6334 H       1  UNL1        0.1675
     16 C          -6.8832  -15.1306   27.6077 C.3     1  UNL1        0.2069
     17 O          -6.0303  -14.5484   26.5198 O.3     1  UNL1       -0.4738
     18 C          -5.3312  -15.4536   25.5494 C.ar    1  UNL1        0.1576
     19 C          -4.5500  -16.6316   26.0517 C.ar    1  UNL1        0.0398
     20 C          -3.8510  -17.5368   25.0813 C.ar    1  UNL1        0.0193
     21 C          -3.9330  -17.2642   23.6085 C.ar    1  UNL1        0.0754
     22 N          -4.7142  -16.0864   23.1062 N.ar    1  UNL1       -0.2436
     23 C          -5.4133  -15.1810   24.0767 C.ar    1  UNL1        0.1352
     24 C          -3.2340  -18.1695   22.6381 C.3     1  UNL1        0.1186
     25 N          -4.0266  -19.1388   21.8121 N.3     1  UNL1       -0.2677
     26 C          -3.3856  -19.8282   20.6441 C.3     1  UNL1        0.0724
     27 C          -4.1782  -20.7974   19.8181 C.3     1  UNL1        0.0174
     28 C          -5.6116  -21.0774   20.1600 C.3     1  UNL1        0.0029
     29 C          -6.2525  -20.3881   21.3279 C.3     1  UNL1        0.0174
     30 C          -5.4600  -19.4188   22.1540 C.3     1  UNL1        0.0724
@<TRIPOS>BOND
     1    10    11   ar
     2    11    12   ar
     3    12     9    1
     4     9     3    1
     5     3     4    1
     6     4     5    1
     7     5     6    1
     8     6     2    1
     9     2     1    1
    10     1    16    1
    11    16    17    1
    12    17    18    1
    13    18    19   ar
    14    19    20   ar
    15    20    21   ar
    16    21    24    1
    17    24    25    1
    18    25    26    1
    19    26    27    1
    20    27    28    1
    21    28    29    1
    22    29    30    1
    23    21    22   ar
    24    22    23   ar
    25     6     7    1
    26     7     8    1
    27    12    13   ar
    28    13    14   ar
    29    14    10   ar
    30     8     3    1
    31    23    18   ar
    32    30    25    1
    33    14    15    1
@<TRIPOS>MOLECULE
*****
 30 33 0 0 0
SMALL
GASTEIGER

@<TRIPOS>ATOM
      1 C          -8.2030  -15.3554   27.2634 C.3     1  UNL1        0.0646
      2 C          -8.5140  -16.7964   26.9867 C.3     1  UNL1        0.0759
      3 C         -10.4457  -17.9746   23.0969 C.3     1  UNL1        0.0087
      4 C         -10.3658  -18.9614   24.2237 C.3     1  UNL1        0.0178
      5 C          -9.7219  -18.5687   25.5203 C.3     1  UNL1        0.0721
      6 N          -9.1579  -17.1891   25.6900 N.3     1  UNL1       -0.2726
      7 C          -9.2378  -16.2023   24.5632 C.3     1  UNL1        0.0721
      8 C          -9.8817  -16.5951   23.2666 C.3     1  UNL1        0.0178
      9 C         -11.0896  -18.3673   21.8002 C.3     1  UNL1        0.0475
     10 C         -11.4984  -15.6929   19.0172 C.ar    1  UNL1        0.1747
     11 N         -10.6674  -16.7026   19.7521 N.ar    1  UNL1       -0.2285
     12 C         -11.5196  -17.3108   20.8262 C.ar    1  UNL1        0.0776
     13 C         -12.8774  -16.6771   20.7552 C.ar    1  UNL1        0.0885
     14 N         -12.8643  -15.6772   19.6372 N.ar    1  UNL1       -0.3340
     15 H         -13.6195  -15.1101   19.3591 H       1  UNL1        0.1675
     16 C          -6.7869  -14.9282   27.5131 C.3     1  UNL1        0.2069
     17 O          -5.9080  -14.5355   26.3628 O.3     1  UNL1       -0.4738
     18 C          -5.4726  -15.5676   25.3653 C.ar    1  UNL1        0.1576
     19 C          -4.4115  -16.5631   25.7305 C.ar    1  UNL1        0.0398
     20 C          -3.9760  -17.5951   24.7330 C.ar    1  UNL1        0.0193
     21 C          -4.6016  -17.6319   23.3702 C.ar    1  UNL1        0.0754
     22 N          -5.6626  -16.6365   23.0049 N.ar    1  UNL1       -0.2436
     23 C          -6.0981  -15.6044   24.0024 C.ar    1  UNL1        0.1352
     24 C          -4.1662  -18.6640   22.3726 C.3     1  UNL1        0.1186
     25 N          -3.1989  -18.2963   21.2866 N.3     1  UNL1       -0.2677
     26 C          -2.0987  -17.3148   21.5629 C.3     1  UNL1        0.0724
     27 C          -1.1315  -16.9472   20.4770 C.3     1  UNL1        0.0174
     28 C          -1.2644  -17.5609   19.1147 C.3     1  UNL1        0.0029
     29 C          -2.3646  -18.5423   18.8385 C.3     1  UNL1        0.0174
     30 C          -3.3319  -18.9100   19.9244 C.3     1  UNL1        0.0724
@<TRIPOS>BOND
     1    10    11   ar
     2    11    12   ar
     3    12     9    1
     4     9     3    1
     5     3     4    1
     6     4     5    1
     7     5     6    1
     8     6     2    1
     9     2     1    1
    10     1    16    1
    11    16    17    1
    12    17    18    1
    13    18    19   ar
    14    19    20   ar
    15    20    21   ar
    16    21    24    1
    17    24    25    1
    18    25    26    1
    19    26    27    1
    20    27    28    1
    21    28    29    1
    22    29    30    1
    23    21    22   ar
    24    22    23   ar
    25     6     7    1
    26     7     8    1
    27    12    13   ar
    28    13    14   ar
    29    14    10   ar
    30     8     3    1
    31    23    18   ar
    32    30    25    1
    33    14    15    1
@<TRIPOS>MOLECULE
*****
 30 33 0 0 0
SMALL
GASTEIGER

@<TRIPOS>ATOM
      1 C          -5.6843  -15.1471   26.1643 C.3     1  UNL1        0.0646
      2 C          -6.0633  -15.2899   24.7200 C.3     1  UNL1        0.0759
      3 C          -3.8777  -18.2237   22.0998 C.3     1  UNL1        0.0087
      4 C          -5.3211  -18.4512   22.4385 C.3     1  UNL1        0.0178
      5 C          -6.0496  -17.4732   23.3118 C.3     1  UNL1        0.0721
      6 N          -5.3347  -16.2679   23.8466 N.3     1  UNL1       -0.2726
      7 C          -3.8913  -16.0404   23.5080 C.3     1  UNL1        0.0721
      8 C          -3.1627  -17.0184   22.6346 C.3     1  UNL1        0.0178
      9 C          -3.1491  -19.2017   21.2264 C.3     1  UNL1        0.0475
     10 C           0.1625  -18.0708   19.5473 C.ar    1  UNL1        0.1747
     11 N          -0.5997  -18.5601   20.7429 N.ar    1  UNL1       -0.2285
     12 C          -2.0345  -18.7302   20.3402 C.ar    1  UNL1        0.0776
     13 C          -2.1591  -18.3461   18.8955 C.ar    1  UNL1        0.0885
     14 N          -0.8013  -17.9385   18.4055 N.ar    1  UNL1       -0.3340
     15 H          -0.5813  -17.6371   17.4944 H       1  UNL1        0.1675
     16 C          -6.6873  -15.4537   27.2368 C.3     1  UNL1        0.2069
     17 O          -8.1544  -15.3363   26.9473 O.3     1  UNL1       -0.4738
     18 C          -8.8034  -16.2719   25.9709 C.ar    1  UNL1        0.1576
     19 C          -9.2089  -15.7771   24.6141 C.ar    1  UNL1        0.0398
     20 C          -9.8579  -16.7127   23.6377 C.ar    1  UNL1        0.0193
     21 C         -10.1014  -18.1431   24.0180 C.ar    1  UNL1        0.0754
     22 N          -9.6959  -18.6379   25.3748 N.ar    1  UNL1       -0.2436
     23 C          -9.0469  -17.7023   26.3512 C.ar    1  UNL1        0.1352
     24 C         -10.7504  -19.0787   23.0417 C.3     1  UNL1        0.1186
     25 N         -10.1258  -19.3122   21.6980 N.3     1  UNL1       -0.2677
     26 C         -10.9938  -19.4776   20.4859 C.3     1  UNL1        0.0724
     27 C         -10.3692  -19.7111   19.1423 C.3     1  UNL1        0.0174
     28 C          -8.8765  -19.7793   19.0107 C.3     1  UNL1        0.0029
     29 C          -8.0085  -19.6139   20.2228 C.3     1  UNL1        0.0174
     30 C          -8.6331  -19.3804   21.5665 C.3     1  UNL1        0.0724
@<TRIPOS>BOND
     1    10    11   ar
     2    11    12   ar
     3    12     9    1
     4     9     3    1
     5     3     4    1
     6     4     5    1
     7     5     6    1
     8     6     2    1
     9     2     1    1
    10     1    16    1
    11    16    17    1
    12    17    18    1
    13    18    19   ar
    14    19    20   ar
    15    20    21   ar
    16    21    24    1
    17    24    25    1
    18    25    26    1
    19    26    27    1
    20    27    28    1
    21    28    29    1
    22    29    30    1
    23    21    22   ar
    24    22    23   ar
    25     6     7    1
    26     7     8    1
    27    12    13   ar
    28    13    14   ar
    29    14    10   ar
    30     8     3    1
    31    23    18   ar
    32    30    25    1
    33    14    15    1
@<TRIPOS>MOLECULE
*****
 30 33 0 0 0
SMALL
GASTEIGER

@<TRIPOS>ATOM
      1 C          -8.1392  -15.4462   27.2660 C.3     1  UNL1        0.0646
      2 C          -8.6536  -16.8332   27.0180 C.3     1  UNL1        0.0759
      3 C         -10.2830  -17.9385   22.9716 C.3     1  UNL1        0.0087
      4 C         -10.2401  -18.9615   24.0678 C.3     1  UNL1        0.0178
      5 C          -9.6969  -18.5930   25.4165 C.3     1  UNL1        0.0721
      6 N          -9.1968  -17.2016   25.6691 N.3     1  UNL1       -0.2726
      7 C          -9.2397  -16.1787   24.5729 C.3     1  UNL1        0.0721
      8 C          -9.7829  -16.5471   23.2242 C.3     1  UNL1        0.0178
      9 C         -10.8262  -18.3070   21.6227 C.3     1  UNL1        0.0475
     10 C          -9.1604  -20.1489   18.6398 C.ar    1  UNL1        0.1747
     11 N         -10.3815  -19.6577   19.3595 N.ar    1  UNL1       -0.2285
     12 C          -9.9332  -18.9535   20.6057 C.ar    1  UNL1        0.0776
     13 C          -8.4350  -19.0095   20.6563 C.ar    1  UNL1        0.0885
     14 N          -7.9574  -19.7482   19.4413 N.ar    1  UNL1       -0.3340
     15 H          -7.0192  -19.9370   19.2105 H       1  UNL1        0.1675
     16 C          -6.6629  -15.1804   27.2533 C.3     1  UNL1        0.2069
     17 O          -5.9825  -14.7884   25.9753 O.3     1  UNL1       -0.4738
     18 C          -5.4473  -15.8458   25.0558 C.ar    1  UNL1        0.1576
     19 C          -4.2280  -16.6292   25.4427 C.ar    1  UNL1        0.0398
     20 C          -3.6929  -17.6865   24.5231 C.ar    1  UNL1        0.0193
     21 C          -4.3770  -17.9605   23.2166 C.ar    1  UNL1        0.0754
     22 N          -5.5963  -17.1772   22.8297 N.ar    1  UNL1       -0.2436
     23 C          -6.1315  -16.1198   23.7493 C.ar    1  UNL1        0.1352
     24 C          -3.8419  -19.0178   22.2971 C.3     1  UNL1        0.1186
     25 N          -2.9848  -18.6315   21.1282 N.3     1  UNL1       -0.2677
     26 C          -3.5778  -18.5677   19.7519 C.3     1  UNL1        0.0724
     27 C          -2.7208  -18.1814   18.5831 C.3     1  UNL1        0.0174
     28 C          -1.2706  -17.8589   18.7905 C.3     1  UNL1        0.0029
     29 C          -0.6775  -17.9227   20.1668 C.3     1  UNL1        0.0174
     30 C          -1.5346  -18.3090   21.3357 C.3     1  UNL1        0.0724
@<TRIPOS>BOND
     1    10    11   ar
     2    11    12   ar
     3    12     9    1
     4     9     3    1
     5     3     4    1
     6     4     5    1
     7     5     6    1
     8     6     2    1
     9     2     1    1
    10     1    16    1
    11    16    17    1
    12    17    18    1
    13    18    19   ar
    14    19    20   ar
    15    20    21   ar
    16    21    24    1
    17    24    25    1
    18    25    26    1
    19    26    27    1
    20    27    28    1
    21    28    29    1
    22    29    30    1
    23    21    22   ar
    24    22    23   ar
    25     6     7    1
    26     7     8    1
    27    12    13   ar
    28    13    14   ar
    29    14    10   ar
    30     8     3    1
    31    23    18   ar
    32    30    25    1
    33    14    15    1
@<TRIPOS>MOLECULE
*****
 30 33 0 0 0
SMALL
GASTEIGER

@<TRIPOS>ATOM
      1 C         -18.7498   -7.0305   19.7169 C.3     1  UNL1        0.0646
      2 C         -18.5772   -5.6155   19.2501 C.3     1  UNL1        0.0759
      3 C         -14.6612   -3.4947   19.8962 C.3     1  UNL1        0.0087
      4 C         -15.9222   -2.7027   19.7157 C.3     1  UNL1        0.0178
      5 C         -17.2274   -3.4096   19.5003 C.3     1  UNL1        0.0721
      6 N         -17.2718   -4.9086   19.4655 N.3     1  UNL1       -0.2726
      7 C         -16.0108   -5.7006   19.6460 C.3     1  UNL1        0.0721
      8 C         -14.7055   -4.9937   19.8614 C.3     1  UNL1        0.0178
      9 C         -13.3558   -2.7878   20.1116 C.3     1  UNL1        0.0475
     10 C         -11.9321   -1.7013   16.6681 C.ar    1  UNL1        0.1747
     11 N         -13.0166   -2.3157   17.5026 N.ar    1  UNL1       -0.2285
     12 C         -12.5763   -2.2776   18.9360 C.ar    1  UNL1        0.0776
     13 C         -11.2198   -1.6395   18.9875 C.ar    1  UNL1        0.0885
     14 N         -10.8216   -1.2834   17.5858 N.ar    1  UNL1       -0.3340
     15 H          -9.9793   -0.8512   17.3157 H       1  UNL1        0.1675
     16 C         -19.1516   -8.0980   18.7427 C.3     1  UNL1        0.2069
     17 O         -18.1590   -9.1403   18.3206 O.3     1  UNL1       -0.4738
     18 C         -16.8109   -8.7281   17.8081 C.ar    1  UNL1        0.1576
     19 C         -15.5682   -9.1914   18.5090 C.ar    1  UNL1        0.0398
     20 C         -14.2201   -8.7793   17.9965 C.ar    1  UNL1        0.0193
     21 C         -14.1146   -7.9038   16.7831 C.ar    1  UNL1        0.0754
     22 N         -15.3571   -7.4405   16.0821 N.ar    1  UNL1       -0.2436
     23 C         -16.7053   -7.8527   16.5946 C.ar    1  UNL1        0.1352
     24 C         -12.7665   -7.4916   16.2705 C.3     1  UNL1        0.1186
     25 N         -11.6886   -7.0901   17.2335 N.3     1  UNL1       -0.2677
     26 C         -10.5812   -8.0472   17.5613 C.3     1  UNL1        0.0724
     27 C          -9.5034   -7.6457   18.5241 C.3     1  UNL1        0.0174
     28 C          -9.5330   -6.2871   19.1592 C.3     1  UNL1        0.0029
     29 C         -10.6405   -5.3300   18.8314 C.3     1  UNL1        0.0174
     30 C         -11.7183   -5.7315   17.8685 C.3     1  UNL1        0.0724
@<TRIPOS>BOND
     1    10    11   ar
     2    11    12   ar
     3    12     9    1
     4     9     3    1
     5     3     4    1
     6     4     5    1
     7     5     6    1
     8     6     2    1
     9     2     1    1
    10     1    16    1
    11    16    17    1
    12    17    18    1
    13    18    19   ar
    14    19    20   ar
    15    20    21   ar
    16    21    24    1
    17    24    25    1
    18    25    26    1
    19    26    27    1
    20    27    28    1
    21    28    29    1
    22    29    30    1
    23    21    22   ar
    24    22    23   ar
    25     6     7    1
    26     7     8    1
    27    12    13   ar
    28    13    14   ar
    29    14    10   ar
    30     8     3    1
    31    23    18   ar
    32    30    25    1
    33    14    15    1
@<TRIPOS>MOLECULE
*****
 30 33 0 0 0
SMALL
GASTEIGER

@<TRIPOS>ATOM
      1 C           8.2808  -10.8861   28.3311 C.3     1  UNL1        0.0646
      2 C           7.7429  -12.1027   27.6379 C.3     1  UNL1        0.0759
      3 C           3.3925  -13.1814   28.0379 C.3     1  UNL1        0.0087
      4 C           4.1749  -13.6498   26.8470 C.3     1  UNL1        0.0178
      5 C           5.6250  -13.2902   26.7137 C.3     1  UNL1        0.0721
      6 N           6.2927  -12.4622   27.7713 N.3     1  UNL1       -0.2726
      7 C           5.5103  -11.9938   28.9622 C.3     1  UNL1        0.0721
      8 C           4.0602  -12.3534   29.0955 C.3     1  UNL1        0.0178
      9 C           1.9423  -13.5410   28.1713 C.3     1  UNL1        0.0475
     10 C           1.6359  -17.3143   29.0275 C.ar    1  UNL1        0.1747
     11 N           2.4523  -16.0629   28.8957 N.ar    1  UNL1       -0.2285
     12 C           1.5432  -14.9629   28.4335 C.ar    1  UNL1        0.0776
     13 C           0.1649  -15.5345   28.2797 C.ar    1  UNL1        0.0885
     14 N           0.2222  -16.9878   28.6468 N.ar    1  UNL1       -0.3340
     15 H          -0.5351  -17.6169   28.6392 H       1  UNL1        0.1675
     16 C           8.4771   -9.6115   27.5649 C.3     1  UNL1        0.2069
     17 O           7.2882   -8.8062   27.1316 O.3     1  UNL1       -0.4738
     18 C           7.4640   -7.6648   26.1743 C.ar    1  UNL1        0.1576
     19 C           8.2919   -7.8449   24.9365 C.ar    1  UNL1        0.0398
     20 C           8.4678   -6.7035   23.9793 C.ar    1  UNL1        0.0193
     21 C           7.8157   -5.3821   24.2598 C.ar    1  UNL1        0.0754
     22 N           6.9878   -5.2021   25.4975 N.ar    1  UNL1       -0.2436
     23 C           6.8119   -6.3434   26.4549 C.ar    1  UNL1        0.1352
     24 C           7.9915   -4.2408   23.3025 C.3     1  UNL1        0.1186
     25 N           6.8732   -3.8570   22.3794 N.3     1  UNL1       -0.2677
     26 C           5.5022   -3.5972   22.9296 C.3     1  UNL1        0.0724
     27 C           4.3839   -3.2135   22.0065 C.3     1  UNL1        0.0174
     28 C           4.6366   -3.0896   20.5331 C.3     1  UNL1        0.0029
     29 C           6.0076   -3.3495   19.9829 C.3     1  UNL1        0.0174
     30 C           7.1259   -3.7332   20.9060 C.3     1  UNL1        0.0724
@<TRIPOS>BOND
     1    10    11   ar
     2    11    12   ar
     3    12     9    1
     4     9     3    1
     5     3     4    1
     6     4     5    1
     7     5     6    1
     8     6     2    1
     9     2     1    1
    10     1    16    1
    11    16    17    1
    12    17    18    1
    13    18    19   ar
    14    19    20   ar
    15    20    21   ar
    16    21    24    1
    17    24    25    1
    18    25    26    1
    19    26    27    1
    20    27    28    1
    21    28    29    1
    22    29    30    1
    23    21    22   ar
    24    22    23   ar
    25     6     7    1
    26     7     8    1
    27    12    13   ar
    28    13    14   ar
    29    14    10   ar
    30     8     3    1
    31    23    18   ar
    32    30    25    1
    33    14    15    1
@<TRIPOS>MOLECULE
*****
 30 33 0 0 0
SMALL
GASTEIGER

@<TRIPOS>ATOM
      1 C         -19.8145   -7.1752   19.9699 C.3     1  UNL1        0.0646
      2 C         -19.7554   -6.2863   18.7632 C.3     1  UNL1        0.0759
      3 C         -16.8722   -2.8332   18.6510 C.3     1  UNL1        0.0087
      4 C         -16.9203   -3.8073   17.5115 C.3     1  UNL1        0.0178
      5 C         -17.8814   -4.9584   17.5489 C.3     1  UNL1        0.0721
      6 N         -18.7943   -5.1352   18.7258 N.3     1  UNL1       -0.2726
      7 C         -18.7462   -4.1611   19.8654 C.3     1  UNL1        0.0721
      8 C         -17.7852   -3.0100   19.8280 C.3     1  UNL1        0.0178
      9 C         -15.9111   -1.6821   18.6137 C.3     1  UNL1        0.0475
     10 C         -12.0450   -1.7831   18.9427 C.ar    1  UNL1        0.1747
     11 N         -13.2894   -1.3036   18.2559 N.ar    1  UNL1       -0.2285
     12 C         -14.4693   -1.8971   18.9669 C.ar    1  UNL1        0.0776
     13 C         -13.9542   -2.7434   20.0932 C.ar    1  UNL1        0.0885
     14 N         -12.4559   -2.6729   20.0783 N.ar    1  UNL1       -0.3340
     15 H         -11.8488   -3.1304   20.7039 H       1  UNL1        0.1675
     16 C         -18.6761   -8.1036   20.2741 C.3     1  UNL1        0.2069
     17 O         -18.0189   -8.8725   19.1664 O.3     1  UNL1       -0.4738
     18 C         -16.7610   -8.3525   18.5363 C.ar    1  UNL1        0.1576
     19 C         -15.6854   -7.7529   19.3930 C.ar    1  UNL1        0.0398
     20 C         -14.4274   -7.2330   18.7629 C.ar    1  UNL1        0.0193
     21 C         -14.2449   -7.3126   17.2762 C.ar    1  UNL1        0.0754
     22 N         -15.3203   -7.9122   16.4195 N.ar    1  UNL1       -0.2436
     23 C         -16.5784   -8.4322   17.0496 C.ar    1  UNL1        0.1352
     24 C         -12.9869   -6.7927   16.6461 C.3     1  UNL1        0.1186
     25 N         -11.7391   -6.6533   17.4669 N.3     1  UNL1       -0.2677
     26 C         -11.3973   -5.3343   18.0940 C.3     1  UNL1        0.0724
     27 C         -10.1496   -5.1949   18.9147 C.3     1  UNL1        0.0174
     28 C          -9.2435   -6.3746   19.1084 C.3     1  UNL1        0.0029
     29 C          -9.5853   -7.6937   18.4813 C.3     1  UNL1        0.0174
     30 C         -10.8331   -7.8330   17.6605 C.3     1  UNL1        0.0724
@<TRIPOS>BOND
     1    10    11   ar
     2    11    12   ar
     3    12     9    1
     4     9     3    1
     5     3     4    1
     6     4     5    1
     7     5     6    1
     8     6     2    1
     9     2     1    1
    10     1    16    1
    11    16    17    1
    12    17    18    1
    13    18    19   ar
    14    19    20   ar
    15    20    21   ar
    16    21    24    1
    17    24    25    1
    18    25    26    1
    19    26    27    1
    20    27    28    1
    21    28    29    1
    22    29    30    1
    23    21    22   ar
    24    22    23   ar
    25     6     7    1
    26     7     8    1
    27    12    13   ar
    28    13    14   ar
    29    14    10   ar
    30     8     3    1
    31    23    18   ar
    32    30    25    1
    33    14    15    1
