@<TRIPOS>MOLECULE
*****
 37 40 0 0 0
SMALL
GASTEIGER

@<TRIPOS>ATOM
      1 N           1.1602    0.9641   19.9048 N.ar    1  UNL1       -0.2340
      2 C           1.3984    0.7421   21.3690 C.ar    1  UNL1        0.3338
      3 O           2.2519   -0.4042   21.8248 O.2     1  UNL1       -0.2463
      4 N           0.7831    1.6663   22.3776 N.ar    1  UNL1       -0.2776
      5 C          -0.0704    2.8126   21.9219 C.ar    1  UNL1        0.2175
      6 N          -0.6857    3.7369   22.9305 N.2     1  UNL1       -0.2128
      7 N          -0.3085    3.0346   20.4577 N.ar    1  UNL1       -0.2479
      8 C           0.3068    2.1103   19.4492 C.ar    1  UNL1        0.3373
      9 O           0.0686    2.3324   17.9849 O.2     1  UNL1       -0.2461
     10 H           0.9394    1.5206   23.3386 H       1  UNL1        0.1733
     11 C          -0.4475    3.5149   24.3947 C.ar    1  UNL1        0.0846
     12 C          -1.4543    2.7615   25.2125 C.ar    1  UNL1        0.0223
     13 C          -1.2161    2.5395   26.6768 C.ar    1  UNL1        0.0391
     14 C           0.0289    3.0709   27.3232 C.ar    1  UNL1        0.1473
     15 C           1.0356    3.8242   26.5053 C.ar    1  UNL1        0.0391
     16 C           0.7975    4.0462   25.0411 C.ar    1  UNL1        0.0223
     17 O           0.2671    2.8489   28.7875 O.3     1  UNL1       -0.4361
     18 C           1.1089    1.6943   29.2438 C.ar    1  UNL1        0.2297
     19 C           1.4270    0.5769   28.2949 C.ar    1  UNL1        0.0581
     20 C           2.2689   -0.5777   28.7512 C.ar    1  UNL1        0.0064
     21 C           2.7926   -0.6149   30.1564 C.ar    1  UNL1        0.0209
     22 C           2.4744    0.5025   31.1051 C.ar    1  UNL1        0.1021
     23 N           1.6326    1.6571   30.6488 N.ar    1  UNL1       -0.2098
     24 C           1.7755    0.0398   18.8963 C.3     1  UNL1        0.1205
     25 C           3.7174    1.7055   18.4436 C.3     1  UNL1        0.0079
     26 C           3.1491    0.3196   18.3624 C.3     1  UNL1        0.0594
     27 C           3.9543   -0.7863   17.7471 C.2     1  UNL1        0.0519
     28 O           4.7805   -1.6862   18.6175 O.co2   1  UNL1       -0.5491
     29 O           3.9333   -0.9924   16.2615 O.co2   1  UNL1       -0.5491
     30 C          -1.1620    4.1809   20.0020 C.3     1  UNL1        0.1401
     31 C          -2.6066    3.9539   19.6679 C.ar    1  UNL1        0.0007
     32 C          -3.5733    3.5631   20.7461 C.ar    1  UNL1       -0.0015
     33 C          -5.0180    3.3362   20.4119 C.ar    1  UNL1        0.0111
     34 C          -5.4958    3.5000   18.9995 C.ar    1  UNL1        0.0577
     35 CL         -6.9403    3.2731   18.6654 Cl      1  UNL1       -0.0822
     36 C          -4.5290    3.8909   17.9213 C.ar    1  UNL1        0.0111
     37 C          -3.0844    4.1178   18.2554 C.ar    1  UNL1       -0.0015
@<TRIPOS>UNITY_ATOM_ATTR
28 1
charge -1
@<TRIPOS>BOND
     1    26    25    1
     2    26    24    1
     3    24     1    1
     4     1     2   ar
     5     2     3    2
     6     2     4   ar
     7     4     5   ar
     8     5     6    2
     9     6    11    1
    10    11    12   ar
    11    12    13   ar
    12    13    14   ar
    13    14    17    1
    14    17    18    1
    15    18    19   ar
    16    19    20   ar
    17    20    21   ar
    18    21    22   ar
    19    22    23   ar
    20    14    15   ar
    21    15    16   ar
    22     5     7   ar
    23     7    30    1
    24    30    31    1
    25    31    32   ar
    26    32    33   ar
    27    33    34   ar
    28    34    35    1
    29    34    36   ar
    30    36    37   ar
    31     7     8   ar
    32     8     9    2
    33    26    27    1
    34    27    28   ar
    35    27    29   ar
    36     8     1   ar
    37    16    11   ar
    38    37    31   ar
    39    23    18   ar
    40     4    10    1
@<TRIPOS>MOLECULE
*****
 37 40 0 0 0
SMALL
GASTEIGER

@<TRIPOS>ATOM
      1 N           4.7262   -2.8068   21.0866 N.ar    1  UNL1       -0.2340
      2 C           3.8209   -1.9256   21.8952 C.ar    1  UNL1        0.3338
      3 O           2.5647   -1.3789   21.2843 O.2     1  UNL1       -0.2463
      4 N           4.1719   -1.5909   23.3146 N.ar    1  UNL1       -0.2776
      5 C           5.4280   -2.1374   23.9255 C.ar    1  UNL1        0.2175
      6 N           5.7789   -1.8028   25.3450 N.2     1  UNL1       -0.2128
      7 N           6.3333   -3.0187   23.1170 N.ar    1  UNL1       -0.2479
      8 C           5.9824   -3.3534   21.6975 C.ar    1  UNL1        0.3373
      9 O           6.8877   -4.2347   20.8889 O.2     1  UNL1       -0.2461
     10 H           3.5777   -1.0125   23.8453 H       1  UNL1        0.1733
     11 C           4.8737   -0.9215   26.1535 C.ar    1  UNL1        0.0846
     12 C           4.9782    0.5702   26.0361 C.ar    1  UNL1        0.0223
     13 C           4.0729    1.4515   26.8447 C.ar    1  UNL1        0.0391
     14 C           3.0631    0.8410   27.7707 C.ar    1  UNL1        0.1473
     15 C           2.9586   -0.6507   27.8882 C.ar    1  UNL1        0.0391
     16 C           3.8638   -1.5320   27.0796 C.ar    1  UNL1        0.0223
     17 O           2.1578    1.7223   28.5794 O.3     1  UNL1       -0.4361
     18 C           0.9735    2.3765   27.9317 C.ar    1  UNL1        0.2297
     19 C           0.1376    1.6106   26.9495 C.ar    1  UNL1        0.0581
     20 C          -1.0467    2.2648   26.3018 C.ar    1  UNL1        0.0064
     21 C          -1.3951    3.6850   26.6364 C.ar    1  UNL1        0.0209
     22 C          -0.5593    4.4508   27.6186 C.ar    1  UNL1        0.1021
     23 N           0.6250    3.7966   28.2663 N.ar    1  UNL1       -0.2098
     24 C           4.3753   -3.1415   19.6672 C.3     1  UNL1        0.1205
     25 C           6.3377   -2.3799   18.1444 C.3     1  UNL1        0.0079
     26 C           4.8950   -2.2917   18.5457 C.3     1  UNL1        0.0594
     27 C           3.9722   -1.3538   17.8256 C.2     1  UNL1        0.0519
     28 O           3.9877   -1.2897   16.3271 O.co2   1  UNL1       -0.5491
     29 O           3.0339   -0.4798   18.6041 O.co2   1  UNL1       -0.5491
     30 C           7.5895   -3.5653   23.7278 C.3     1  UNL1        0.1401
     31 C           7.5525   -4.8565   24.4903 C.ar    1  UNL1        0.0007
     32 C           8.1604   -6.0941   23.8996 C.ar    1  UNL1       -0.0015
     33 C           8.1233   -7.3853   24.6622 C.ar    1  UNL1        0.0111
     34 C           7.4784   -7.4389   26.0153 C.ar    1  UNL1        0.0577
     35 CL          7.4413   -8.7301   26.7778 Cl      1  UNL1       -0.0822
     36 C           6.8704   -6.2014   26.6060 C.ar    1  UNL1        0.0111
     37 C           6.9075   -4.9102   25.8435 C.ar    1  UNL1       -0.0015
@<TRIPOS>UNITY_ATOM_ATTR
28 1
charge -1
@<TRIPOS>BOND
     1    26    25    1
     2    26    24    1
     3    24     1    1
     4     1     2   ar
     5     2     3    2
     6     2     4   ar
     7     4     5   ar
     8     5     6    2
     9     6    11    1
    10    11    12   ar
    11    12    13   ar
    12    13    14   ar
    13    14    17    1
    14    17    18    1
    15    18    19   ar
    16    19    20   ar
    17    20    21   ar
    18    21    22   ar
    19    22    23   ar
    20    14    15   ar
    21    15    16   ar
    22     5     7   ar
    23     7    30    1
    24    30    31    1
    25    31    32   ar
    26    32    33   ar
    27    33    34   ar
    28    34    35    1
    29    34    36   ar
    30    36    37   ar
    31     7     8   ar
    32     8     9    2
    33    26    27    1
    34    27    28   ar
    35    27    29   ar
    36     8     1   ar
    37    16    11   ar
    38    37    31   ar
    39    23    18   ar
    40     4    10    1
@<TRIPOS>MOLECULE
*****
 37 40 0 0 0
SMALL
GASTEIGER

@<TRIPOS>ATOM
      1 N           3.2154    1.0889   30.1938 N.ar    1  UNL1       -0.2340
      2 C           3.7052   -0.2342   29.6846 C.ar    1  UNL1        0.3338
      3 O           3.0491   -0.8694   28.4946 O.2     1  UNL1       -0.2463
      4 N           4.8511   -0.9222   30.3654 N.ar    1  UNL1       -0.2776
      5 C           5.5072   -0.2871   31.5554 C.ar    1  UNL1        0.2175
      6 N           6.6532   -0.9752   32.2362 N.2     1  UNL1       -0.2128
      7 N           5.0174    1.0360   32.0646 N.ar    1  UNL1       -0.2479
      8 C           3.8715    1.7240   31.3838 C.ar    1  UNL1        0.3373
      9 O           3.3817    3.0473   31.8931 O.2     1  UNL1       -0.2461
     10 H           5.1726   -1.7907   30.0312 H       1  UNL1        0.1733
     11 C           7.1430   -2.2983   31.7270 C.ar    1  UNL1        0.0846
     12 C           8.3375   -2.3580   30.8217 C.ar    1  UNL1        0.0223
     13 C           8.8273   -3.6812   30.3125 C.ar    1  UNL1        0.0391
     14 C           8.1226   -4.9447   30.7086 C.ar    1  UNL1        0.1473
     15 C           6.9281   -4.8850   31.6139 C.ar    1  UNL1        0.0391
     16 C           6.4382   -3.5619   32.1231 C.ar    1  UNL1        0.0223
     17 O           8.6124   -6.2679   30.1994 O.3     1  UNL1       -0.4361
     18 C           8.1900   -6.7530   28.8443 C.ar    1  UNL1        0.2297
     19 C           7.2292   -5.9441   28.0240 C.ar    1  UNL1        0.0581
     20 C           6.8068   -6.4292   26.6689 C.ar    1  UNL1        0.0064
     21 C           7.3452   -7.7232   26.1341 C.ar    1  UNL1        0.0209
     22 C           8.3058   -8.5320   26.9544 C.ar    1  UNL1        0.1021
     23 N           8.7283   -8.0469   28.3095 N.ar    1  UNL1       -0.2098
     24 C           2.0695    1.7770   29.5130 C.3     1  UNL1        0.1205
     25 C           0.1740    2.0909   31.2620 C.3     1  UNL1        0.0079
     26 C           0.6631    1.5171   29.9652 C.3     1  UNL1        0.0594
     27 C          -0.2543    0.6834   29.1206 C.2     1  UNL1        0.0519
     28 O          -0.0927    0.6669   27.6294 O.co2   1  UNL1       -0.5491
     29 O          -1.3333   -0.1337   29.7672 O.co2   1  UNL1       -0.5491
     30 C           5.6735    1.6712   33.2547 C.3     1  UNL1        0.1401
     31 C           5.0937    1.4755   34.6241 C.ar    1  UNL1        0.0007
     32 C           4.0182    2.3952   35.1216 C.ar    1  UNL1       -0.0015
     33 C           3.4383    2.1995   36.4911 C.ar    1  UNL1        0.0111
     34 C           3.9340    1.0842   37.3631 C.ar    1  UNL1        0.0577
     35 CL          3.3541    0.8886   38.7326 Cl      1  UNL1       -0.0822
     36 C           5.0095    0.1646   36.8657 C.ar    1  UNL1        0.0111
     37 C           5.5894    0.3602   35.4962 C.ar    1  UNL1       -0.0015
@<TRIPOS>UNITY_ATOM_ATTR
28 1
charge -1
@<TRIPOS>BOND
     1    26    25    1
     2    26    24    1
     3    24     1    1
     4     1     2   ar
     5     2     3    2
     6     2     4   ar
     7     4     5   ar
     8     5     6    2
     9     6    11    1
    10    11    12   ar
    11    12    13   ar
    12    13    14   ar
    13    14    17    1
    14    17    18    1
    15    18    19   ar
    16    19    20   ar
    17    20    21   ar
    18    21    22   ar
    19    22    23   ar
    20    14    15   ar
    21    15    16   ar
    22     5     7   ar
    23     7    30    1
    24    30    31    1
    25    31    32   ar
    26    32    33   ar
    27    33    34   ar
    28    34    35    1
    29    34    36   ar
    30    36    37   ar
    31     7     8   ar
    32     8     9    2
    33    26    27    1
    34    27    28   ar
    35    27    29   ar
    36     8     1   ar
    37    16    11   ar
    38    37    31   ar
    39    23    18   ar
    40     4    10    1
@<TRIPOS>MOLECULE
*****
 37 40 0 0 0
SMALL
GASTEIGER

@<TRIPOS>ATOM
      1 N           0.9169    2.5852   26.4256 N.ar    1  UNL1       -0.2340
      2 C           1.5719    1.7035   25.4040 C.ar    1  UNL1        0.3338
      3 O           2.4638    0.5804   25.8438 O.2     1  UNL1       -0.2463
      4 N           1.3351    1.9449   23.9426 N.ar    1  UNL1       -0.2776
      5 C           0.4433    3.0679   23.5028 C.ar    1  UNL1        0.2175
      6 N           0.2065    3.3093   22.0414 N.2     1  UNL1       -0.2128
      7 N          -0.2117    3.9496   24.5244 N.ar    1  UNL1       -0.2479
      8 C           0.0252    3.7082   25.9858 C.ar    1  UNL1        0.3373
      9 O          -0.6299    4.5899   27.0074 O.2     1  UNL1       -0.2461
     10 H           1.7650    1.3662   23.2721 H       1  UNL1        0.1733
     11 C           0.8614    2.4276   21.0198 C.ar    1  UNL1        0.0846
     12 C           0.1551    1.2003   20.5250 C.ar    1  UNL1        0.0223
     13 C           0.8102    0.3186   19.5034 C.ar    1  UNL1        0.0391
     14 C           2.1714    0.6643   18.9766 C.ar    1  UNL1        0.1473
     15 C           2.8777    1.8916   19.4715 C.ar    1  UNL1        0.0391
     16 C           2.2227    2.7732   20.4930 C.ar    1  UNL1        0.0223
     17 O           2.8264   -0.2174   17.9550 O.3     1  UNL1       -0.4361
     18 C           3.7347   -1.3275   18.3942 C.ar    1  UNL1        0.2297
     19 C           3.3702   -2.1699   19.5806 C.ar    1  UNL1        0.0581
     20 C           4.2784   -3.2799   20.0197 C.ar    1  UNL1        0.0064
     21 C           5.5513   -3.5475   19.2725 C.ar    1  UNL1        0.0209
     22 C           5.9158   -2.7051   18.0861 C.ar    1  UNL1        0.1021
     23 N           5.0075   -1.5951   17.6470 N.ar    1  UNL1       -0.2098
     24 C           1.1538    2.3438   27.8870 C.3     1  UNL1        0.1205
     25 C          -1.0380    0.9588   28.0546 C.3     1  UNL1        0.0079
     26 C           0.2702    1.3968   28.6436 C.3     1  UNL1        0.0594
     27 C           0.6948    0.8878   29.9892 C.2     1  UNL1        0.0519
     28 O           0.2895    1.6241   31.2316 O.co2   1  UNL1       -0.5491
     29 O           1.5246   -0.3575   30.0923 O.co2   1  UNL1       -0.5491
     30 C          -1.1035    5.0727   24.0846 C.3     1  UNL1        0.1401
     31 C          -2.5490    4.8085   23.7832 C.ar    1  UNL1        0.0007
     32 C          -3.2117    3.5716   24.3130 C.ar    1  UNL1       -0.0015
     33 C          -4.6572    3.3075   24.0115 C.ar    1  UNL1        0.0111
     34 C          -5.4399    4.2803   23.1803 C.ar    1  UNL1        0.0577
     35 CL         -6.8854    4.0162   22.8789 Cl      1  UNL1       -0.0822
     36 C          -4.7772    5.5173   22.6505 C.ar    1  UNL1        0.0111
     37 C          -3.3317    5.7814   22.9519 C.ar    1  UNL1       -0.0015
@<TRIPOS>UNITY_ATOM_ATTR
28 1
charge -1
@<TRIPOS>BOND
     1    26    25    1
     2    26    24    1
     3    24     1    1
     4     1     2   ar
     5     2     3    2
     6     2     4   ar
     7     4     5   ar
     8     5     6    2
     9     6    11    1
    10    11    12   ar
    11    12    13   ar
    12    13    14   ar
    13    14    17    1
    14    17    18    1
    15    18    19   ar
    16    19    20   ar
    17    20    21   ar
    18    21    22   ar
    19    22    23   ar
    20    14    15   ar
    21    15    16   ar
    22     5     7   ar
    23     7    30    1
    24    30    31    1
    25    31    32   ar
    26    32    33   ar
    27    33    34   ar
    28    34    35    1
    29    34    36   ar
    30    36    37   ar
    31     7     8   ar
    32     8     9    2
    33    26    27    1
    34    27    28   ar
    35    27    29   ar
    36     8     1   ar
    37    16    11   ar
    38    37    31   ar
    39    23    18   ar
    40     4    10    1
@<TRIPOS>MOLECULE
*****
 37 40 0 0 0
SMALL
GASTEIGER

@<TRIPOS>ATOM
      1 N           5.9298   -2.2248   29.9761 N.ar    1  UNL1       -0.2340
      2 C           5.0899   -1.6454   28.8767 C.ar    1  UNL1        0.3338
      3 O           5.4863   -1.8474   27.4441 O.2     1  UNL1       -0.2463
      4 N           3.8535   -0.8640   29.2096 N.ar    1  UNL1       -0.2776
      5 C           3.4571   -0.6620   30.6421 C.ar    1  UNL1        0.2175
      6 N           2.2207    0.1194   30.9751 N.2     1  UNL1       -0.2128
      7 N           4.2969   -1.2414   31.7415 N.ar    1  UNL1       -0.2479
      8 C           5.5333   -2.0228   31.4086 C.ar    1  UNL1        0.3373
      9 O           6.3732   -2.6022   32.5081 O.2     1  UNL1       -0.2461
     10 H           3.3023   -0.4838   28.4880 H       1  UNL1        0.1733
     11 C           1.3808    0.6987   29.8756 C.ar    1  UNL1        0.0846
     12 C           1.6561    2.0848   29.3725 C.ar    1  UNL1        0.0223
     13 C           0.8162    2.6641   28.2729 C.ar    1  UNL1        0.0391
     14 C          -0.2990    1.8575   27.6766 C.ar    1  UNL1        0.1473
     15 C          -0.5743    0.4714   28.1797 C.ar    1  UNL1        0.0391
     16 C           0.2656   -0.1079   29.2792 C.ar    1  UNL1        0.0223
     17 O          -1.1390    2.4368   26.5771 O.3     1  UNL1       -0.4361
     18 C          -0.6749    2.3494   25.1533 C.ar    1  UNL1        0.2297
     19 C           0.3505    1.3276   24.7601 C.ar    1  UNL1        0.0581
     20 C           0.8145    1.2401   23.3364 C.ar    1  UNL1        0.0064
     21 C           0.2531    2.1745   22.3059 C.ar    1  UNL1        0.0209
     22 C          -0.7722    3.1962   22.6991 C.ar    1  UNL1        0.1021
     23 N          -1.2363    3.2836   24.1228 N.ar    1  UNL1       -0.2098
     24 C           7.1661   -3.0062   29.6431 C.3     1  UNL1        0.1205
     25 C           6.4817   -5.2085   28.4467 C.3     1  UNL1        0.0079
     26 C           7.1193   -4.5050   29.6080 C.3     1  UNL1        0.0594
     27 C           7.7102   -5.3004   30.7342 C.2     1  UNL1        0.0519
     28 O           9.1855   -5.2441   30.9990 O.co2   1  UNL1       -0.5491
     29 O           6.8255   -6.1521   31.5957 O.co2   1  UNL1       -0.5491
     30 C           3.9005   -1.0394   33.1741 C.3     1  UNL1        0.1401
     31 C           4.7307   -0.1645   34.0658 C.ar    1  UNL1        0.0007
     32 C           4.9313   -0.5359   35.5052 C.ar    1  UNL1       -0.0015
     33 C           5.7615    0.3391   36.3969 C.ar    1  UNL1        0.0111
     34 C           6.3911    1.5855   35.8493 C.ar    1  UNL1        0.0577
     35 CL          7.2213    2.4604   36.7410 Cl      1  UNL1       -0.0822
     36 C           6.1905    1.9570   34.4099 C.ar    1  UNL1        0.0111
     37 C           5.3603    1.0821   33.5182 C.ar    1  UNL1       -0.0015
@<TRIPOS>UNITY_ATOM_ATTR
28 1
charge -1
@<TRIPOS>BOND
     1    26    25    1
     2    26    24    1
     3    24     1    1
     4     1     2   ar
     5     2     3    2
     6     2     4   ar
     7     4     5   ar
     8     5     6    2
     9     6    11    1
    10    11    12   ar
    11    12    13   ar
    12    13    14   ar
    13    14    17    1
    14    17    18    1
    15    18    19   ar
    16    19    20   ar
    17    20    21   ar
    18    21    22   ar
    19    22    23   ar
    20    14    15   ar
    21    15    16   ar
    22     5     7   ar
    23     7    30    1
    24    30    31    1
    25    31    32   ar
    26    32    33   ar
    27    33    34   ar
    28    34    35    1
    29    34    36   ar
    30    36    37   ar
    31     7     8   ar
    32     8     9    2
    33    26    27    1
    34    27    28   ar
    35    27    29   ar
    36     8     1   ar
    37    16    11   ar
    38    37    31   ar
    39    23    18   ar
    40     4    10    1
@<TRIPOS>MOLECULE
*****
 37 40 0 0 0
SMALL
GASTEIGER

@<TRIPOS>ATOM
      1 N           1.1323    0.9959   19.9638 N.ar    1  UNL1       -0.2340
      2 C           1.5092    0.3975   21.2866 C.ar    1  UNL1        0.3338
      3 O           2.2999   -0.8763   21.3355 O.2     1  UNL1       -0.2463
      4 N           1.0955    1.0727   22.5605 N.ar    1  UNL1       -0.2776
      5 C           0.3048    2.3465   22.5116 C.ar    1  UNL1        0.2175
      6 N          -0.1089    3.0217   23.7855 N.2     1  UNL1       -0.2128
      7 N          -0.0721    2.9449   21.1889 N.ar    1  UNL1       -0.2479
      8 C           0.3416    2.2696   19.9150 C.ar    1  UNL1        0.3373
      9 O          -0.0354    2.8682   18.5922 O.2     1  UNL1       -0.2461
     10 H           1.3429    0.6799   23.4287 H       1  UNL1        0.1733
     11 C           0.2680    2.4233   25.1083 C.ar    1  UNL1        0.0846
     12 C           1.6627    2.5874   25.6356 C.ar    1  UNL1        0.0223
     13 C           2.0396    1.9889   26.9584 C.ar    1  UNL1        0.0391
     14 C           1.0219    1.2263   27.7539 C.ar    1  UNL1        0.1473
     15 C          -0.3727    1.0623   27.2266 C.ar    1  UNL1        0.0391
     16 C          -0.7497    1.6607   25.9038 C.ar    1  UNL1        0.0223
     17 O           1.3988    0.6278   29.0767 O.3     1  UNL1       -0.4361
     18 C           1.3382    1.4621   30.3219 C.ar    1  UNL1        0.2297
     19 C           0.6095    2.7732   30.3114 C.ar    1  UNL1        0.0581
     20 C           0.5489    3.6074   31.5566 C.ar    1  UNL1        0.0064
     21 C           1.2168    3.1305   32.8122 C.ar    1  UNL1        0.0209
     22 C           1.9454    1.8194   32.8226 C.ar    1  UNL1        0.1021
     23 N           2.0061    0.9852   31.5774 N.ar    1  UNL1       -0.2098
     24 C           1.5460    0.3206   18.6899 C.3     1  UNL1        0.1205
     25 C           3.7090    1.7068   18.3023 C.3     1  UNL1        0.0079
     26 C           2.9697    0.4039   18.2251 C.3     1  UNL1        0.0594
     27 C           3.6542   -0.8158   17.6830 C.2     1  UNL1        0.0519
     28 O           3.8240   -0.9848   16.2023 O.co2   1  UNL1       -0.5491
     29 O           4.1689   -1.8665   18.6217 O.co2   1  UNL1       -0.5491
     30 C          -0.8628    4.2187   21.1400 C.3     1  UNL1        0.1401
     31 C          -2.3222    4.1828   20.7951 C.ar    1  UNL1        0.0007
     32 C          -3.2756    3.4004   21.6489 C.ar    1  UNL1       -0.0015
     33 C          -4.7350    3.3645   21.3040 C.ar    1  UNL1        0.0111
     34 C          -5.2409    4.1110   20.1054 C.ar    1  UNL1        0.0577
     35 CL         -6.7003    4.0751   19.7605 Cl      1  UNL1       -0.0822
     36 C          -4.2875    4.8934   19.2516 C.ar    1  UNL1        0.0111
     37 C          -2.8282    4.9293   19.5965 C.ar    1  UNL1       -0.0015
@<TRIPOS>UNITY_ATOM_ATTR
28 1
charge -1
@<TRIPOS>BOND
     1    26    25    1
     2    26    24    1
     3    24     1    1
     4     1     2   ar
     5     2     3    2
     6     2     4   ar
     7     4     5   ar
     8     5     6    2
     9     6    11    1
    10    11    12   ar
    11    12    13   ar
    12    13    14   ar
    13    14    17    1
    14    17    18    1
    15    18    19   ar
    16    19    20   ar
    17    20    21   ar
    18    21    22   ar
    19    22    23   ar
    20    14    15   ar
    21    15    16   ar
    22     5     7   ar
    23     7    30    1
    24    30    31    1
    25    31    32   ar
    26    32    33   ar
    27    33    34   ar
    28    34    35    1
    29    34    36   ar
    30    36    37   ar
    31     7     8   ar
    32     8     9    2
    33    26    27    1
    34    27    28   ar
    35    27    29   ar
    36     8     1   ar
    37    16    11   ar
    38    37    31   ar
    39    23    18   ar
    40     4    10    1
@<TRIPOS>MOLECULE
*****
 37 40 0 0 0
SMALL
GASTEIGER

@<TRIPOS>ATOM
      1 N          -3.2540    4.8701   22.8116 N.ar    1  UNL1       -0.2340
      2 C          -2.7942    4.1170   21.5985 C.ar    1  UNL1        0.3338
      3 O          -3.6756    4.0355   20.3875 O.2     1  UNL1       -0.2463
      4 N          -1.4529    3.4456   21.5964 N.ar    1  UNL1       -0.2776
      5 C          -0.5714    3.5271   22.8073 C.ar    1  UNL1        0.2175
      6 N           0.7699    2.8556   22.8052 N.2     1  UNL1       -0.2128
      7 N          -1.0313    4.2801   24.0204 N.ar    1  UNL1       -0.2479
      8 C          -2.3726    4.9516   24.0225 C.ar    1  UNL1        0.3373
      9 O          -2.8324    5.7047   25.2356 O.2     1  UNL1       -0.2461
     10 H          -1.1510    2.9513   20.8003 H       1  UNL1        0.1733
     11 C           1.2298    2.1026   21.5922 C.ar    1  UNL1        0.0846
     12 C           0.8305    0.6691   21.4033 C.ar    1  UNL1        0.0223
     13 C           1.2904   -0.0839   20.1902 C.ar    1  UNL1        0.0391
     14 C           2.1495    0.5966   19.1661 C.ar    1  UNL1        0.1473
     15 C           2.5488    2.0300   19.3550 C.ar    1  UNL1        0.0391
     16 C           2.0889    2.7831   20.5680 C.ar    1  UNL1        0.0223
     17 O           2.6094   -0.1565   17.9530 O.3     1  UNL1       -0.4361
     18 C           3.9411   -0.8468   17.9590 C.ar    1  UNL1        0.2297
     19 C           5.1791   -0.0915   17.5755 C.ar    1  UNL1        0.0581
     20 C           6.5108   -0.7818   17.5815 C.ar    1  UNL1        0.0064
     21 C           6.6046   -2.2274   17.9710 C.ar    1  UNL1        0.0209
     22 C           5.3666   -2.9825   18.3545 C.ar    1  UNL1        0.1021
     23 N           4.0349   -2.2922   18.3485 N.ar    1  UNL1       -0.2098
     24 C          -4.5953    5.5416   22.8137 C.3     1  UNL1        0.1205
     25 C          -6.7945    4.2605   22.2915 C.3     1  UNL1        0.0079
     26 C          -5.8072    4.7947   23.2865 C.3     1  UNL1        0.0594
     27 C          -6.0318    4.5821   24.7542 C.2     1  UNL1        0.0519
     28 O          -5.3328    3.4616   25.4653 O.co2   1  UNL1       -0.5491
     29 O          -6.9555    5.4900   25.5109 O.co2   1  UNL1       -0.5491
     30 C          -0.1498    4.3617   25.2314 C.3     1  UNL1        0.1401
     31 C          -0.0378    3.1875   26.1580 C.ar    1  UNL1        0.0007
     32 C          -1.2595    2.6581   26.8488 C.ar    1  UNL1       -0.0015
     33 C          -1.1475    1.4838   27.7755 C.ar    1  UNL1        0.0111
     34 C           0.1862    0.8390   28.0112 C.ar    1  UNL1        0.0577
     35 CL          0.2981   -0.3352   28.9378 Cl      1  UNL1       -0.0822
     36 C           1.4078    1.3684   27.3204 C.ar    1  UNL1        0.0111
     37 C           1.2959    2.5426   26.3938 C.ar    1  UNL1       -0.0015
@<TRIPOS>UNITY_ATOM_ATTR
28 1
charge -1
@<TRIPOS>BOND
     1    26    25    1
     2    26    24    1
     3    24     1    1
     4     1     2   ar
     5     2     3    2
     6     2     4   ar
     7     4     5   ar
     8     5     6    2
     9     6    11    1
    10    11    12   ar
    11    12    13   ar
    12    13    14   ar
    13    14    17    1
    14    17    18    1
    15    18    19   ar
    16    19    20   ar
    17    20    21   ar
    18    21    22   ar
    19    22    23   ar
    20    14    15   ar
    21    15    16   ar
    22     5     7   ar
    23     7    30    1
    24    30    31    1
    25    31    32   ar
    26    32    33   ar
    27    33    34   ar
    28    34    35    1
    29    34    36   ar
    30    36    37   ar
    31     7     8   ar
    32     8     9    2
    33    26    27    1
    34    27    28   ar
    35    27    29   ar
    36     8     1   ar
    37    16    11   ar
    38    37    31   ar
    39    23    18   ar
    40     4    10    1
@<TRIPOS>MOLECULE
*****
 37 40 0 0 0
SMALL
GASTEIGER

@<TRIPOS>ATOM
      1 N          -3.6480    5.0417   20.7508 N.ar    1  UNL1       -0.2340
      2 C          -3.0067    4.1629   19.7180 C.ar    1  UNL1        0.3338
      3 O          -3.7185    3.8788   18.4285 O.2     1  UNL1       -0.2463
      4 N          -1.6538    3.5683   19.9747 N.ar    1  UNL1       -0.2776
      5 C          -0.9421    3.8523   21.2642 C.ar    1  UNL1        0.2175
      6 N           0.4109    3.2577   21.5209 N.2     1  UNL1       -0.2128
      7 N          -1.5833    4.7311   22.2969 N.ar    1  UNL1       -0.2479
      8 C          -2.9362    5.3257   22.0402 C.ar    1  UNL1        0.3373
      9 O          -3.5775    6.2045   23.0730 O.2     1  UNL1       -0.2461
     10 H          -1.2329    2.9915   19.2969 H       1  UNL1        0.1733
     11 C           1.0521    2.3789   20.4882 C.ar    1  UNL1        0.0846
     12 C           2.0355    2.9594   19.5155 C.ar    1  UNL1        0.0223
     13 C           2.6767    2.0805   18.4827 C.ar    1  UNL1        0.0391
     14 C           2.3346    0.6213   18.4226 C.ar    1  UNL1        0.1473
     15 C           1.3512    0.0409   19.3953 C.ar    1  UNL1        0.0391
     16 C           0.7100    0.9197   20.4280 C.ar    1  UNL1        0.0223
     17 O           2.9758   -0.2575   17.3899 O.3     1  UNL1       -0.4361
     18 C           4.2963   -0.9094   17.6752 C.ar    1  UNL1        0.2297
     19 C           4.3463   -2.3452   18.1065 C.ar    1  UNL1        0.0581
     20 C           5.6668   -2.9971   18.3918 C.ar    1  UNL1        0.0064
     21 C           6.9373   -2.2131   18.2457 C.ar    1  UNL1        0.0209
     22 C           6.8873   -0.7773   17.8144 C.ar    1  UNL1        0.1021
     23 N           5.5668   -0.1255   17.5291 N.ar    1  UNL1       -0.2098
     24 C          -5.0009    5.6363   20.4941 C.3     1  UNL1        0.1205
     25 C          -7.0386    4.3523   19.5197 C.3     1  UNL1        0.0079
     26 C          -6.2351    4.8095   20.7011 C.3     1  UNL1        0.0594
     27 C          -6.6660    4.4397   22.0895 C.2     1  UNL1        0.0519
     28 O          -5.8567    3.4638   22.8910 O.co2   1  UNL1       -0.5491
     29 O          -7.9063    5.0459   22.6763 O.co2   1  UNL1       -0.5491
     30 C          -0.8716    5.0152   23.5864 C.3     1  UNL1        0.1401
     31 C          -0.9527    4.0357   24.7195 C.ar    1  UNL1        0.0007
     32 C           0.1603    3.0557   24.9449 C.ar    1  UNL1       -0.0015
     33 C           0.0791    2.0761   26.0780 C.ar    1  UNL1        0.0111
     34 C          -1.1151    2.0765   26.9857 C.ar    1  UNL1        0.0577
     35 CL         -1.1962    1.0970   28.1187 Cl      1  UNL1       -0.0822
     36 C          -2.2281    3.0565   26.7602 C.ar    1  UNL1        0.0111
     37 C          -2.1470    4.0360   25.6272 C.ar    1  UNL1       -0.0015
@<TRIPOS>UNITY_ATOM_ATTR
28 1
charge -1
@<TRIPOS>BOND
     1    26    25    1
     2    26    24    1
     3    24     1    1
     4     1     2   ar
     5     2     3    2
     6     2     4   ar
     7     4     5   ar
     8     5     6    2
     9     6    11    1
    10    11    12   ar
    11    12    13   ar
    12    13    14   ar
    13    14    17    1
    14    17    18    1
    15    18    19   ar
    16    19    20   ar
    17    20    21   ar
    18    21    22   ar
    19    22    23   ar
    20    14    15   ar
    21    15    16   ar
    22     5     7   ar
    23     7    30    1
    24    30    31    1
    25    31    32   ar
    26    32    33   ar
    27    33    34   ar
    28    34    35    1
    29    34    36   ar
    30    36    37   ar
    31     7     8   ar
    32     8     9    2
    33    26    27    1
    34    27    28   ar
    35    27    29   ar
    36     8     1   ar
    37    16    11   ar
    38    37    31   ar
    39    23    18   ar
    40     4    10    1
@<TRIPOS>MOLECULE
*****
 37 40 0 0 0
SMALL
GASTEIGER

@<TRIPOS>ATOM
      1 N           8.4949   -4.5731   25.7027 N.ar    1  UNL1       -0.2340
      2 C           7.8171   -4.1787   26.9813 C.ar    1  UNL1        0.3338
      3 O           8.1008   -4.9355   28.2450 O.2     1  UNL1       -0.2463
      4 N           6.8555   -3.0275   26.9964 N.ar    1  UNL1       -0.2776
      5 C           6.5717   -2.2707   25.7328 C.ar    1  UNL1        0.2175
      6 N           5.6102   -1.1196   25.7479 N.2     1  UNL1       -0.2128
      7 N           7.2495   -2.6651   24.4542 N.ar    1  UNL1       -0.2479
      8 C           8.2111   -3.8163   24.4391 C.ar    1  UNL1        0.3373
      9 O           8.8889   -4.2106   23.1603 O.2     1  UNL1       -0.2461
     10 H           6.4107   -2.7687   27.8357 H       1  UNL1        0.1733
     11 C           4.9324   -0.7252   27.0266 C.ar    1  UNL1        0.0846
     12 C           5.6295    0.1828   27.9959 C.ar    1  UNL1        0.0223
     13 C           4.9516    0.5772   29.2746 C.ar    1  UNL1        0.0391
     14 C           3.5767    0.0635   29.5840 C.ar    1  UNL1        0.1473
     15 C           2.8796   -0.8446   28.6147 C.ar    1  UNL1        0.0391
     16 C           3.5574   -1.2389   27.3360 C.ar    1  UNL1        0.0223
     17 O           2.8989    0.4579   30.8627 O.3     1  UNL1       -0.4361
     18 C           3.4587    0.0055   32.1788 C.ar    1  UNL1        0.2297
     19 C           3.7479    1.0091   33.2555 C.ar    1  UNL1        0.0581
     20 C           4.3077    0.5568   34.5716 C.ar    1  UNL1        0.0064
     21 C           4.5784   -0.8991   34.8109 C.ar    1  UNL1        0.0209
     22 C           4.2892   -1.9026   33.7341 C.ar    1  UNL1        0.1021
     23 N           3.7294   -1.4503   32.4181 N.ar    1  UNL1       -0.2098
     24 C           9.4564   -5.7242   25.6876 C.3     1  UNL1        0.1205
     25 C           8.8708   -7.6245   24.0155 C.3     1  UNL1        0.0079
     26 C           8.9583   -7.1141   25.4233 C.3     1  UNL1        0.0594
     27 C           8.5476   -7.9938   26.5668 C.2     1  UNL1        0.0519
     28 O           7.2297   -8.7090   26.5271 O.co2   1  UNL1       -0.5491
     29 O           9.4548   -8.1581   27.7500 O.co2   1  UNL1       -0.5491
     30 C           6.9658   -1.9083   23.1905 C.3     1  UNL1        0.1401
     31 C           6.0306   -2.4811   22.1672 C.ar    1  UNL1        0.0007
     32 C           5.0557   -3.5520   22.5581 C.ar    1  UNL1       -0.0015
     33 C           4.1205   -4.1248   21.5347 C.ar    1  UNL1        0.0111
     34 C           4.1601   -3.6267   20.1204 C.ar    1  UNL1        0.0577
     35 CL          3.2250   -4.1995   19.0971 Cl      1  UNL1       -0.0822
     36 C           5.1350   -2.5558   19.7294 C.ar    1  UNL1        0.0111
     37 C           6.0702   -1.9830   20.7528 C.ar    1  UNL1       -0.0015
@<TRIPOS>UNITY_ATOM_ATTR
28 1
charge -1
@<TRIPOS>BOND
     1    26    25    1
     2    26    24    1
     3    24     1    1
     4     1     2   ar
     5     2     3    2
     6     2     4   ar
     7     4     5   ar
     8     5     6    2
     9     6    11    1
    10    11    12   ar
    11    12    13   ar
    12    13    14   ar
    13    14    17    1
    14    17    18    1
    15    18    19   ar
    16    19    20   ar
    17    20    21   ar
    18    21    22   ar
    19    22    23   ar
    20    14    15   ar
    21    15    16   ar
    22     5     7   ar
    23     7    30    1
    24    30    31    1
    25    31    32   ar
    26    32    33   ar
    27    33    34   ar
    28    34    35    1
    29    34    36   ar
    30    36    37   ar
    31     7     8   ar
    32     8     9    2
    33    26    27    1
    34    27    28   ar
    35    27    29   ar
    36     8     1   ar
    37    16    11   ar
    38    37    31   ar
    39    23    18   ar
    40     4    10    1
