@<TRIPOS>MOLECULE
*****
 26 29 0 0 0
SMALL
GASTEIGER

@<TRIPOS>ATOM
      1 C          -7.7465  -16.5079   22.0978 C.3     1  UNL1        0.0991
      2 C          -8.5735  -16.3696   24.5569 C.ar    1  UNL1       -0.0027
      3 C          -8.3127  -16.0504   25.9991 C.ar    1  UNL1       -0.0003
      4 C          -6.9640  -15.5501   26.4245 C.ar    1  UNL1       -0.0000
      5 C          -5.8763  -15.3691   25.4077 C.ar    1  UNL1       -0.0003
      6 C          -6.1371  -15.6884   23.9655 C.ar    1  UNL1       -0.0029
      7 C          -7.4857  -16.1886   23.5401 C.ar    1  UNL1       -0.0061
      8 C         -12.6194  -17.8704   23.2807 C.ar    1  UNL1       -0.0000
      9 C         -12.0633  -16.6122   22.6827 C.ar    1  UNL1       -0.0000
     10 C         -10.7146  -16.1120   23.1081 C.ar    1  UNL1       -0.0000
     11 C          -9.9221  -16.8699   24.1315 C.ar    1  UNL1       -0.0003
     12 C         -10.4782  -18.1281   24.7296 C.ar    1  UNL1       -0.0000
     13 C         -11.8269  -18.6283   24.3042 C.ar    1  UNL1       -0.0000
     14 N          -7.6583  -17.9255   21.6157 N.3     1  UNL1       -0.2700
     15 C          -6.3182  -18.5767   21.4420 C.3     1  UNL1        0.0628
     16 C          -5.3613  -18.6427   22.5952 C.3     1  UNL1        0.0481
     17 C          -4.0213  -19.2938   22.4216 C.3     1  UNL1        0.1435
     18 O          -3.6381  -19.8789   21.0946 O.3     1  UNL1       -0.3537
     19 C          -4.5949  -19.8129   19.9413 C.3     1  UNL1        0.1435
     20 C          -5.9350  -19.1618   20.1150 C.3     1  UNL1        0.0481
     21 C          -8.9102  -18.6920   21.3071 C.3     1  UNL1        0.0748
     22 C          -9.8914  -18.3763   20.2173 C.3     1  UNL1        0.0344
     23 C         -10.9883  -19.3980   20.2709 C.3     1  UNL1        0.0700
     24 N         -10.6851  -20.3453   21.3937 N.3     1  UNL1       -0.2963
     25 C          -9.4007  -19.9089   22.0341 C.3     1  UNL1        0.0847
     26 H         -10.5859  -21.2930   21.0299 H       1  UNL1        0.1233
@<TRIPOS>BOND
     1     8     9   ar
     2     9    10   ar
     3    10    11   ar
     4    11     2    1
     5     2     3   ar
     6     3     4   ar
     7     4     5   ar
     8     5     6   ar
     9     6     7   ar
    10     7     1    1
    11     1    14    1
    12    14    15    1
    13    15    16    1
    14    16    17    1
    15    17    18    1
    16    18    19    1
    17    19    20    1
    18    21    14    1
    19    21    22    1
    20    22    23    1
    21    23    24    1
    22    24    25    1
    23    11    12   ar
    24    12    13   ar
    25    13     8   ar
    26     7     2   ar
    27    20    15    1
    28    25    21    1
    29    24    26    1
@<TRIPOS>MOLECULE
*****
 26 29 0 0 0
SMALL
GASTEIGER

@<TRIPOS>ATOM
      1 C          -7.6195  -16.6376   22.7236 C.3     1  UNL1        0.0991
      2 C          -6.9297  -19.0237   21.9614 C.ar    1  UNL1       -0.0027
      3 C          -5.8847  -20.0901   21.8178 C.ar    1  UNL1       -0.0003
      4 C          -4.4846  -19.8371   22.2928 C.ar    1  UNL1       -0.0000
      5 C          -4.1294  -18.5176   22.9114 C.ar    1  UNL1       -0.0003
      6 C          -5.1744  -17.4511   23.0549 C.ar    1  UNL1       -0.0029
      7 C          -6.5745  -17.7041   22.5800 C.ar    1  UNL1       -0.0061
      8 C         -11.1301  -19.7828   20.5365 C.ar    1  UNL1       -0.0000
      9 C         -10.6877  -20.2962   21.8747 C.ar    1  UNL1       -0.0000
     10 C          -9.2876  -20.0432   22.3496 C.ar    1  UNL1       -0.0000
     11 C          -8.3298  -19.2767   21.4864 C.ar    1  UNL1       -0.0003
     12 C          -8.7722  -18.7633   20.1483 C.ar    1  UNL1       -0.0000
     13 C         -10.1723  -19.0163   19.6733 C.ar    1  UNL1       -0.0000
     14 N          -8.4714  -16.5835   23.9570 N.3     1  UNL1       -0.2700
     15 C          -9.8768  -17.1065   23.9213 C.3     1  UNL1        0.0628
     16 C         -10.8671  -16.5304   22.9531 C.3     1  UNL1        0.0481
     17 C         -12.2725  -17.0533   22.9175 C.3     1  UNL1        0.1435
     18 O         -12.6876  -18.1525   23.8500 O.3     1  UNL1       -0.3537
     19 C         -11.6973  -18.7286   24.8182 C.3     1  UNL1        0.1435
     20 C         -10.2920  -18.2056   24.8538 C.3     1  UNL1        0.0481
     21 C          -7.9179  -16.0064   25.2261 C.3     1  UNL1        0.0748
     22 C          -8.5001  -16.1739   26.5983 C.3     1  UNL1        0.0344
     23 C          -7.6271  -15.4315   27.5661 C.3     1  UNL1        0.0700
     24 N          -6.5052  -14.8052   26.7920 N.3     1  UNL1       -0.2963
     25 C          -6.6849  -15.1605   25.3459 C.3     1  UNL1        0.0847
     26 H          -5.6110  -15.1630   27.1278 H       1  UNL1        0.1233
@<TRIPOS>BOND
     1     8     9   ar
     2     9    10   ar
     3    10    11   ar
     4    11     2    1
     5     2     3   ar
     6     3     4   ar
     7     4     5   ar
     8     5     6   ar
     9     6     7   ar
    10     7     1    1
    11     1    14    1
    12    14    15    1
    13    15    16    1
    14    16    17    1
    15    17    18    1
    16    18    19    1
    17    19    20    1
    18    21    14    1
    19    21    22    1
    20    22    23    1
    21    23    24    1
    22    24    25    1
    23    11    12   ar
    24    12    13   ar
    25    13     8   ar
    26     7     2   ar
    27    20    15    1
    28    25    21    1
    29    24    26    1
@<TRIPOS>MOLECULE
*****
 26 29 0 0 0
SMALL
GASTEIGER

@<TRIPOS>ATOM
      1 C          -8.3405  -18.8022   22.9234 C.3     1  UNL1        0.0991
      2 C          -7.5080  -19.5238   20.5704 C.ar    1  UNL1       -0.0027
      3 C          -7.8018  -19.9295   19.1566 C.ar    1  UNL1       -0.0003
      4 C          -9.2218  -20.0193   18.6817 C.ar    1  UNL1       -0.0000
      5 C         -10.3481  -19.7033   19.6207 C.ar    1  UNL1       -0.0003
      6 C         -10.0543  -19.2976   21.0345 C.ar    1  UNL1       -0.0029
      7 C          -8.6343  -19.2079   21.5094 C.ar    1  UNL1       -0.0061
      8 C          -3.2480  -19.2547   21.9951 C.ar    1  UNL1       -0.0000
      9 C          -4.3320  -18.5224   22.7290 C.ar    1  UNL1       -0.0000
     10 C          -5.7520  -18.6121   22.2542 C.ar    1  UNL1       -0.0000
     11 C          -6.0880  -19.4341   21.0453 C.ar    1  UNL1       -0.0003
     12 C          -5.0041  -20.1664   20.3114 C.ar    1  UNL1       -0.0000
     13 C          -3.5840  -20.0767   20.7863 C.ar    1  UNL1       -0.0000
     14 N          -9.0418  -17.6210   23.5258 N.3     1  UNL1       -0.2700
     15 C         -10.5403  -17.5531   23.5158 C.3     1  UNL1        0.0628
     16 C         -11.2376  -16.4905   22.7193 C.3     1  UNL1        0.0481
     17 C         -12.7360  -16.4227   22.7092 C.3     1  UNL1        0.1435
     18 O         -13.5371  -17.4175   23.4957 O.3     1  UNL1       -0.3537
     19 C         -12.8398  -18.4801   24.2922 C.3     1  UNL1        0.1435
     20 C         -11.3414  -18.5480   24.3022 C.3     1  UNL1        0.0481
     21 C          -8.2448  -16.5077   24.1383 C.3     1  UNL1        0.0748
     22 C          -8.1268  -16.2105   25.6039 C.3     1  UNL1        0.0344
     23 C          -7.2348  -15.0152   25.7642 C.3     1  UNL1        0.0700
     24 N          -6.8015  -14.5737   24.3977 N.3     1  UNL1       -0.2963
     25 C          -7.4257  -15.4960   23.3929 C.3     1  UNL1        0.0847
     26 H          -5.7851  -14.6195   24.3252 H       1  UNL1        0.1233
@<TRIPOS>BOND
     1     8     9   ar
     2     9    10   ar
     3    10    11   ar
     4    11     2    1
     5     2     3   ar
     6     3     4   ar
     7     4     5   ar
     8     5     6   ar
     9     6     7   ar
    10     7     1    1
    11     1    14    1
    12    14    15    1
    13    15    16    1
    14    16    17    1
    15    17    18    1
    16    18    19    1
    17    19    20    1
    18    21    14    1
    19    21    22    1
    20    22    23    1
    21    23    24    1
    22    24    25    1
    23    11    12   ar
    24    12    13   ar
    25    13     8   ar
    26     7     2   ar
    27    20    15    1
    28    25    21    1
    29    24    26    1
@<TRIPOS>MOLECULE
*****
 26 29 0 0 0
SMALL
GASTEIGER

@<TRIPOS>ATOM
      1 C          -8.0766  -17.1010   22.0639 C.3     1  UNL1        0.0991
      2 C          -7.7190  -19.1035   20.4476 C.ar    1  UNL1       -0.0027
      3 C          -8.2688  -20.0919   19.4624 C.ar    1  UNL1       -0.0003
      4 C          -9.7262  -20.0662   19.1081 C.ar    1  UNL1       -0.0000
      5 C         -10.6336  -19.0521   19.7391 C.ar    1  UNL1       -0.0003
      6 C         -10.0838  -18.0638   20.7243 C.ar    1  UNL1       -0.0029
      7 C          -8.6264  -18.0895   21.0786 C.ar    1  UNL1       -0.0061
      8 C          -3.3469  -19.1806   21.5104 C.ar    1  UNL1       -0.0000
      9 C          -4.3824  -19.3556   22.5815 C.ar    1  UNL1       -0.0000
     10 C          -5.8397  -19.3299   22.2272 C.ar    1  UNL1       -0.0000
     11 C          -6.2616  -19.1292   20.8019 C.ar    1  UNL1       -0.0003
     12 C          -5.2262  -18.9542   19.7308 C.ar    1  UNL1       -0.0000
     13 C          -3.7689  -18.9798   20.0851 C.ar    1  UNL1       -0.0000
     14 N          -8.4550  -17.1960   23.5122 N.3     1  UNL1       -0.2700
     15 C          -7.6520  -16.4647   24.5468 C.3     1  UNL1        0.0628
     16 C          -8.2453  -16.1823   25.8952 C.3     1  UNL1        0.0481
     17 C          -7.4423  -15.4510   26.9297 C.3     1  UNL1        0.1435
     18 O          -6.0459  -15.0020   26.6158 O.3     1  UNL1       -0.3537
     19 C          -5.4525  -15.2844   25.2674 C.3     1  UNL1        0.1435
     20 C          -6.2556  -16.0157   24.2329 C.3     1  UNL1        0.0481
     21 C          -9.6366  -18.0223   23.9260 C.3     1  UNL1        0.0748
     22 C         -11.0766  -17.6151   23.8235 C.3     1  UNL1        0.0344
     23 C         -11.9155  -18.7420   24.3491 C.3     1  UNL1        0.0700
     24 N         -10.9940  -19.8457   24.7765 N.3     1  UNL1       -0.2963
     25 C          -9.5855  -19.4009   24.5150 C.3     1  UNL1        0.0847
     26 H         -11.1949  -20.6909   24.2421 H       1  UNL1        0.1233
@<TRIPOS>BOND
     1     8     9   ar
     2     9    10   ar
     3    10    11   ar
     4    11     2    1
     5     2     3   ar
     6     3     4   ar
     7     4     5   ar
     8     5     6   ar
     9     6     7   ar
    10     7     1    1
    11     1    14    1
    12    14    15    1
    13    15    16    1
    14    16    17    1
    15    17    18    1
    16    18    19    1
    17    19    20    1
    18    21    14    1
    19    21    22    1
    20    22    23    1
    21    23    24    1
    22    24    25    1
    23    11    12   ar
    24    12    13   ar
    25    13     8   ar
    26     7     2   ar
    27    20    15    1
    28    25    21    1
    29    24    26    1
@<TRIPOS>MOLECULE
*****
 26 29 0 0 0
SMALL
GASTEIGER

@<TRIPOS>ATOM
      1 C          -7.2052  -16.8276   22.0297 C.3     1  UNL1        0.0991
      2 C          -8.7684  -16.0253   23.9437 C.ar    1  UNL1       -0.0027
      3 C          -8.9528  -15.5061   25.3388 C.ar    1  UNL1       -0.0003
      4 C          -7.7585  -15.2700   26.2152 C.ar    1  UNL1       -0.0000
      5 C          -6.3799  -15.5531   25.6964 C.ar    1  UNL1       -0.0003
      6 C          -6.1955  -16.0723   24.3013 C.ar    1  UNL1       -0.0029
      7 C          -7.3897  -16.3084   23.4249 C.ar    1  UNL1       -0.0061
      8 C         -12.3511  -16.7336   21.3145 C.ar    1  UNL1       -0.0000
      9 C         -11.1857  -15.9435   20.7973 C.ar    1  UNL1       -0.0000
     10 C          -9.9915  -15.7074   21.6737 C.ar    1  UNL1       -0.0000
     11 C          -9.9626  -16.2614   23.0673 C.ar    1  UNL1       -0.0003
     12 C         -11.1280  -17.0515   23.5845 C.ar    1  UNL1       -0.0000
     13 C         -12.3222  -17.2876   22.7081 C.ar    1  UNL1       -0.0000
     14 N          -7.2182  -18.3051   21.7715 N.3     1  UNL1       -0.2700
     15 C          -8.5079  -19.0677   21.8431 C.3     1  UNL1        0.0628
     16 C          -9.3921  -19.1610   20.6350 C.3     1  UNL1        0.0481
     17 C         -10.6818  -19.9236   20.7066 C.3     1  UNL1        0.1435
     18 O         -11.0873  -20.5929   21.9863 O.3     1  UNL1       -0.3537
     19 C         -10.2031  -20.4997   23.1943 C.3     1  UNL1        0.1435
     20 C          -8.9134  -19.7371   23.1227 C.3     1  UNL1        0.0481
     21 C          -5.9415  -19.0201   21.4417 C.3     1  UNL1        0.0748
     22 C          -5.7210  -19.9388   20.2766 C.3     1  UNL1        0.0344
     23 C          -4.3043  -20.4284   20.3339 C.3     1  UNL1        0.0700
     24 N          -3.6492  -19.8123   21.5344 N.3     1  UNL1       -0.2963
     25 C          -4.6610  -18.9419   22.2190 C.3     1  UNL1        0.0847
     26 H          -2.8500  -19.2499   21.2421 H       1  UNL1        0.1233
@<TRIPOS>BOND
     1     8     9   ar
     2     9    10   ar
     3    10    11   ar
     4    11     2    1
     5     2     3   ar
     6     3     4   ar
     7     4     5   ar
     8     5     6   ar
     9     6     7   ar
    10     7     1    1
    11     1    14    1
    12    14    15    1
    13    15    16    1
    14    16    17    1
    15    17    18    1
    16    18    19    1
    17    19    20    1
    18    21    14    1
    19    21    22    1
    20    22    23    1
    21    23    24    1
    22    24    25    1
    23    11    12   ar
    24    12    13   ar
    25    13     8   ar
    26     7     2   ar
    27    20    15    1
    28    25    21    1
    29    24    26    1
@<TRIPOS>MOLECULE
*****
 26 29 0 0 0
SMALL
GASTEIGER

@<TRIPOS>ATOM
      1 C          -7.8858  -17.5144   21.9745 C.3     1  UNL1        0.0991
      2 C          -5.5278  -17.5049   23.0653 C.ar    1  UNL1       -0.0027
      3 C          -4.5746  -16.9729   24.0940 C.ar    1  UNL1       -0.0003
      4 C          -5.0260  -15.9184   25.0606 C.ar    1  UNL1       -0.0000
      5 C          -6.4306  -15.3959   24.9985 C.ar    1  UNL1       -0.0003
      6 C          -7.3839  -15.9279   23.9698 C.ar    1  UNL1       -0.0029
      7 C          -6.9325  -16.9824   23.0032 C.ar    1  UNL1       -0.0061
      8 C          -4.1737  -20.6685   20.1656 C.ar    1  UNL1       -0.0000
      9 C          -3.2044  -19.6317   20.6511 C.ar    1  UNL1       -0.0000
     10 C          -3.6558  -18.5772   21.6177 C.ar    1  UNL1       -0.0000
     11 C          -5.0765  -18.5594   22.0988 C.ar    1  UNL1       -0.0003
     12 C          -6.0457  -19.5962   21.6133 C.ar    1  UNL1       -0.0000
     13 C          -5.5943  -20.6507   20.6467 C.ar    1  UNL1       -0.0000
     14 N          -9.2757  -17.9119   22.3745 N.3     1  UNL1       -0.2700
     15 C         -10.4591  -17.2808   21.7025 C.3     1  UNL1        0.0628
     16 C         -11.4972  -16.5728   22.5215 C.3     1  UNL1        0.0481
     17 C         -12.6805  -15.9417   21.8495 C.3     1  UNL1        0.1435
     18 O         -12.8256  -16.0187   20.3585 O.3     1  UNL1       -0.3537
     19 C         -11.7874  -16.7268   19.5395 C.3     1  UNL1        0.1435
     20 C         -10.6042  -17.3578   20.2115 C.3     1  UNL1        0.0481
     21 C          -9.4824  -18.9406   23.4464 C.3     1  UNL1        0.0748
     22 C          -9.1790  -20.4052   23.3332 C.3     1  UNL1        0.0344
     23 C          -9.5378  -21.0551   24.6366 C.3     1  UNL1        0.0700
     24 N         -10.0629  -19.9921   25.5555 N.3     1  UNL1       -0.2963
     25 C         -10.0287  -18.6853   24.8199 C.3     1  UNL1        0.0847
     26 H          -9.4781  -19.9354   26.3892 H       1  UNL1        0.1233
@<TRIPOS>BOND
     1     8     9   ar
     2     9    10   ar
     3    10    11   ar
     4    11     2    1
     5     2     3   ar
     6     3     4   ar
     7     4     5   ar
     8     5     6   ar
     9     6     7   ar
    10     7     1    1
    11     1    14    1
    12    14    15    1
    13    15    16    1
    14    16    17    1
    15    17    18    1
    16    18    19    1
    17    19    20    1
    18    21    14    1
    19    21    22    1
    20    22    23    1
    21    23    24    1
    22    24    25    1
    23    11    12   ar
    24    12    13   ar
    25    13     8   ar
    26     7     2   ar
    27    20    15    1
    28    25    21    1
    29    24    26    1
@<TRIPOS>MOLECULE
*****
 26 29 0 0 0
SMALL
GASTEIGER

@<TRIPOS>ATOM
      1 C         -13.3720   -5.0303   19.9259 C.3     1  UNL1        0.0991
      2 C         -11.4256   -4.1121   18.4704 C.ar    1  UNL1       -0.0027
      3 C         -10.6780   -2.9517   17.8834 C.ar    1  UNL1       -0.0003
      4 C         -11.1292   -1.5491   18.1649 C.ar    1  UNL1       -0.0000
      5 C         -12.3279   -1.3069   19.0334 C.ar    1  UNL1       -0.0003
      6 C         -13.0755   -2.4673   19.6204 C.ar    1  UNL1       -0.0029
      7 C         -12.6243   -3.8699   19.3389 C.ar    1  UNL1       -0.0061
      8 C         -10.0722   -8.3198   17.6259 C.ar    1  UNL1       -0.0000
      9 C          -9.5100   -7.5722   18.7985 C.ar    1  UNL1       -0.0000
     10 C          -9.9611   -6.1696   19.0800 C.ar    1  UNL1       -0.0000
     11 C         -10.9745   -5.5146   18.1889 C.ar    1  UNL1       -0.0003
     12 C         -11.5366   -6.2622   17.0163 C.ar    1  UNL1       -0.0000
     13 C         -11.0855   -7.6648   16.7348 C.ar    1  UNL1       -0.0000
     14 N         -14.6349   -5.5143   19.2772 N.3     1  UNL1       -0.2700
     15 C         -15.6032   -4.5289   18.6928 C.3     1  UNL1        0.0628
     16 C         -16.5863   -3.8263   19.5815 C.3     1  UNL1        0.0481
     17 C         -17.5546   -2.8410   18.9971 C.3     1  UNL1        0.1435
     18 O         -17.5398   -2.5583   17.5241 O.3     1  UNL1       -0.3537
     19 C         -16.5567   -3.2609   16.6354 C.3     1  UNL1        0.1435
     20 C         -15.5884   -4.2462   17.2198 C.3     1  UNL1        0.0481
     21 C         -14.9294   -6.9837   19.2128 C.3     1  UNL1        0.0748
     22 C         -16.2319   -7.6382   19.5667 C.3     1  UNL1        0.0344
     23 C         -16.0807   -9.1155   19.3558 C.3     1  UNL1        0.0700
     24 N         -14.6848   -9.3742   18.8715 N.3     1  UNL1       -0.2963
     25 C         -13.9733   -8.0566   18.7831 C.3     1  UNL1        0.0847
     26 H         -14.7134   -9.8144   17.9518 H       1  UNL1        0.1233
@<TRIPOS>BOND
     1     8     9   ar
     2     9    10   ar
     3    10    11   ar
     4    11     2    1
     5     2     3   ar
     6     3     4   ar
     7     4     5   ar
     8     5     6   ar
     9     6     7   ar
    10     7     1    1
    11     1    14    1
    12    14    15    1
    13    15    16    1
    14    16    17    1
    15    17    18    1
    16    18    19    1
    17    19    20    1
    18    21    14    1
    19    21    22    1
    20    22    23    1
    21    23    24    1
    22    24    25    1
    23    11    12   ar
    24    12    13   ar
    25    13     8   ar
    26     7     2   ar
    27    20    15    1
    28    25    21    1
    29    24    26    1
@<TRIPOS>MOLECULE
*****
 26 29 0 0 0
SMALL
GASTEIGER

@<TRIPOS>ATOM
      1 C          -7.7621  -18.6412   21.5370 C.3     1  UNL1        0.0991
      2 C         -10.2181  -18.6554   22.3845 C.ar    1  UNL1       -0.0027
      3 C         -11.2682  -19.1865   23.3146 C.ar    1  UNL1       -0.0003
      4 C         -10.9126  -20.2344   24.3273 C.ar    1  UNL1       -0.0000
      5 C          -9.5070  -20.7512   24.4098 C.ar    1  UNL1       -0.0003
      6 C          -8.4568  -20.2202   23.4798 C.ar    1  UNL1       -0.0029
      7 C          -8.8124  -19.1722   22.4671 C.ar    1  UNL1       -0.0061
      8 C         -11.2847  -15.5117   19.3466 C.ar    1  UNL1       -0.0000
      9 C         -10.5474  -15.1284   20.5953 C.ar    1  UNL1       -0.0000
     10 C         -10.1919  -16.1763   21.6080 C.ar    1  UNL1       -0.0000
     11 C         -10.5736  -17.6075   21.3719 C.ar    1  UNL1       -0.0003
     12 C         -11.3109  -17.9908   20.1231 C.ar    1  UNL1       -0.0000
     13 C         -11.6665  -16.9429   19.1105 C.ar    1  UNL1       -0.0000
     14 N          -6.4332  -18.2036   22.0778 N.3     1  UNL1       -0.2700
     15 C          -5.1834  -18.9275   21.6728 C.3     1  UNL1        0.0628
     16 C          -3.9674  -18.8724   22.5492 C.3     1  UNL1        0.0481
     17 C          -2.7177  -19.5964   22.1443 C.3     1  UNL1        0.1435
     18 O          -2.6840  -20.3754   20.8629 O.3     1  UNL1       -0.3537
     19 C          -3.9000  -20.4305   19.9864 C.3     1  UNL1        0.1435
     20 C          -5.1498  -19.7065   20.3914 C.3     1  UNL1        0.0481
     21 C          -6.3541  -17.0420   23.0236 C.3     1  UNL1        0.0748
     22 C          -7.5192  -16.3207   23.6337 C.3     1  UNL1        0.0344
     23 C          -6.9811  -15.2307   24.5125 C.3     1  UNL1        0.0700
     24 N          -5.4834  -15.2783   24.4455 N.3     1  UNL1       -0.2963
     25 C          -5.0959  -16.3977   23.5253 C.3     1  UNL1        0.0847
     26 H          -5.1005  -15.4466   25.3758 H       1  UNL1        0.1233
@<TRIPOS>BOND
     1     8     9   ar
     2     9    10   ar
     3    10    11   ar
     4    11     2    1
     5     2     3   ar
     6     3     4   ar
     7     4     5   ar
     8     5     6   ar
     9     6     7   ar
    10     7     1    1
    11     1    14    1
    12    14    15    1
    13    15    16    1
    14    16    17    1
    15    17    18    1
    16    18    19    1
    17    19    20    1
    18    21    14    1
    19    21    22    1
    20    22    23    1
    21    23    24    1
    22    24    25    1
    23    11    12   ar
    24    12    13   ar
    25    13     8   ar
    26     7     2   ar
    27    20    15    1
    28    25    21    1
    29    24    26    1
@<TRIPOS>MOLECULE
*****
 26 29 0 0 0
SMALL
GASTEIGER

@<TRIPOS>ATOM
      1 C         -13.2685   -5.2825   19.9059 C.3     1  UNL1        0.0991
      2 C         -15.7761   -5.2205   19.2291 C.ar    1  UNL1       -0.0027
      3 C         -17.0623   -4.4638   19.0774 C.ar    1  UNL1       -0.0003
      4 C         -17.1272   -3.0125   19.4509 C.ar    1  UNL1       -0.0000
      5 C         -15.9059   -2.3179   19.9760 C.ar    1  UNL1       -0.0003
      6 C         -14.6197   -3.0745   20.1276 C.ar    1  UNL1       -0.0029
      7 C         -14.5548   -4.5258   19.7542 C.ar    1  UNL1       -0.0061
      8 C         -15.5814   -9.5744   18.1087 C.ar    1  UNL1       -0.0000
      9 C         -16.1566   -9.1656   19.4323 C.ar    1  UNL1       -0.0000
     10 C         -16.2215   -7.7143   19.8058 C.ar    1  UNL1       -0.0000
     11 C         -15.7112   -6.6718   18.8556 C.ar    1  UNL1       -0.0003
     12 C         -15.1361   -7.0807   17.5320 C.ar    1  UNL1       -0.0000
     13 C         -15.0711   -8.5320   17.1586 C.ar    1  UNL1       -0.0000
     14 N         -12.1787   -5.1207   18.8880 N.3     1  UNL1       -0.2700
     15 C         -12.0588   -3.8411   18.1144 C.3     1  UNL1        0.0628
     16 C         -11.2712   -2.6953   18.6773 C.3     1  UNL1        0.0481
     17 C         -11.1514   -1.4158   17.9038 C.3     1  UNL1        0.1435
     18 O         -11.8192   -1.2820   16.5673 O.3     1  UNL1       -0.3537
     19 C         -12.6068   -2.4278   16.0044 C.3     1  UNL1        0.1435
     20 C         -12.7266   -3.7073   16.7780 C.3     1  UNL1        0.0481
     21 C         -11.2086   -6.2384   18.6437 C.3     1  UNL1        0.0748
     22 C          -9.7948   -6.3033   19.1405 C.3     1  UNL1        0.0344
     23 C          -9.1945   -7.5925   18.6635 C.3     1  UNL1        0.0700
     24 N         -10.2373   -8.3244   17.8718 N.3     1  UNL1       -0.2963
     25 C         -11.4821   -7.4876   17.8596 C.3     1  UNL1        0.0847
     26 H         -10.4312   -9.2269   18.3058 H       1  UNL1        0.1233
@<TRIPOS>BOND
     1     8     9   ar
     2     9    10   ar
     3    10    11   ar
     4    11     2    1
     5     2     3   ar
     6     3     4   ar
     7     4     5   ar
     8     5     6   ar
     9     6     7   ar
    10     7     1    1
    11     1    14    1
    12    14    15    1
    13    15    16    1
    14    16    17    1
    15    17    18    1
    16    18    19    1
    17    19    20    1
    18    21    14    1
    19    21    22    1
    20    22    23    1
    21    23    24    1
    22    24    25    1
    23    11    12   ar
    24    12    13   ar
    25    13     8   ar
    26     7     2   ar
    27    20    15    1
    28    25    21    1
    29    24    26    1
