@<TRIPOS>MOLECULE
*****
 33 35 0 0 0
SMALL
GASTEIGER

@<TRIPOS>ATOM
      1 C           3.6940   -0.7580   19.9188 C.ar    1  UNL1        0.1390
      2 C           4.7743   -1.7985   19.9358 C.ar    1  UNL1        0.0437
      3 C           5.0392   -2.5843   21.1858 C.ar    1  UNL1        0.0852
      4 C           4.2238   -2.3296   22.4187 C.ar    1  UNL1        0.1447
      5 F           4.4887   -3.1154   23.6687 F       1  UNL1       -0.2040
      6 C           3.1435   -1.2891   22.4017 C.ar    1  UNL1        0.0328
      7 C           2.8786   -0.5033   21.1518 C.ar    1  UNL1        0.0378
      8 C           1.7983    0.5372   21.1348 C.ar    1  UNL1        0.0232
      9 C           0.4560    0.2151   20.5478 C.ar    1  UNL1        0.1022
     10 N          -0.6243    1.2556   20.5308 N.ar    1  UNL1       -0.2091
     11 C          -0.3624    2.6182   21.1008 C.ar    1  UNL1        0.2404
     12 C           0.9798    2.9402   21.6878 C.ar    1  UNL1        0.1111
     13 CL          1.2418    4.3027   22.2578 Cl      1  UNL1       -0.0774
     14 C           2.0602    1.8997   21.7048 C.ar    1  UNL1        0.0178
     15 O          -1.4428    3.6586   21.0838 O.3     1  UNL1       -0.4330
     16 C          -2.5904    3.5640   22.0451 C.ar    1  UNL1        0.1767
     17 C          -2.3513    3.7269   23.5169 C.ar    1  UNL1        0.0695
     18 C          -3.4989    3.6323   24.4782 C.ar    1  UNL1        0.1433
     19 F          -3.2597    3.7952   25.9501 F       1  UNL1       -0.2041
     20 C          -4.8856    3.3747   23.9677 C.ar    1  UNL1        0.0322
     21 C          -5.1247    3.2118   22.4959 C.ar    1  UNL1        0.0351
     22 C          -3.9771    3.3064   21.5346 C.ar    1  UNL1        0.1746
     23 F          -4.2162    3.1435   20.0627 F       1  UNL1       -0.2009
     24 C           6.1196   -3.6248   21.2028 C.2     1  UNL1        0.2663
     25 O           6.1054   -4.7371   20.1966 O.2     1  UNL1       -0.2685
     26 N           7.2141   -3.5529   22.2260 N.am    1  UNL1       -0.1851
     27 H           7.2234   -2.8228   22.8863 H       1  UNL1        0.1765
     28 S           8.2944   -4.5933   22.2430 S.O2    1  UNL1        0.0581
     29 C           9.3747   -5.6339   22.2600 C.3     1  UNL1        0.1997
     30 O           7.4663   -5.4381   23.1652 O.2     1  UNL1       -0.1543
     31 O           9.1225   -3.7486   21.3207 O.2     1  UNL1       -0.1543
     32 C           3.6312   -0.6089   17.3258 C.3     1  UNL1        0.2525
     33 O           3.4292    0.0278   18.6689 O.3     1  UNL1       -0.4714
@<TRIPOS>BOND
     1    32    33    1
     2    33     1    1
     3     1     2   ar
     4     2     3   ar
     5     3    24    1
     6    24    25    2
     7    24    26   am
     8    26    28    1
     9    28    29    1
    10    28    30    2
    11    28    31    2
    12     3     4   ar
    13     4     5    1
    14     4     6   ar
    15     6     7   ar
    16     7     8    1
    17     8     9   ar
    18     9    10   ar
    19    10    11   ar
    20    11    15    1
    21    15    16    1
    22    16    17   ar
    23    17    18   ar
    24    18    19    1
    25    18    20   ar
    26    20    21   ar
    27    21    22   ar
    28    22    23    1
    29    11    12   ar
    30    12    13    1
    31    12    14   ar
    32     7     1   ar
    33    14     8   ar
    34    22    16   ar
    35    26    27    1
@<TRIPOS>MOLECULE
*****
 33 35 0 0 0
SMALL
GASTEIGER

@<TRIPOS>ATOM
      1 C           3.5128   -0.7833   19.6421 C.ar    1  UNL1        0.1390
      2 C           4.5621   -1.8539   19.6945 C.ar    1  UNL1        0.0437
      3 C           4.8600   -2.5494   20.9897 C.ar    1  UNL1        0.0852
      4 C           4.1086   -2.1743   22.2325 C.ar    1  UNL1        0.1447
      5 F           4.4065   -2.8698   23.5277 F       1  UNL1       -0.2040
      6 C           3.0593   -1.1037   22.1802 C.ar    1  UNL1        0.0328
      7 C           2.7614   -0.4082   20.8850 C.ar    1  UNL1        0.0378
      8 C           1.7120    0.6624   20.8327 C.ar    1  UNL1        0.0232
      9 C           0.2944    0.3072   20.4947 C.ar    1  UNL1        0.1022
     10 N          -0.7549    1.3778   20.4424 N.ar    1  UNL1       -0.2091
     11 C          -0.3867    2.8036   20.7280 C.ar    1  UNL1        0.2404
     12 C           1.0309    3.1588   21.0660 C.ar    1  UNL1        0.1111
     13 CL          1.3992    4.5845   21.3516 Cl      1  UNL1       -0.0774
     14 C           2.0803    2.0881   21.1183 C.ar    1  UNL1        0.0178
     15 O          -1.4360    3.8741   20.6757 O.3     1  UNL1       -0.4330
     16 C          -2.4879    3.8417   19.6068 C.ar    1  UNL1        0.1767
     17 C          -3.9126    3.5396   19.9655 C.ar    1  UNL1        0.0695
     18 C          -4.9645    3.5072   18.8966 C.ar    1  UNL1        0.1433
     19 F          -6.3893    3.2051   19.2554 F       1  UNL1       -0.2041
     20 C          -4.5916    3.7769   17.4690 C.ar    1  UNL1        0.0322
     21 C          -3.1668    4.0790   17.1103 C.ar    1  UNL1        0.0351
     22 C          -2.1150    4.1114   18.1792 C.ar    1  UNL1        0.1746
     23 F          -0.6901    4.4136   17.8204 F       1  UNL1       -0.2009
     24 C           5.9093   -3.6200   21.0420 C.2     1  UNL1        0.2663
     25 O           5.7993   -4.8222   20.1517 O.2     1  UNL1       -0.2685
     26 N           7.0687   -3.4884   21.9846 N.am    1  UNL1       -0.1851
     27 H           7.1409   -2.6994   22.5689 H       1  UNL1        0.1765
     28 S           8.1180   -4.5590   22.0369 S.O2    1  UNL1        0.0581
     29 C           9.1675   -5.6295   22.0893 C.3     1  UNL1        0.1997
     30 O           8.9090   -3.8350   20.9880 O.2     1  UNL1       -0.1543
     31 O           7.3271   -5.2829   23.0859 O.2     1  UNL1       -0.1543
     32 C           3.7026   -0.6701   17.0535 C.3     1  UNL1        0.2525
     33 O           3.2149   -0.0878   18.3469 O.3     1  UNL1       -0.4714
@<TRIPOS>BOND
     1    32    33    1
     2    33     1    1
     3     1     2   ar
     4     2     3   ar
     5     3    24    1
     6    24    25    2
     7    24    26   am
     8    26    28    1
     9    28    29    1
    10    28    30    2
    11    28    31    2
    12     3     4   ar
    13     4     5    1
    14     4     6   ar
    15     6     7   ar
    16     7     8    1
    17     8     9   ar
    18     9    10   ar
    19    10    11   ar
    20    11    15    1
    21    15    16    1
    22    16    17   ar
    23    17    18   ar
    24    18    19    1
    25    18    20   ar
    26    20    21   ar
    27    21    22   ar
    28    22    23    1
    29    11    12   ar
    30    12    13    1
    31    12    14   ar
    32     7     1   ar
    33    14     8   ar
    34    22    16   ar
    35    26    27    1
@<TRIPOS>MOLECULE
*****
 33 35 0 0 0
SMALL
GASTEIGER

@<TRIPOS>ATOM
      1 C           1.5793    0.6403   21.6202 C.ar    1  UNL1        0.1390
      2 C           0.4069    1.5739   21.6808 C.ar    1  UNL1        0.0437
      3 C          -0.1354    2.1798   20.4203 C.ar    1  UNL1        0.0852
      4 C           0.4947    1.8520   19.0992 C.ar    1  UNL1        0.1447
      5 F          -0.0475    2.4578   17.8387 F       1  UNL1       -0.2040
      6 C           1.6671    0.9183   19.0386 C.ar    1  UNL1        0.0328
      7 C           2.2094    0.3125   20.2991 C.ar    1  UNL1        0.0378
      8 C           3.3819   -0.6212   20.2384 C.ar    1  UNL1        0.0232
      9 C           4.7599   -0.1158   20.5475 C.ar    1  UNL1        0.1022
     10 N           5.9324   -1.0494   20.4868 N.ar    1  UNL1       -0.2091
     11 C           5.7268   -2.4885   20.1170 C.ar    1  UNL1        0.2404
     12 C           4.3488   -2.9940   19.8079 C.ar    1  UNL1        0.1111
     13 CL          4.1432   -4.4330   19.4381 Cl      1  UNL1       -0.0774
     14 C           3.1763   -2.0603   19.8686 C.ar    1  UNL1        0.0178
     15 O           6.8992   -3.4221   20.0564 O.3     1  UNL1       -0.4330
     16 C           7.4033   -4.0755   21.3090 C.ar    1  UNL1        0.1767
     17 C           6.5969   -3.9991   22.5715 C.ar    1  UNL1        0.0695
     18 C           7.1010   -4.6525   23.8241 C.ar    1  UNL1        0.1433
     19 F           6.2945   -4.5761   25.0866 F       1  UNL1       -0.2041
     20 C           8.4114   -5.3823   23.8142 C.ar    1  UNL1        0.0322
     21 C           9.2177   -5.4588   22.5517 C.ar    1  UNL1        0.0351
     22 C           8.7137   -4.8054   21.2991 C.ar    1  UNL1        0.1746
     23 F           9.5201   -4.8818   20.0366 F       1  UNL1       -0.2009
     24 C          -1.3078    3.1135   20.4810 C.2     1  UNL1        0.2663
     25 O          -1.0873    4.5969   20.4569 O.2     1  UNL1       -0.2685
     26 N          -2.7008    2.5636   20.5658 N.am    1  UNL1       -0.1851
     27 H          -2.8456    1.5899   20.5817 H       1  UNL1        0.1765
     28 S          -3.8733    3.4972   20.6265 S.O2    1  UNL1        0.0581
     29 C          -5.0458    4.4309   20.6872 C.3     1  UNL1        0.1997
     30 O          -3.8284    3.4561   22.1252 O.2     1  UNL1       -0.1543
     31 O          -3.9181    3.5383   19.1278 O.2     1  UNL1       -0.1543
     32 C           1.8630    0.6954   24.2021 C.3     1  UNL1        0.2525
     33 O           2.1216    0.0344   22.8807 O.3     1  UNL1       -0.4714
@<TRIPOS>BOND
     1    32    33    1
     2    33     1    1
     3     1     2   ar
     4     2     3   ar
     5     3    24    1
     6    24    25    2
     7    24    26   am
     8    26    28    1
     9    28    29    1
    10    28    30    2
    11    28    31    2
    12     3     4   ar
    13     4     5    1
    14     4     6   ar
    15     6     7   ar
    16     7     8    1
    17     8     9   ar
    18     9    10   ar
    19    10    11   ar
    20    11    15    1
    21    15    16    1
    22    16    17   ar
    23    17    18   ar
    24    18    19    1
    25    18    20   ar
    26    20    21   ar
    27    21    22   ar
    28    22    23    1
    29    11    12   ar
    30    12    13    1
    31    12    14   ar
    32     7     1   ar
    33    14     8   ar
    34    22    16   ar
    35    26    27    1
@<TRIPOS>MOLECULE
*****
 33 35 0 0 0
SMALL
GASTEIGER

@<TRIPOS>ATOM
      1 C           3.2846   -0.5236   19.6142 C.ar    1  UNL1        0.1390
      2 C           2.2221    0.4678   19.2425 C.ar    1  UNL1        0.0437
      3 C           1.3585    1.0763   20.3074 C.ar    1  UNL1        0.0852
      4 C           1.5575    0.6935   21.7439 C.ar    1  UNL1        0.1447
      5 F           0.6940    1.3021   22.8088 F       1  UNL1       -0.2040
      6 C           2.6200   -0.2979   22.1156 C.ar    1  UNL1        0.0328
      7 C           3.4835   -0.9064   21.0508 C.ar    1  UNL1        0.0378
      8 C           4.5461   -1.8979   21.4225 C.ar    1  UNL1        0.0232
      9 C           4.2656   -3.3684   21.3285 C.ar    1  UNL1        0.1022
     10 N           5.3281   -4.3598   21.7002 N.ar    1  UNL1       -0.2091
     11 C           6.6711   -3.8807   22.1660 C.ar    1  UNL1        0.2404
     12 C           6.9515   -2.4102   22.2601 C.ar    1  UNL1        0.1111
     13 CL          8.2944   -1.9311   22.7259 Cl      1  UNL1       -0.0774
     14 C           5.8890   -1.4188   21.8883 C.ar    1  UNL1        0.0178
     15 O           7.7335   -4.8722   22.5378 O.3     1  UNL1       -0.4330
     16 C           7.6606   -5.5924   23.8515 C.ar    1  UNL1        0.1767
     17 C           7.0281   -4.9268   25.0377 C.ar    1  UNL1        0.0695
     18 C           6.9552   -5.6471   26.3514 C.ar    1  UNL1        0.1433
     19 F           6.3227   -4.9814   27.5376 F       1  UNL1       -0.2041
     20 C           7.5149   -7.0329   26.4790 C.ar    1  UNL1        0.0322
     21 C           8.1474   -7.6984   25.2929 C.ar    1  UNL1        0.0351
     22 C           8.2203   -6.9782   23.9792 C.ar    1  UNL1        0.1746
     23 F           8.8528   -7.6438   22.7930 F       1  UNL1       -0.2009
     24 C           0.2960    2.0678   19.9356 C.2     1  UNL1        0.2663
     25 O          -1.0928    1.9191   20.4824 O.2     1  UNL1       -0.2685
     26 N           0.6224    3.2078   19.0170 N.am    1  UNL1       -0.1851
     27 H           1.5339    3.3053   18.6581 H       1  UNL1        0.1765
     28 S          -0.4401    4.1992   18.6452 S.O2    1  UNL1        0.0581
     29 C          -1.5026    5.1906   18.2734 C.3     1  UNL1        0.1997
     30 O          -0.7889    3.3742   17.4421 O.2     1  UNL1       -0.1543
     31 O          -0.0913    5.0242   19.8484 O.2     1  UNL1       -0.1543
     32 C           3.9155   -0.7886   17.1079 C.3     1  UNL1        0.2525
     33 O           4.1481   -1.1322   18.5493 O.3     1  UNL1       -0.4714
@<TRIPOS>BOND
     1    32    33    1
     2    33     1    1
     3     1     2   ar
     4     2     3   ar
     5     3    24    1
     6    24    25    2
     7    24    26   am
     8    26    28    1
     9    28    29    1
    10    28    30    2
    11    28    31    2
    12     3     4   ar
    13     4     5    1
    14     4     6   ar
    15     6     7   ar
    16     7     8    1
    17     8     9   ar
    18     9    10   ar
    19    10    11   ar
    20    11    15    1
    21    15    16    1
    22    16    17   ar
    23    17    18   ar
    24    18    19    1
    25    18    20   ar
    26    20    21   ar
    27    21    22   ar
    28    22    23    1
    29    11    12   ar
    30    12    13    1
    31    12    14   ar
    32     7     1   ar
    33    14     8   ar
    34    22    16   ar
    35    26    27    1
@<TRIPOS>MOLECULE
*****
 33 35 0 0 0
SMALL
GASTEIGER

@<TRIPOS>ATOM
      1 C           2.9102   -0.6115   21.3606 C.ar    1  UNL1        0.1390
      2 C           3.9148   -1.7134   21.5236 C.ar    1  UNL1        0.0437
      3 C           4.5503   -2.3338   20.3147 C.ar    1  UNL1        0.0852
      4 C           4.1811   -1.8523   18.9429 C.ar    1  UNL1        0.1447
      5 F           4.8166   -2.4727   17.7341 F       1  UNL1       -0.2040
      6 C           3.1765   -0.7504   18.7800 C.ar    1  UNL1        0.0328
      7 C           2.5411   -0.1300   19.9888 C.ar    1  UNL1        0.0378
      8 C           1.5364    0.9719   19.8258 C.ar    1  UNL1        0.0232
      9 C           0.2062    0.8817   20.5132 C.ar    1  UNL1        0.1022
     10 N          -0.7984    1.9836   20.3502 N.ar    1  UNL1       -0.2091
     11 C          -0.4729    3.1757   19.4999 C.ar    1  UNL1        0.2404
     12 C           0.8573    3.2659   18.8125 C.ar    1  UNL1        0.1111
     13 CL          1.1829    4.4579   17.9622 Cl      1  UNL1       -0.0774
     14 C           1.8620    2.1639   18.9755 C.ar    1  UNL1        0.0178
     15 O          -1.4775    4.2775   19.3369 O.3     1  UNL1       -0.4330
     16 C          -2.9441    3.9732   19.4172 C.ar    1  UNL1        0.1767
     17 C          -3.5975    3.7776   20.7531 C.ar    1  UNL1        0.0695
     18 C          -5.0641    3.4733   20.8334 C.ar    1  UNL1        0.1433
     19 F          -5.7174    3.2777   22.1694 F       1  UNL1       -0.2041
     20 C          -5.8773    3.3646   19.5777 C.ar    1  UNL1        0.0322
     21 C          -5.2240    3.5602   18.2418 C.ar    1  UNL1        0.0351
     22 C          -3.7573    3.8645   18.1615 C.ar    1  UNL1        0.1746
     23 F          -3.1040    4.0601   16.8254 F       1  UNL1       -0.2009
     24 C           5.5549   -3.4357   20.4777 C.2     1  UNL1        0.2663
     25 O           5.3218   -4.7658   19.8247 O.2     1  UNL1       -0.2685
     26 N           6.7926   -3.2075   21.2938 N.am    1  UNL1       -0.1851
     27 H           6.9456   -2.3345   21.7225 H       1  UNL1        0.1765
     28 S           7.7972   -4.3093   21.4569 S.O2    1  UNL1        0.0581
     29 C           8.8019   -5.4112   21.6199 C.3     1  UNL1        0.1997
     30 O           8.5738   -3.7739   20.2906 O.2     1  UNL1       -0.1543
     31 O           7.0207   -4.8448   22.6232 O.2     1  UNL1       -0.1543
     32 C           2.9889    1.0947   23.3183 C.3     1  UNL1        0.2525
     33 O           2.2747    0.0089   22.5695 O.3     1  UNL1       -0.4714
@<TRIPOS>BOND
     1    32    33    1
     2    33     1    1
     3     1     2   ar
     4     2     3   ar
     5     3    24    1
     6    24    25    2
     7    24    26   am
     8    26    28    1
     9    28    29    1
    10    28    30    2
    11    28    31    2
    12     3     4   ar
    13     4     5    1
    14     4     6   ar
    15     6     7   ar
    16     7     8    1
    17     8     9   ar
    18     9    10   ar
    19    10    11   ar
    20    11    15    1
    21    15    16    1
    22    16    17   ar
    23    17    18   ar
    24    18    19    1
    25    18    20   ar
    26    20    21   ar
    27    21    22   ar
    28    22    23    1
    29    11    12   ar
    30    12    13    1
    31    12    14   ar
    32     7     1   ar
    33    14     8   ar
    34    22    16   ar
    35    26    27    1
@<TRIPOS>MOLECULE
*****
 33 35 0 0 0
SMALL
GASTEIGER

@<TRIPOS>ATOM
      1 C           2.4591    0.1953   23.5118 C.ar    1  UNL1        0.1390
      2 C           3.1256   -0.7138   22.5223 C.ar    1  UNL1        0.0437
      3 C           2.5609   -0.8613   21.1405 C.ar    1  UNL1        0.0852
      4 C           1.3297   -0.0996   20.7482 C.ar    1  UNL1        0.1447
      5 F           0.7650   -0.2470   19.3664 F       1  UNL1       -0.2040
      6 C           0.6632    0.8095   21.7378 C.ar    1  UNL1        0.0328
      7 C           1.2279    0.9569   23.1196 C.ar    1  UNL1        0.0378
      8 C           0.5613    1.8661   24.1091 C.ar    1  UNL1        0.0232
      9 C           0.4812    3.3393   23.8385 C.ar    1  UNL1        0.1022
     10 N          -0.1854    4.2484   24.8280 N.ar    1  UNL1       -0.2091
     11 C          -0.7719    3.6844   26.0882 C.ar    1  UNL1        0.2404
     12 C          -0.6917    2.2112   26.3588 C.ar    1  UNL1        0.1111
     13 CL         -1.2782    1.6471   27.6189 Cl      1  UNL1       -0.0774
     14 C          -0.0251    1.3020   25.3692 C.ar    1  UNL1        0.0178
     15 O          -1.4384    4.5936   27.0776 O.3     1  UNL1       -0.4330
     16 C          -2.8837    4.9568   26.9072 C.ar    1  UNL1        0.1767
     17 C          -3.7552    4.1547   25.9868 C.ar    1  UNL1        0.0695
     18 C          -5.2005    4.5180   25.8164 C.ar    1  UNL1        0.1433
     19 F          -6.0720    3.7158   24.8959 F       1  UNL1       -0.2041
     20 C          -5.7744    5.6834   26.5663 C.ar    1  UNL1        0.0322
     21 C          -4.9030    6.4855   27.4867 C.ar    1  UNL1        0.0351
     22 C          -3.4576    6.1222   27.6571 C.ar    1  UNL1        0.1746
     23 F          -2.5862    6.9244   28.5776 F       1  UNL1       -0.2009
     24 C           3.2275   -1.7704   20.1509 C.2     1  UNL1        0.2663
     25 O           3.5596   -1.2688   18.7769 O.2     1  UNL1       -0.2685
     26 N           3.5620   -3.1812   20.5355 N.am    1  UNL1       -0.1851
     27 H           3.3441   -3.5104   21.4374 H       1  UNL1        0.1765
     28 S           4.2286   -4.0903   19.5460 S.O2    1  UNL1        0.0581
     29 C           4.8952   -4.9995   18.5565 C.3     1  UNL1        0.1997
     30 O           5.5722   -3.6262   20.0248 O.2     1  UNL1       -0.1543
     31 O           2.8850   -4.5544   19.0673 O.2     1  UNL1       -0.1543
     32 C           4.0865    1.3660   25.1643 C.3     1  UNL1        0.2525
     33 O           3.0238    0.3427   24.8936 O.3     1  UNL1       -0.4714
@<TRIPOS>BOND
     1    32    33    1
     2    33     1    1
     3     1     2   ar
     4     2     3   ar
     5     3    24    1
     6    24    25    2
     7    24    26   am
     8    26    28    1
     9    28    29    1
    10    28    30    2
    11    28    31    2
    12     3     4   ar
    13     4     5    1
    14     4     6   ar
    15     6     7   ar
    16     7     8    1
    17     8     9   ar
    18     9    10   ar
    19    10    11   ar
    20    11    15    1
    21    15    16    1
    22    16    17   ar
    23    17    18   ar
    24    18    19    1
    25    18    20   ar
    26    20    21   ar
    27    21    22   ar
    28    22    23    1
    29    11    12   ar
    30    12    13    1
    31    12    14   ar
    32     7     1   ar
    33    14     8   ar
    34    22    16   ar
    35    26    27    1
@<TRIPOS>MOLECULE
*****
 33 35 0 0 0
SMALL
GASTEIGER

@<TRIPOS>ATOM
      1 C          -1.1418    3.1115   22.2885 C.ar    1  UNL1        0.1390
      2 C          -2.3235    3.8069   22.8968 C.ar    1  UNL1        0.0437
      3 C          -3.4833    4.2081   22.0343 C.ar    1  UNL1        0.0852
      4 C          -3.4614    3.9139   20.5636 C.ar    1  UNL1        0.1447
      5 F          -4.6212    4.3151   19.7011 F       1  UNL1       -0.2040
      6 C          -2.2797    3.2185   19.9554 C.ar    1  UNL1        0.0328
      7 C          -1.1199    2.8173   20.8179 C.ar    1  UNL1        0.0378
      8 C           0.0619    2.1219   20.2096 C.ar    1  UNL1        0.0232
      9 C           0.1734    0.6279   20.2847 C.ar    1  UNL1        0.1022
     10 N           1.3550   -0.0675   19.6765 N.ar    1  UNL1       -0.2091
     11 C           2.4253    0.7310   18.9931 C.ar    1  UNL1        0.2404
     12 C           2.3138    2.2250   18.9179 C.ar    1  UNL1        0.1111
     13 CL          3.3839    3.0235   18.2346 Cl      1  UNL1       -0.0774
     14 C           1.1320    2.9204   19.5262 C.ar    1  UNL1        0.0178
     15 O           3.6069    0.0356   18.3848 O.3     1  UNL1       -0.4330
     16 C           4.1838   -1.1807   19.0466 C.ar    1  UNL1        0.1767
     17 C           4.1355   -2.5079   18.3493 C.ar    1  UNL1        0.0695
     18 C           4.7124   -3.7242   19.0110 C.ar    1  UNL1        0.1433
     19 F           4.6641   -5.0514   18.3136 F       1  UNL1       -0.2041
     20 C           5.3374   -3.6133   20.3700 C.ar    1  UNL1        0.0322
     21 C           5.3857   -2.2862   21.0673 C.ar    1  UNL1        0.0351
     22 C           4.8088   -1.0699   20.4056 C.ar    1  UNL1        0.1746
     23 F           4.8571    0.2573   21.1029 F       1  UNL1       -0.2009
     24 C          -4.6650    4.9035   22.6426 C.2     1  UNL1        0.2663
     25 O          -4.6510    6.3934   22.8160 O.2     1  UNL1       -0.2685
     26 N          -5.8607    4.1090   23.0774 N.am    1  UNL1       -0.1851
     27 H          -5.8699    3.1312   22.9636 H       1  UNL1        0.1765
     28 S          -7.0424    4.8044   23.6857 S.O2    1  UNL1        0.0581
     29 C          -8.2242    5.4998   24.2939 C.3     1  UNL1        0.1997
     30 O          -7.6575    4.9490   22.3253 O.2     1  UNL1       -0.1543
     31 O          -6.4273    4.6597   25.0461 O.2     1  UNL1       -0.1543
     32 C          -0.1154    2.7318   24.6449 C.3     1  UNL1        0.2525
     33 O           0.0181    2.7103   23.1510 O.3     1  UNL1       -0.4714
@<TRIPOS>BOND
     1    32    33    1
     2    33     1    1
     3     1     2   ar
     4     2     3   ar
     5     3    24    1
     6    24    25    2
     7    24    26   am
     8    26    28    1
     9    28    29    1
    10    28    30    2
    11    28    31    2
    12     3     4   ar
    13     4     5    1
    14     4     6   ar
    15     6     7   ar
    16     7     8    1
    17     8     9   ar
    18     9    10   ar
    19    10    11   ar
    20    11    15    1
    21    15    16    1
    22    16    17   ar
    23    17    18   ar
    24    18    19    1
    25    18    20   ar
    26    20    21   ar
    27    21    22   ar
    28    22    23    1
    29    11    12   ar
    30    12    13    1
    31    12    14   ar
    32     7     1   ar
    33    14     8   ar
    34    22    16   ar
    35    26    27    1
@<TRIPOS>MOLECULE
*****
 33 35 0 0 0
SMALL
GASTEIGER

@<TRIPOS>ATOM
      1 C           0.1286    2.2185   25.7669 C.ar    1  UNL1        0.1390
      2 C          -0.7029    2.7356   24.6306 C.ar    1  UNL1        0.0437
      3 C          -2.0861    3.2551   24.8891 C.ar    1  UNL1        0.0852
      4 C          -2.6378    3.2574   26.2839 C.ar    1  UNL1        0.1447
      5 F          -4.0211    3.7768   26.5425 F       1  UNL1       -0.2040
      6 C          -1.8064    2.7402   27.4202 C.ar    1  UNL1        0.0328
      7 C          -0.4231    2.2208   27.1617 C.ar    1  UNL1        0.0378
      8 C           0.4084    1.7036   28.2980 C.ar    1  UNL1        0.0232
      9 C           0.2123    0.3014   28.7933 C.ar    1  UNL1        0.1022
     10 N           1.0437   -0.2158   29.9296 N.ar    1  UNL1       -0.2091
     11 C           2.0713    0.6693   30.5707 C.ar    1  UNL1        0.2404
     12 C           2.2674    2.0715   30.0754 C.ar    1  UNL1        0.1111
     13 CL          3.2949    2.9565   30.7163 Cl      1  UNL1       -0.0774
     14 C           1.4359    2.5886   28.9390 C.ar    1  UNL1        0.0178
     15 O           2.9027    0.1521   31.7070 O.3     1  UNL1       -0.4330
     16 C           4.0257   -0.8057   31.4394 C.ar    1  UNL1        0.1767
     17 C           4.6547   -0.8627   30.0789 C.ar    1  UNL1        0.0695
     18 C           5.7778   -1.8204   29.8114 C.ar    1  UNL1        0.1433
     19 F           6.4068   -1.8773   28.4508 F       1  UNL1       -0.2041
     20 C           6.2717   -2.7211   30.9043 C.ar    1  UNL1        0.0322
     21 C           5.6427   -2.6641   32.2648 C.ar    1  UNL1        0.0351
     22 C           4.5197   -1.7064   32.5324 C.ar    1  UNL1        0.1746
     23 F           3.8907   -1.6494   33.8930 F       1  UNL1       -0.2009
     24 C          -2.9176    3.7722   23.7528 C.2     1  UNL1        0.2663
     25 O          -2.4244    4.9218   22.9250 O.2     1  UNL1       -0.2685
     26 N          -4.2423    3.1398   23.4442 N.am    1  UNL1       -0.1851
     27 H          -4.5660    2.3853   23.9875 H       1  UNL1        0.1765
     28 S          -5.0738    3.6569   22.3079 S.O2    1  UNL1        0.0581
     29 C          -5.9053    4.1740   21.1716 C.3     1  UNL1        0.1997
     30 O          -5.7491    4.6188   23.2399 O.2     1  UNL1       -0.1543
     31 O          -4.3984    2.6949   21.3760 O.2     1  UNL1       -0.1543
     32 C           2.5567    2.6048   24.9273 C.3     1  UNL1        0.2525
     33 O           1.5119    1.6990   25.5083 O.3     1  UNL1       -0.4714
@<TRIPOS>BOND
     1    32    33    1
     2    33     1    1
     3     1     2   ar
     4     2     3   ar
     5     3    24    1
     6    24    25    2
     7    24    26   am
     8    26    28    1
     9    28    29    1
    10    28    30    2
    11    28    31    2
    12     3     4   ar
    13     4     5    1
    14     4     6   ar
    15     6     7   ar
    16     7     8    1
    17     8     9   ar
    18     9    10   ar
    19    10    11   ar
    20    11    15    1
    21    15    16    1
    22    16    17   ar
    23    17    18   ar
    24    18    19    1
    25    18    20   ar
    26    20    21   ar
    27    21    22   ar
    28    22    23    1
    29    11    12   ar
    30    12    13    1
    31    12    14   ar
    32     7     1   ar
    33    14     8   ar
    34    22    16   ar
    35    26    27    1
@<TRIPOS>MOLECULE
*****
 33 35 0 0 0
SMALL
GASTEIGER

@<TRIPOS>ATOM
      1 C           3.7446    0.8649   20.2657 C.ar    1  UNL1        0.1390
      2 C           4.8503   -0.1474   20.2151 C.ar    1  UNL1        0.0437
      3 C           4.5346   -1.5906   19.9554 C.ar    1  UNL1        0.0852
      4 C           3.1131   -2.0215   19.7462 C.ar    1  UNL1        0.1447
      5 F           2.7974   -3.4647   19.4865 F       1  UNL1       -0.2040
      6 C           2.0074   -1.0092   19.7968 C.ar    1  UNL1        0.0328
      7 C           2.3231    0.4340   20.0566 C.ar    1  UNL1        0.0378
      8 C           1.2173    1.4463   20.1071 C.ar    1  UNL1        0.0232
      9 C           0.2420    1.4353   21.2467 C.ar    1  UNL1        0.1022
     10 N          -0.8638    2.4475   21.2973 N.ar    1  UNL1       -0.2091
     11 C          -0.9942    3.4709   20.2083 C.ar    1  UNL1        0.2404
     12 C          -0.0189    3.4819   19.0688 C.ar    1  UNL1        0.1111
     13 CL         -0.1493    4.5052   17.9799 Cl      1  UNL1       -0.0774
     14 C           1.0869    2.4696   19.0182 C.ar    1  UNL1        0.0178
     15 O          -2.1000    4.4831   20.2589 O.3     1  UNL1       -0.4330
     16 C          -3.4257    4.1779   19.6270 C.ar    1  UNL1        0.1767
     17 C          -3.6893    4.5794   18.2060 C.ar    1  UNL1        0.0695
     18 C          -5.0150    4.2742   17.5740 C.ar    1  UNL1        0.1433
     19 F          -5.2786    4.6757   16.1529 F       1  UNL1       -0.2041
     20 C          -6.0771    3.5676   18.3630 C.ar    1  UNL1        0.0322
     21 C          -5.8135    3.1661   19.7840 C.ar    1  UNL1        0.0351
     22 C          -4.4878    3.4713   20.4160 C.ar    1  UNL1        0.1746
     23 F          -4.2242    3.0698   21.8371 F       1  UNL1       -0.2009
     24 C           5.6404   -2.6029   19.9048 C.2     1  UNL1        0.2663
     25 O           5.7357   -3.5523   18.7475 O.2     1  UNL1       -0.2685
     26 N           6.6509   -2.6657   21.0116 N.am    1  UNL1       -0.1851
     27 H           6.5883   -2.0425   21.7712 H       1  UNL1        0.1765
     28 S           7.7566   -3.6780   20.9611 S.O2    1  UNL1        0.0581
     29 C           8.8624   -4.6903   20.9106 C.3     1  UNL1        0.1997
     30 O           6.9022   -4.6492   21.7205 O.2     1  UNL1       -0.1543
     31 O           8.6110   -2.7067   20.2017 O.2     1  UNL1       -0.1543
     32 C           4.1186    2.8215   21.9336 C.3     1  UNL1        0.2525
     33 O           4.0603    2.3081   20.5254 O.3     1  UNL1       -0.4714
@<TRIPOS>BOND
     1    32    33    1
     2    33     1    1
     3     1     2   ar
     4     2     3   ar
     5     3    24    1
     6    24    25    2
     7    24    26   am
     8    26    28    1
     9    28    29    1
    10    28    30    2
    11    28    31    2
    12     3     4   ar
    13     4     5    1
    14     4     6   ar
    15     6     7   ar
    16     7     8    1
    17     8     9   ar
    18     9    10   ar
    19    10    11   ar
    20    11    15    1
    21    15    16    1
    22    16    17   ar
    23    17    18   ar
    24    18    19    1
    25    18    20   ar
    26    20    21   ar
    27    21    22   ar
    28    22    23    1
    29    11    12   ar
    30    12    13    1
    31    12    14   ar
    32     7     1   ar
    33    14     8   ar
    34    22    16   ar
    35    26    27    1
