@<TRIPOS>MOLECULE
*****
 26 28 0 0 0
SMALL
GASTEIGER

@<TRIPOS>ATOM
      1 C          -4.2282  -19.0367   22.0132 C.ar    1  UNL1        0.0456
      2 C          -3.3199  -19.9752   21.2756 C.ar    1  UNL1        0.1325
      3 O          -1.8766  -20.0862   21.6689 O.3     1  UNL1       -0.5057
      4 C          -3.8548  -20.8029   20.1447 C.ar    1  UNL1        0.0366
      5 C          -5.2980  -20.6920   19.7514 C.ar    1  UNL1        0.0092
      6 C          -6.2063  -19.7535   20.4890 C.ar    1  UNL1        0.0742
      7 C          -5.6714  -18.9258   21.6199 C.ar    1  UNL1        0.1429
      8 O          -6.7974  -18.0938   22.1583 O.3     1  UNL1       -0.4544
      9 C          -8.0282  -18.4073   21.3603 C.3     1  UNL1        0.2829
     10 C          -7.6629  -19.4330   20.3286 C.2     1  UNL1        0.2352
     11 O          -8.4470  -20.1298   19.2563 O.2     1  UNL1       -0.2853
     12 C          -9.2590  -18.7207   20.5622 C.2     1  UNL1        0.1119
     13 CL         -9.5251  -19.6487   19.4142 Cl      1  UNL1       -0.0801
     14 C         -10.3850  -17.8887   21.1007 C.2     1  UNL1        0.1231
     15 CL        -11.7978  -17.8850   20.5968 Cl      1  UNL1       -0.0768
     16 C          -9.8501  -17.0610   22.2316 C.2     1  UNL1        0.2633
     17 O         -10.6341  -16.0844   23.0571 O.2     1  UNL1       -0.2689
     18 N          -8.3936  -17.3816   22.3920 N.am    1  UNL1       -0.2353
     19 C          -7.4653  -16.7816   23.4061 C.3     1  UNL1        0.1192
     20 H          -1.5424  -19.5692   22.3754 H       1  UNL1        0.2922
     21 C          -3.6933  -18.2091   23.1441 C.3     1  UNL1        0.0325
     22 C          -2.4888  -17.3404   22.9334 C.3     1  UNL1        0.0049
     23 C          -2.3766  -16.5013   21.6951 C.3     1  UNL1        0.0003
     24 C          -1.2193  -16.6947   20.7604 C.3     1  UNL1        0.0000
     25 C          -2.7366  -17.4535   18.7927 C.3     1  UNL1        0.0000
     26 C          -1.4058  -17.4611   19.4846 C.3     1  UNL1        0.0000
@<TRIPOS>BOND
     1    25    26    1
     2    26    24    1
     3    24    23    1
     4    23    22    1
     5    22    21    1
     6    21     1    1
     7     1     2   ar
     8     2     3    1
     9     2     4   ar
    10     4     5   ar
    11     5     6   ar
    12     6     7   ar
    13     7     8    1
    14     9     8    1
    15     9    10    1
    16    10    11    2
    17     9    12    1
    18    12    13    1
    19    12    14    2
    20    14    15    1
    21    14    16    1
    22    16    17    2
    23    16    18   am
    24    18    19    1
    25     7     1   ar
    26    18     9    1
    27    10     6    1
    28     3    20    1
@<TRIPOS>MOLECULE
*****
 26 28 0 0 0
SMALL
GASTEIGER

@<TRIPOS>ATOM
      1 C          -4.4168  -18.7920   22.2310 C.ar    1  UNL1        0.0456
      2 C          -3.3963  -19.5958   21.4812 C.ar    1  UNL1        0.1325
      3 O          -1.9642  -19.5937   21.9276 O.3     1  UNL1       -0.5057
      4 C          -3.8077  -20.4017   20.2849 C.ar    1  UNL1        0.0366
      5 C          -5.2397  -20.4038   19.8384 C.ar    1  UNL1        0.0092
      6 C          -6.2602  -19.6000   20.5883 C.ar    1  UNL1        0.0742
      7 C          -5.8488  -18.7941   21.7846 C.ar    1  UNL1        0.1429
      8 O          -7.0683  -18.1048   22.3209 O.3     1  UNL1       -0.4544
      9 C          -8.2335  -18.4847   21.4561 C.3     1  UNL1        0.2829
     10 C          -7.7341  -19.4088   20.3853 C.2     1  UNL1        0.2352
     11 O          -8.4082  -20.1116   19.2443 O.2     1  UNL1       -0.2853
     12 C          -9.3987  -18.8646   20.5912 C.2     1  UNL1        0.1119
     13 CL         -9.5325  -19.7441   19.3834 Cl      1  UNL1       -0.0801
     14 C         -10.6183  -18.1753   21.1275 C.2     1  UNL1        0.1231
     15 CL        -12.0057  -18.2746   20.5661 Cl      1  UNL1       -0.0768
     16 C         -10.2068  -17.3694   22.3238 C.2     1  UNL1        0.2633
     17 O         -11.1105  -16.5212   23.1687 O.2     1  UNL1       -0.2689
     18 N          -8.7330  -17.5606   22.5269 N.am    1  UNL1       -0.2353
     19 C          -7.9041  -16.9372   23.6105 C.3     1  UNL1        0.1192
     20 H          -1.7071  -19.0903   22.6749 H       1  UNL1        0.2922
     21 C          -4.0053  -17.9860   23.4274 C.3     1  UNL1        0.0325
     22 C          -3.9917  -16.4879   23.3538 C.3     1  UNL1        0.0049
     23 C          -4.9613  -15.6880   24.1725 C.3     1  UNL1        0.0003
     24 C          -5.0162  -15.8710   25.6604 C.3     1  UNL1        0.0000
     25 C          -7.0685  -15.8813   27.2534 C.3     1  UNL1        0.0000
     26 C          -6.0357  -15.1264   26.4704 C.3     1  UNL1        0.0000
@<TRIPOS>BOND
     1    25    26    1
     2    26    24    1
     3    24    23    1
     4    23    22    1
     5    22    21    1
     6    21     1    1
     7     1     2   ar
     8     2     3    1
     9     2     4   ar
    10     4     5   ar
    11     5     6   ar
    12     6     7   ar
    13     7     8    1
    14     9     8    1
    15     9    10    1
    16    10    11    2
    17     9    12    1
    18    12    13    1
    19    12    14    2
    20    14    15    1
    21    14    16    1
    22    16    17    2
    23    16    18   am
    24    18    19    1
    25     7     1   ar
    26    18     9    1
    27    10     6    1
    28     3    20    1
@<TRIPOS>MOLECULE
*****
 26 28 0 0 0
SMALL
GASTEIGER

@<TRIPOS>ATOM
      1 C          -9.6137  -17.2344   21.9520 C.ar    1  UNL1        0.0456
      2 C         -10.2275  -16.2492   22.9020 C.ar    1  UNL1        0.1325
      3 O         -11.6816  -15.8999   22.7845 O.3     1  UNL1       -0.5057
      4 C          -9.3873  -15.6133   23.9696 C.ar    1  UNL1        0.0366
      5 C          -7.9334  -15.9626   24.0872 C.ar    1  UNL1        0.0092
      6 C          -7.3196  -16.9478   23.1371 C.ar    1  UNL1        0.0742
      7 C          -8.1597  -17.5837   22.0695 C.ar    1  UNL1        0.1429
      8 O          -7.2839  -18.5129   21.2825 O.3     1  UNL1       -0.4544
      9 C          -5.9024  -18.4514   21.8637 C.3     1  UNL1        0.2829
     10 C          -5.9245  -17.4841   23.0099 C.2     1  UNL1        0.2352
     11 O          -4.8719  -17.0069   23.9662 O.2     1  UNL1       -0.2853
     12 C          -4.5210  -18.3898   22.4448 C.2     1  UNL1        0.1119
     13 CL         -3.9240  -17.6186   23.5845 Cl      1  UNL1       -0.0801
     14 C          -3.6451  -19.3191   21.6578 C.2     1  UNL1        0.1231
     15 CL         -2.1854  -19.5686   21.8965 Cl      1  UNL1       -0.0768
     16 C          -4.4853  -19.9550   20.5902 C.2     1  UNL1        0.2633
     17 O          -4.0133  -20.9521   19.5738 O.2     1  UNL1       -0.2689
     18 N          -5.8804  -19.4187   20.7174 N.am    1  UNL1       -0.2353
     19 C          -7.0484  -19.7854   19.8506 C.3     1  UNL1        0.1192
     20 H         -12.2064  -16.2971   22.1176 H       1  UNL1        0.2922
     21 C         -10.4539  -17.8703   20.8844 C.3     1  UNL1        0.0325
     22 C         -10.5898  -19.3629   20.8266 C.3     1  UNL1        0.0049
     23 C         -11.1642  -20.1095   21.9940 C.3     1  UNL1        0.0003
     24 C         -10.3820  -20.2250   23.2687 C.3     1  UNL1        0.0000
     25 C          -9.9415  -18.8723   25.4427 C.3     1  UNL1        0.0000
     26 C         -10.8922  -19.5793   24.5228 C.3     1  UNL1        0.0000
@<TRIPOS>BOND
     1    25    26    1
     2    26    24    1
     3    24    23    1
     4    23    22    1
     5    22    21    1
     6    21     1    1
     7     1     2   ar
     8     2     3    1
     9     2     4   ar
    10     4     5   ar
    11     5     6   ar
    12     6     7   ar
    13     7     8    1
    14     9     8    1
    15     9    10    1
    16    10    11    2
    17     9    12    1
    18    12    13    1
    19    12    14    2
    20    14    15    1
    21    14    16    1
    22    16    17    2
    23    16    18   am
    24    18    19    1
    25     7     1   ar
    26    18     9    1
    27    10     6    1
    28     3    20    1
@<TRIPOS>MOLECULE
*****
 26 28 0 0 0
SMALL
GASTEIGER

@<TRIPOS>ATOM
      1 C          -4.6332  -19.1311   21.7460 C.ar    1  UNL1        0.0456
      2 C          -3.3926  -18.7810   22.5129 C.ar    1  UNL1        0.1325
      3 O          -2.0981  -19.4719   22.2013 O.3     1  UNL1       -0.5057
      4 C          -3.4464  -17.7399   23.5915 C.ar    1  UNL1        0.0366
      5 C          -4.7407  -17.0489   23.9031 C.ar    1  UNL1        0.0092
      6 C          -5.9813  -17.3990   23.1361 C.ar    1  UNL1        0.0742
      7 C          -5.9276  -18.4401   22.0576 C.ar    1  UNL1        0.1429
      8 O          -7.3029  -18.5747   21.4743 O.3     1  UNL1       -0.4544
      9 C          -8.2067  -17.6168   22.1923 C.3     1  UNL1        0.2829
     10 C          -7.3899  -16.8902   23.2194 C.2     1  UNL1        0.2352
     11 O          -7.7220  -15.8307   24.2280 O.2     1  UNL1       -0.2853
     12 C          -9.1105  -16.6588   22.9103 C.2     1  UNL1        0.1119
     13 CL         -8.8841  -15.6744   24.0192 Cl      1  UNL1       -0.0801
     14 C         -10.4859  -16.7934   22.3270 C.2     1  UNL1        0.1231
     15 CL        -11.7016  -16.0222   22.7483 Cl      1  UNL1       -0.0768
     16 C         -10.4322  -17.8345   21.2484 C.2     1  UNL1        0.2633
     17 O         -11.5846  -18.2872   20.4018 O.2     1  UNL1       -0.2689
     18 N          -9.0236  -18.3433   21.1652 N.am    1  UNL1       -0.2353
     19 C          -8.5202  -19.3942   20.2207 C.3     1  UNL1        0.1192
     20 H          -2.0645  -20.1223   21.5276 H       1  UNL1        0.2922
     21 C          -4.5794  -20.1722   20.6674 C.3     1  UNL1        0.0325
     22 C          -3.7961  -19.9143   19.4145 C.3     1  UNL1        0.0049
     23 C          -3.4205  -18.5112   19.0402 C.3     1  UNL1        0.0003
     24 C          -1.9793  -18.1505   18.8327 C.3     1  UNL1        0.0000
     25 C           0.2064  -17.4495   20.0497 C.3     1  UNL1        0.0000
     26 C          -1.2697  -17.2901   19.8357 C.3     1  UNL1        0.0000
@<TRIPOS>BOND
     1    25    26    1
     2    26    24    1
     3    24    23    1
     4    23    22    1
     5    22    21    1
     6    21     1    1
     7     1     2   ar
     8     2     3    1
     9     2     4   ar
    10     4     5   ar
    11     5     6   ar
    12     6     7   ar
    13     7     8    1
    14     9     8    1
    15     9    10    1
    16    10    11    2
    17     9    12    1
    18    12    13    1
    19    12    14    2
    20    14    15    1
    21    14    16    1
    22    16    17    2
    23    16    18   am
    24    18    19    1
    25     7     1   ar
    26    18     9    1
    27    10     6    1
    28     3    20    1
@<TRIPOS>MOLECULE
*****
 26 28 0 0 0
SMALL
GASTEIGER

@<TRIPOS>ATOM
      1 C          -9.7982  -18.6158   23.0420 C.ar    1  UNL1        0.0456
      2 C         -10.8245  -17.6441   23.5443 C.ar    1  UNL1        0.1325
      3 O         -12.2725  -18.0342   23.5802 O.3     1  UNL1       -0.5057
      4 C         -10.4029  -16.2822   24.0108 C.ar    1  UNL1        0.0366
      5 C          -8.9550  -15.8921   23.9750 C.ar    1  UNL1        0.0092
      6 C          -7.9287  -16.8638   23.4726 C.ar    1  UNL1        0.0742
      7 C          -8.3503  -18.2256   23.0061 C.ar    1  UNL1        0.1429
      8 O          -7.1219  -18.9658   22.5664 O.3     1  UNL1       -0.4544
      9 C          -5.9412  -18.0614   22.7612 C.3     1  UNL1        0.2829
     10 C          -6.4398  -16.7623   23.3212 C.2     1  UNL1        0.2352
     11 O          -5.7534  -15.4894   23.7199 O.2     1  UNL1       -0.2853
     12 C          -4.7604  -17.1570   22.9559 C.2     1  UNL1        0.1119
     13 CL         -4.6192  -15.7560   23.4731 Cl      1  UNL1       -0.0801
     14 C          -3.5321  -17.8971   22.5162 C.2     1  UNL1        0.1231
     15 CL         -2.1286  -17.3682   22.5390 Cl      1  UNL1       -0.0768
     16 C          -3.9536  -19.2590   22.0497 C.2     1  UNL1        0.2633
     17 O          -3.0457  -20.3311   21.5241 O.2     1  UNL1       -0.2689
     18 N          -5.4425  -19.3605   22.2011 N.am    1  UNL1       -0.2353
     19 C          -6.2849  -20.5519   21.8535 C.3     1  UNL1        0.1192
     20 H         -12.5358  -18.8849   23.2888 H       1  UNL1        0.2922
     21 C         -10.2197  -19.9776   22.5755 C.3     1  UNL1        0.0325
     22 C         -11.0411  -20.1224   21.3288 C.3     1  UNL1        0.0049
     23 C         -10.4658  -19.7264   20.0013 C.3     1  UNL1        0.0003
     24 C         -10.3168  -18.2754   19.6513 C.3     1  UNL1        0.0000
     25 C         -11.1640  -15.9122   20.3200 C.3     1  UNL1        0.0000
     26 C         -11.4491  -17.3237   19.9003 C.3     1  UNL1        0.0000
@<TRIPOS>BOND
     1    25    26    1
     2    26    24    1
     3    24    23    1
     4    23    22    1
     5    22    21    1
     6    21     1    1
     7     1     2   ar
     8     2     3    1
     9     2     4   ar
    10     4     5   ar
    11     5     6   ar
    12     6     7   ar
    13     7     8    1
    14     9     8    1
    15     9    10    1
    16    10    11    2
    17     9    12    1
    18    12    13    1
    19    12    14    2
    20    14    15    1
    21    14    16    1
    22    16    17    2
    23    16    18   am
    24    18    19    1
    25     7     1   ar
    26    18     9    1
    27    10     6    1
    28     3    20    1
@<TRIPOS>MOLECULE
*****
 26 28 0 0 0
SMALL
GASTEIGER

@<TRIPOS>ATOM
      1 C          -8.2610  -16.5131   24.2952 C.ar    1  UNL1        0.0456
      2 C          -7.8455  -15.4451   25.2629 C.ar    1  UNL1        0.1325
      3 O          -8.8829  -14.7055   26.0548 O.3     1  UNL1       -0.5057
      4 C          -6.3925  -15.1165   25.4389 C.ar    1  UNL1        0.0366
      5 C          -5.3551  -15.8560   24.6472 C.ar    1  UNL1        0.0092
      6 C          -5.7707  -16.9240   23.6794 C.ar    1  UNL1        0.0742
      7 C          -7.2236  -17.2525   23.5034 C.ar    1  UNL1        0.1429
      8 O          -7.3311  -18.3466   22.4828 O.3     1  UNL1       -0.4544
      9 C          -5.9447  -18.6942   22.0281 C.3     1  UNL1        0.2829
     10 C          -4.9803  -17.8150   22.7676 C.2     1  UNL1        0.2352
     11 O          -3.4854  -17.6916   22.7465 O.2     1  UNL1       -0.2853
     12 C          -4.5582  -19.0418   21.5733 C.2     1  UNL1        0.1119
     13 CL         -3.2004  -18.5202   21.9399 Cl      1  UNL1       -0.0801
     14 C          -4.6657  -20.1358   20.5527 C.2     1  UNL1        0.1231
     15 CL         -3.5212  -20.7870   19.8343 Cl      1  UNL1       -0.0768
     16 C          -6.1186  -20.4644   20.3767 C.2     1  UNL1        0.2633
     17 O          -6.6822  -21.5017   19.4514 O.2     1  UNL1       -0.2689
     18 N          -6.9091  -19.5734   21.2885 N.am    1  UNL1       -0.2353
     19 C          -8.4019  -19.5634   21.4350 C.3     1  UNL1        0.1192
     20 H          -9.7905  -14.9107   25.9448 H       1  UNL1        0.2922
     21 C          -9.7140  -16.8416   24.1192 C.3     1  UNL1        0.0325
     22 C         -10.2237  -18.2052   24.4805 C.3     1  UNL1        0.0049
     23 C         -11.5953  -18.6320   24.0485 C.3     1  UNL1        0.0003
     24 C         -12.4817  -17.6727   23.3110 C.3     1  UNL1        0.0000
     25 C         -12.1960  -16.5750   20.9736 C.3     1  UNL1        0.0000
     26 C         -12.5920  -17.7504   21.8171 C.3     1  UNL1        0.0000
@<TRIPOS>BOND
     1    25    26    1
     2    26    24    1
     3    24    23    1
     4    23    22    1
     5    22    21    1
     6    21     1    1
     7     1     2   ar
     8     2     3    1
     9     2     4   ar
    10     4     5   ar
    11     5     6   ar
    12     6     7   ar
    13     7     8    1
    14     9     8    1
    15     9    10    1
    16    10    11    2
    17     9    12    1
    18    12    13    1
    19    12    14    2
    20    14    15    1
    21    14    16    1
    22    16    17    2
    23    16    18   am
    24    18    19    1
    25     7     1   ar
    26    18     9    1
    27    10     6    1
    28     3    20    1
@<TRIPOS>MOLECULE
*****
 26 28 0 0 0
SMALL
GASTEIGER

@<TRIPOS>ATOM
      1 C          -8.0903  -16.6362   23.5491 C.ar    1  UNL1        0.0456
      2 C          -8.1634  -15.5376   24.5677 C.ar    1  UNL1        0.1325
      3 O          -9.4957  -14.9882   24.9841 O.3     1  UNL1       -0.5057
      4 C          -6.9043  -14.9882   25.1700 C.ar    1  UNL1        0.0366
      5 C          -5.5720  -15.5375   24.7537 C.ar    1  UNL1        0.0092
      6 C          -5.4989  -16.6362   23.7351 C.ar    1  UNL1        0.0742
      7 C          -6.7581  -17.1855   23.1328 C.ar    1  UNL1        0.1429
      8 O          -6.3755  -18.2602   22.1588 O.3     1  UNL1       -0.4544
      9 C          -4.8799  -18.3750   22.1591 C.3     1  UNL1        0.2829
     10 C          -4.3382  -17.3713   23.1333 C.2     1  UNL1        0.2352
     11 O          -2.9473  -17.0136   23.5665 O.2     1  UNL1       -0.2853
     12 C          -3.3843  -18.4899   22.1594 C.2     1  UNL1        0.1119
     13 CL         -2.3030  -17.7690   22.9087 Cl      1  UNL1       -0.0801
     14 C          -3.0017  -19.5645   21.1853 C.2     1  UNL1        0.1231
     15 CL         -1.6051  -20.0113   20.8691 Cl      1  UNL1       -0.0768
     16 C          -4.2608  -20.1139   20.5830 C.2     1  UNL1        0.2633
     17 O          -4.3445  -21.2065   19.5588 O.2     1  UNL1       -0.2689
     18 N          -5.4216  -19.3787   21.1849 N.am    1  UNL1       -0.2353
     19 C          -6.8699  -19.6072   20.8680 C.3     1  UNL1        0.1192
     20 H         -10.2823  -15.3314   24.6079 H       1  UNL1        0.2922
     21 C          -9.3495  -17.1856   22.9469 C.3     1  UNL1        0.0325
     22 C          -9.7426  -18.6106   23.2007 C.3     1  UNL1        0.0049
     23 C         -11.0166  -19.1516   22.6224 C.3     1  UNL1        0.0003
     24 C         -10.9902  -19.9100   21.3285 C.3     1  UNL1        0.0000
     25 C         -11.1071  -17.8667   19.7282 C.3     1  UNL1        0.0000
     26 C         -10.5630  -19.2232   20.0652 C.3     1  UNL1        0.0000
@<TRIPOS>BOND
     1    25    26    1
     2    26    24    1
     3    24    23    1
     4    23    22    1
     5    22    21    1
     6    21     1    1
     7     1     2   ar
     8     2     3    1
     9     2     4   ar
    10     4     5   ar
    11     5     6   ar
    12     6     7   ar
    13     7     8    1
    14     9     8    1
    15     9    10    1
    16    10    11    2
    17     9    12    1
    18    12    13    1
    19    12    14    2
    20    14    15    1
    21    14    16    1
    22    16    17    2
    23    16    18   am
    24    18    19    1
    25     7     1   ar
    26    18     9    1
    27    10     6    1
    28     3    20    1
@<TRIPOS>MOLECULE
*****
 26 28 0 0 0
SMALL
GASTEIGER

@<TRIPOS>ATOM
      1 C         -12.2667   -4.2470   19.3100 C.ar    1  UNL1        0.0456
      2 C         -10.8431   -4.5896   18.9846 C.ar    1  UNL1        0.1325
      3 O          -9.7817   -3.5322   19.0578 O.3     1  UNL1       -0.5057
      4 C         -10.4809   -5.9896   18.5861 C.ar    1  UNL1        0.0366
      5 C         -11.5422   -7.0470   18.5130 C.ar    1  UNL1        0.0092
      6 C         -12.9658   -6.7044   18.8384 C.ar    1  UNL1        0.0742
      7 C         -13.3281   -5.3044   19.2369 C.ar    1  UNL1        0.1429
      8 O         -14.8046   -5.2643   19.4985 O.3     1  UNL1       -0.4544
      9 C         -15.3548   -6.6395   19.2617 C.3     1  UNL1        0.2829
     10 C         -14.2184   -7.5295   18.8537 C.2     1  UNL1        0.2352
     11 O         -14.1366   -8.9826   18.4903 O.2     1  UNL1       -0.2853
     12 C         -15.9051   -8.0147   19.0249 C.2     1  UNL1        0.1119
     13 CL        -15.2757   -9.3102   18.6059 Cl      1  UNL1       -0.0801
     14 C         -17.3816   -7.9746   19.2866 C.2     1  UNL1        0.1231
     15 CL        -18.3293   -9.1314   19.1701 Cl      1  UNL1       -0.0768
     16 C         -17.7438   -6.5746   19.6851 C.2     1  UNL1        0.2633
     17 O         -19.1175   -6.0856   20.0372 O.2     1  UNL1       -0.2689
     18 N         -16.4912   -5.7495   19.6697 N.am    1  UNL1       -0.2353
     19 C         -16.3924   -4.2905   20.0038 C.3     1  UNL1        0.1192
     20 H         -10.0080   -2.6577   19.3067 H       1  UNL1        0.2922
     21 C         -12.6290   -2.8470   19.7085 C.3     1  UNL1        0.0325
     22 C         -12.6789   -1.7619   18.6742 C.3     1  UNL1        0.0049
     23 C         -13.8247   -0.7941   18.6572 C.3     1  UNL1        0.0003
     24 C         -15.2009   -1.2542   19.0375 C.3     1  UNL1        0.0000
     25 C         -17.4630   -0.5266   20.0879 C.3     1  UNL1        0.0000
     26 C         -15.9632   -0.5333   20.1095 C.3     1  UNL1        0.0000
@<TRIPOS>BOND
     1    25    26    1
     2    26    24    1
     3    24    23    1
     4    23    22    1
     5    22    21    1
     6    21     1    1
     7     1     2   ar
     8     2     3    1
     9     2     4   ar
    10     4     5   ar
    11     5     6   ar
    12     6     7   ar
    13     7     8    1
    14     9     8    1
    15     9    10    1
    16    10    11    2
    17     9    12    1
    18    12    13    1
    19    12    14    2
    20    14    15    1
    21    14    16    1
    22    16    17    2
    23    16    18   am
    24    18    19    1
    25     7     1   ar
    26    18     9    1
    27    10     6    1
    28     3    20    1
@<TRIPOS>MOLECULE
*****
 26 28 0 0 0
SMALL
GASTEIGER

@<TRIPOS>ATOM
      1 C         -13.0795   -4.9025   19.3588 C.ar    1  UNL1        0.0456
      2 C         -13.0152   -3.4259   19.6143 C.ar    1  UNL1        0.1325
      3 O         -11.6895   -2.7242   19.6285 O.3     1  UNL1       -0.5057
      4 C         -14.2767   -2.6509   19.8555 C.ar    1  UNL1        0.0366
      5 C         -15.6023   -3.3525   19.8413 C.ar    1  UNL1        0.0092
      6 C         -15.6666   -4.8292   19.5858 C.ar    1  UNL1        0.0742
      7 C         -14.4052   -5.6042   19.3445 C.ar    1  UNL1        0.1429
      8 O         -14.7786   -7.0398   19.1218 O.3     1  UNL1       -0.4544
      9 C         -16.2708   -7.1521   19.2255 C.3     1  UNL1        0.2829
     10 C         -16.8196   -5.7858   19.5122 C.2     1  UNL1        0.2352
     11 O         -18.2110   -5.2650   19.7193 O.2     1  UNL1       -0.2853
     12 C         -17.7630   -7.2643   19.3291 C.2     1  UNL1        0.1119
     13 CL        -18.8482   -6.2636   19.5956 Cl      1  UNL1       -0.0801
     14 C         -18.1364   -8.6999   19.1064 C.2     1  UNL1        0.1231
     15 CL        -19.5271   -9.2619   19.1222 Cl      1  UNL1       -0.0768
     16 C         -16.8750   -9.4750   18.8651 C.2     1  UNL1        0.2633
     17 O         -16.7828  -10.9480   18.5973 O.2     1  UNL1       -0.2689
     18 N         -15.7220   -8.5183   18.9387 N.am    1  UNL1       -0.2353
     19 C         -14.2744   -8.8668   18.7574 C.3     1  UNL1        0.1192
     20 H         -10.9015   -3.2083   19.4778 H       1  UNL1        0.2922
     21 C         -11.8181   -5.6775   19.1175 C.3     1  UNL1        0.0325
     22 C         -11.5939   -6.3532   17.7972 C.3     1  UNL1        0.0049
     23 C         -10.7220   -5.7064   16.7622 C.3     1  UNL1        0.0003
     24 C          -9.5532   -4.8664   17.1847 C.3     1  UNL1        0.0000
     25 C          -9.8764   -2.4360   16.3253 C.3     1  UNL1        0.0000
     26 C          -9.1033   -3.7214   16.3265 C.3     1  UNL1        0.0000
@<TRIPOS>BOND
     1    25    26    1
     2    26    24    1
     3    24    23    1
     4    23    22    1
     5    22    21    1
     6    21     1    1
     7     1     2   ar
     8     2     3    1
     9     2     4   ar
    10     4     5   ar
    11     5     6   ar
    12     6     7   ar
    13     7     8    1
    14     9     8    1
    15     9    10    1
    16    10    11    2
    17     9    12    1
    18    12    13    1
    19    12    14    2
    20    14    15    1
    21    14    16    1
    22    16    17    2
    23    16    18   am
    24    18    19    1
    25     7     1   ar
    26    18     9    1
    27    10     6    1
    28     3    20    1
