@<TRIPOS>MOLECULE
*****
 23 26 0 0 0
SMALL
GASTEIGER

@<TRIPOS>ATOM
      1 C          -8.5375  -19.0436   23.0736 C.2     1  UNL1        0.3428
      2 O          -9.2582  -20.2613   23.5713 O.2     1  UNL1       -0.2448
      3 C          -3.4410  -18.8796   20.6999 C.2     1  UNL1        0.0522
      4 C          -3.7608  -18.7828   22.1622 C.2     1  UNL1        0.0064
      5 C          -5.1866  -18.8452   22.6238 C.2     1  UNL1        0.0018
      6 C          -6.2926  -19.0044   21.6232 C.2     1  UNL1        0.0217
      7 C          -7.7817  -19.0961   21.7790 C.2     1  UNL1        0.0958
      8 C          -8.3822  -19.2496   20.4131 C.2     1  UNL1        0.1049
      9 N          -7.2642  -19.2527   19.4130 N.2     1  UNL1       -0.2476
     10 C          -5.9728  -19.1011   20.1609 C.2     1  UNL1        0.0643
     11 C          -4.5470  -19.0387   19.6993 C.3     1  UNL1        0.0825
     12 N          -0.5893  -18.7548   19.7766 N.1     1  UNL1       -0.1911
     13 C          -2.0151  -18.8172   20.2383 C.1     1  UNL1        0.0965
     14 O          -8.5726  -17.7733   23.8706 O.3     1  UNL1       -0.4454
     15 C          -9.8146  -16.9324   23.8871 C.3     1  UNL1        0.2087
     16 C         -10.7277  -16.9198   22.6971 C.3     1  UNL1        0.0445
     17 C         -10.3663  -16.1166   21.4829 C.3     1  UNL1        0.0210
     18 C         -11.2794  -16.1039   20.2929 C.3     1  UNL1        0.0722
     19 N         -12.5539  -16.8945   20.3170 N.3     1  UNL1       -0.2727
     20 C         -12.9153  -17.6976   21.5312 C.3     1  UNL1        0.0722
     21 C         -12.0023  -17.7103   22.7213 C.3     1  UNL1        0.0210
     22 C         -12.0855  -16.9324   20.9931 C.3     1  UNL1        0.0722
     23 C         -11.2598  -16.9438   22.0692 C.3     1  UNL1        0.0210
@<TRIPOS>BOND
     1    12    13    3
     2    13     3    1
     3     3     4    2
     4     4     5    1
     5     5     6    2
     6     6     7    1
     7     7     1    1
     8     1     2    2
     9     1    14    1
    10    14    15    1
    11    15    16    1
    12    16    17    1
    13    17    18    1
    14    18    19    1
    15    19    20    1
    16    20    21    1
    17    19    22    1
    18    22    23    1
    19     7     8    2
    20     8     9    1
    21     9    10    2
    22    10    11    1
    23    11     3    1
    24    10     6    1
    25    21    16    1
    26    23    16    1
@<TRIPOS>MOLECULE
*****
 23 26 0 0 0
SMALL
GASTEIGER

@<TRIPOS>ATOM
      1 C          -8.8501  -18.6746   20.3421 C.2     1  UNL1        0.3428
      2 O          -8.6197  -19.6178   19.1988 O.2     1  UNL1       -0.2448
      3 C         -12.8852  -18.5105   24.2572 C.2     1  UNL1        0.0522
      4 C         -11.5308  -19.1432   24.3808 C.2     1  UNL1        0.0064
      5 C         -10.5716  -19.0931   23.2285 C.2     1  UNL1        0.0018
      6 C         -10.9669  -18.4105   21.9528 C.2     1  UNL1        0.0217
      7 C         -10.2388  -18.2036   20.6578 C.2     1  UNL1        0.0958
      8 C         -11.1433  -17.4431   19.7338 C.2     1  UNL1        0.1049
      9 N         -12.4303  -17.1800   20.4577 N.2     1  UNL1       -0.2476
     10 C         -12.3213  -17.7778   21.8292 C.2     1  UNL1        0.0643
     11 C         -13.2805  -17.8279   22.9814 C.3     1  UNL1        0.0825
     12 N         -14.8034  -18.6106   26.5616 N.1     1  UNL1       -0.1911
     13 C         -13.8443  -18.5606   25.4094 C.1     1  UNL1        0.0965
     14 O          -7.6917  -18.2024   21.1699 O.3     1  UNL1       -0.4454
     15 C          -6.8967  -19.1853   21.9772 C.3     1  UNL1        0.2087
     16 C          -5.4787  -19.4943   21.5980 C.3     1  UNL1        0.0445
     17 C          -5.1912  -20.3252   20.3828 C.3     1  UNL1        0.0210
     18 C          -3.7732  -20.6342   20.0036 C.3     1  UNL1        0.0722
     19 N          -2.6426  -20.1122   20.8397 N.3     1  UNL1       -0.2727
     20 C          -2.9300  -19.2813   22.0550 C.3     1  UNL1        0.0722
     21 C          -4.3480  -18.9723   22.4342 C.3     1  UNL1        0.0210
     22 C          -3.4031  -19.9166   21.0873 C.3     1  UNL1        0.0722
     23 C          -4.6854  -19.6373   21.4301 C.3     1  UNL1        0.0210
@<TRIPOS>BOND
     1    12    13    3
     2    13     3    1
     3     3     4    2
     4     4     5    1
     5     5     6    2
     6     6     7    1
     7     7     1    1
     8     1     2    2
     9     1    14    1
    10    14    15    1
    11    15    16    1
    12    16    17    1
    13    17    18    1
    14    18    19    1
    15    19    20    1
    16    20    21    1
    17    19    22    1
    18    22    23    1
    19     7     8    2
    20     8     9    1
    21     9    10    2
    22    10    11    1
    23    11     3    1
    24    10     6    1
    25    21    16    1
    26    23    16    1
@<TRIPOS>MOLECULE
*****
 23 26 0 0 0
SMALL
GASTEIGER

@<TRIPOS>ATOM
      1 C          -8.4729  -18.0101   20.8456 C.2     1  UNL1        0.3428
      2 O          -7.9540  -18.9807   19.8265 O.2     1  UNL1       -0.2448
      3 C         -12.8404  -18.4235   24.3656 C.2     1  UNL1        0.0522
      4 C         -11.4099  -18.7696   24.6552 C.2     1  UNL1        0.0064
      5 C         -10.3663  -18.5966   23.5917 C.2     1  UNL1        0.0018
      6 C         -10.7531  -18.0775   22.2387 C.2     1  UNL1        0.0217
      7 C          -9.9505  -17.8044   21.0013 C.2     1  UNL1        0.0958
      8 C         -10.8849  -17.2894   19.9469 C.2     1  UNL1        0.1049
      9 N         -12.2651  -17.2443   20.5326 N.2     1  UNL1       -0.2476
     10 C         -12.1836  -17.7313   21.9491 C.2     1  UNL1        0.0643
     11 C         -13.2272  -17.9043   23.0125 C.3     1  UNL1        0.0825
     12 N         -14.9276  -18.7695   26.4924 N.1     1  UNL1       -0.1911
     13 C         -13.8840  -18.5965   25.4290 C.1     1  UNL1        0.0965
     14 O          -7.5141  -17.2452   21.7091 O.3     1  UNL1       -0.4454
     15 C          -7.9742  -16.0144   22.4326 C.3     1  UNL1        0.2087
     16 C          -7.5711  -15.7886   23.8597 C.3     1  UNL1        0.0445
     17 C          -6.1301  -15.5543   24.2039 C.3     1  UNL1        0.0210
     18 C          -5.7269  -15.3284   25.6310 C.3     1  UNL1        0.0722
     19 N          -6.7648  -15.3369   26.7139 N.3     1  UNL1       -0.2727
     20 C          -8.2059  -15.5712   26.3696 C.3     1  UNL1        0.0722
     21 C          -8.6090  -15.7971   24.9426 C.3     1  UNL1        0.0210
     22 C          -7.0339  -15.4654   25.9464 C.3     1  UNL1        0.0722
     23 C          -7.3984  -15.6696   24.6559 C.3     1  UNL1        0.0210
@<TRIPOS>BOND
     1    12    13    3
     2    13     3    1
     3     3     4    2
     4     4     5    1
     5     5     6    2
     6     6     7    1
     7     7     1    1
     8     1     2    2
     9     1    14    1
    10    14    15    1
    11    15    16    1
    12    16    17    1
    13    17    18    1
    14    18    19    1
    15    19    20    1
    16    20    21    1
    17    19    22    1
    18    22    23    1
    19     7     8    2
    20     8     9    1
    21     9    10    2
    22    10    11    1
    23    11     3    1
    24    10     6    1
    25    21    16    1
    26    23    16    1
@<TRIPOS>MOLECULE
*****
 23 26 0 0 0
SMALL
GASTEIGER

@<TRIPOS>ATOM
      1 C          -6.2455  -18.8565   21.4159 C.2     1  UNL1        0.3428
      2 O          -6.2096  -18.5665   19.9446 O.2     1  UNL1       -0.2448
      3 C         -11.4801  -18.2404   23.3795 C.2     1  UNL1        0.0522
      4 C         -10.9955  -19.2732   22.4056 C.2     1  UNL1        0.0064
      5 C          -9.5551  -19.2923   21.9874 C.2     1  UNL1        0.0018
      6 C          -8.5993  -18.2787   22.5430 C.2     1  UNL1        0.0217
      7 C          -7.1338  -18.0517   22.3176 C.2     1  UNL1        0.0958
      8 C          -6.7126  -16.8786   23.1522 C.2     1  UNL1        0.1049
      9 N          -7.9178  -16.3806   23.8934 N.2     1  UNL1       -0.2476
     10 C          -9.0838  -17.2459   23.5169 C.2     1  UNL1        0.0643
     11 C         -10.5242  -17.2268   23.9352 C.3     1  UNL1        0.0825
     12 N         -14.3608  -18.2021   24.2160 N.1     1  UNL1       -0.1911
     13 C         -12.9204  -18.2213   23.7977 C.1     1  UNL1        0.0965
     14 O          -5.3930  -19.9515   21.9854 O.3     1  UNL1       -0.4454
     15 C          -4.0611  -19.6256   22.5935 C.3     1  UNL1        0.2087
     16 C          -3.1315  -18.6755   21.8984 C.3     1  UNL1        0.0445
     17 C          -2.9735  -17.2735   22.4076 C.3     1  UNL1        0.0210
     18 C          -2.0439  -16.3233   21.7126 C.3     1  UNL1        0.0722
     19 N          -1.2723  -16.7752   20.5083 N.3     1  UNL1       -0.2727
     20 C          -1.4303  -18.1772   19.9990 C.3     1  UNL1        0.0722
     21 C          -2.3599  -19.1274   20.6941 C.3     1  UNL1        0.0210
     22 C          -1.7697  -17.3318   20.8558 C.3     1  UNL1        0.0722
     23 C          -2.6102  -18.1909   21.4843 C.3     1  UNL1        0.0210
@<TRIPOS>BOND
     1    12    13    3
     2    13     3    1
     3     3     4    2
     4     4     5    1
     5     5     6    2
     6     6     7    1
     7     7     1    1
     8     1     2    2
     9     1    14    1
    10    14    15    1
    11    15    16    1
    12    16    17    1
    13    17    18    1
    14    18    19    1
    15    19    20    1
    16    20    21    1
    17    19    22    1
    18    22    23    1
    19     7     8    2
    20     8     9    1
    21     9    10    2
    22    10    11    1
    23    11     3    1
    24    10     6    1
    25    21    16    1
    26    23    16    1
@<TRIPOS>MOLECULE
*****
 23 26 0 0 0
SMALL
GASTEIGER

@<TRIPOS>ATOM
      1 C          -9.9979  -17.7499   22.0818 C.2     1  UNL1        0.3428
      2 O         -11.3347  -18.3389   22.4224 O.2     1  UNL1       -0.2448
      3 C          -4.6791  -19.4241   21.3444 C.2     1  UNL1        0.0522
      4 C          -5.2250  -18.6260   22.4912 C.2     1  UNL1        0.0064
      5 C          -6.6803  -18.2645   22.5279 C.2     1  UNL1        0.0018
      6 C          -7.5897  -18.7010   21.4178 C.2     1  UNL1        0.0217
      7 C          -9.0569  -18.4956   21.1827 C.2     1  UNL1        0.0958
      8 C          -9.4178  -19.1667   19.8906 C.2     1  UNL1        0.1049
      9 N          -8.1737  -19.7869   19.3272 N.2     1  UNL1       -0.2476
     10 C          -7.0438  -19.4990   20.2710 C.2     1  UNL1        0.0643
     11 C          -5.5885  -19.8606   20.2344 C.3     1  UNL1        0.0825
     12 N          -1.7685  -20.1472   21.2711 N.1     1  UNL1       -0.1911
     13 C          -3.2238  -19.7856   21.3078 C.1     1  UNL1        0.0965
     14 O          -9.6021  -16.4153   22.6404 O.3     1  UNL1       -0.4454
     15 C          -9.6703  -16.1709   24.1188 C.3     1  UNL1        0.2087
     16 C          -8.4162  -15.8846   24.8904 C.3     1  UNL1        0.0445
     17 C          -8.3832  -16.0996   26.3745 C.3     1  UNL1        0.0210
     18 C          -7.1291  -15.8134   27.1461 C.3     1  UNL1        0.0722
     19 N          -5.9080  -15.3122   26.4335 N.3     1  UNL1       -0.2727
     20 C          -5.9410  -15.0973   24.9494 C.3     1  UNL1        0.0722
     21 C          -7.1951  -15.3835   24.1778 C.3     1  UNL1        0.0210
     22 C          -6.5720  -15.4551   25.9681 C.3     1  UNL1        0.0722
     23 C          -7.7060  -15.7139   25.2704 C.3     1  UNL1        0.0210
@<TRIPOS>BOND
     1    12    13    3
     2    13     3    1
     3     3     4    2
     4     4     5    1
     5     5     6    2
     6     6     7    1
     7     7     1    1
     8     1     2    2
     9     1    14    1
    10    14    15    1
    11    15    16    1
    12    16    17    1
    13    17    18    1
    14    18    19    1
    15    19    20    1
    16    20    21    1
    17    19    22    1
    18    22    23    1
    19     7     8    2
    20     8     9    1
    21     9    10    2
    22    10    11    1
    23    11     3    1
    24    10     6    1
    25    21    16    1
    26    23    16    1
@<TRIPOS>MOLECULE
*****
 23 26 0 0 0
SMALL
GASTEIGER

@<TRIPOS>ATOM
      1 C          -6.4327  -19.7035   20.8313 C.2     1  UNL1        0.3428
      2 O          -5.6569  -20.8747   20.3055 O.2     1  UNL1       -0.2448
      3 C         -11.5314  -18.6147   22.9417 C.2     1  UNL1        0.0522
      4 C         -10.2318  -18.6493   23.6898 C.2     1  UNL1        0.0064
      5 C          -8.9564  -18.9591   22.9637 C.2     1  UNL1        0.0018
      6 C          -8.9806  -19.2343   21.4894 C.2     1  UNL1        0.0217
      7 C          -7.8919  -19.5662   20.5123 C.2     1  UNL1        0.0958
      8 C          -8.5187  -19.7368   19.1602 C.2     1  UNL1        0.1049
      9 N          -9.9948  -19.5102   19.3017 N.2     1  UNL1       -0.2476
     10 C         -10.2802  -19.1997   20.7412 C.2     1  UNL1        0.0643
     11 C         -11.5556  -18.8899   21.4674 C.3     1  UNL1        0.0825
     12 N         -14.0823  -17.9951   24.3940 N.1     1  UNL1       -0.1911
     13 C         -12.8068  -18.3049   23.6678 C.1     1  UNL1        0.0965
     14 O          -5.7491  -18.6695   21.6761 O.3     1  UNL1       -0.4454
     15 C          -4.3734  -18.9304   22.2139 C.3     1  UNL1        0.2087
     16 C          -3.1819  -18.2840   21.5715 C.3     1  UNL1        0.0445
     17 C          -2.6770  -16.9670   22.0819 C.3     1  UNL1        0.0210
     18 C          -1.4855  -16.3206   21.4395 C.3     1  UNL1        0.0722
     19 N          -0.7990  -16.9913   20.2867 N.3     1  UNL1       -0.2727
     20 C          -1.3040  -18.3083   19.7763 C.3     1  UNL1        0.0722
     21 C          -2.4955  -18.9547   20.4187 C.3     1  UNL1        0.0210
     22 C          -1.4482  -17.3841   20.6063 C.3     1  UNL1        0.0722
     23 C          -2.5256  -17.9685   21.1873 C.3     1  UNL1        0.0210
@<TRIPOS>BOND
     1    12    13    3
     2    13     3    1
     3     3     4    2
     4     4     5    1
     5     5     6    2
     6     6     7    1
     7     7     1    1
     8     1     2    2
     9     1    14    1
    10    14    15    1
    11    15    16    1
    12    16    17    1
    13    17    18    1
    14    18    19    1
    15    19    20    1
    16    20    21    1
    17    19    22    1
    18    22    23    1
    19     7     8    2
    20     8     9    1
    21     9    10    2
    22    10    11    1
    23    11     3    1
    24    10     6    1
    25    21    16    1
    26    23    16    1
@<TRIPOS>MOLECULE
*****
 23 26 0 0 0
SMALL
GASTEIGER

@<TRIPOS>ATOM
      1 C          -9.3882  -19.1522   20.2585 C.2     1  UNL1        0.3428
      2 O         -10.4653  -19.2903   19.2238 O.2     1  UNL1       -0.2448
      3 C          -8.6533  -16.5085   25.1684 C.2     1  UNL1        0.0522
      4 C          -8.0509  -16.1411   23.8447 C.2     1  UNL1        0.0064
      5 C          -8.3565  -16.9629   22.6276 C.2     1  UNL1        0.0018
      6 C          -9.2644  -18.1521   22.7343 C.2     1  UNL1        0.0217
      7 C          -9.7446  -19.1429   21.7155 C.2     1  UNL1        0.0958
      8 C         -10.6438  -20.1226   22.4096 C.2     1  UNL1        0.1049
      9 N         -10.7193  -19.7374   23.8573 N.2     1  UNL1       -0.2476
     10 C          -9.8667  -18.5195   24.0579 C.2     1  UNL1        0.0643
     11 C          -9.5612  -17.6977   25.2750 C.3     1  UNL1        0.0825
     12 N          -8.0421  -14.8648   27.6025 N.1     1  UNL1       -0.1911
     13 C          -8.3477  -15.6866   26.3854 C.1     1  UNL1        0.0965
     14 O          -7.9547  -19.0235   19.8362 O.3     1  UNL1       -0.4454
     15 C          -6.9941  -20.1473   20.0903 C.3     1  UNL1        0.2087
     16 C          -5.6692  -19.8698   20.7363 C.3     1  UNL1        0.0445
     17 C          -5.6145  -19.2073   22.0810 C.3     1  UNL1        0.0210
     18 C          -4.2895  -18.9298   22.7271 C.3     1  UNL1        0.0722
     19 N          -3.0192  -19.3148   22.0286 N.3     1  UNL1       -0.2727
     20 C          -3.0738  -19.9774   20.6840 C.3     1  UNL1        0.0722
     21 C          -4.3988  -20.2549   20.0378 C.3     1  UNL1        0.0210
     22 C          -3.7215  -19.4872   21.6349 C.3     1  UNL1        0.0722
     23 C          -4.9196  -19.7381   21.0507 C.3     1  UNL1        0.0210
@<TRIPOS>BOND
     1    12    13    3
     2    13     3    1
     3     3     4    2
     4     4     5    1
     5     5     6    2
     6     6     7    1
     7     7     1    1
     8     1     2    2
     9     1    14    1
    10    14    15    1
    11    15    16    1
    12    16    17    1
    13    17    18    1
    14    18    19    1
    15    19    20    1
    16    20    21    1
    17    19    22    1
    18    22    23    1
    19     7     8    2
    20     8     9    1
    21     9    10    2
    22    10    11    1
    23    11     3    1
    24    10     6    1
    25    21    16    1
    26    23    16    1
@<TRIPOS>MOLECULE
*****
 23 26 0 0 0
SMALL
GASTEIGER

@<TRIPOS>ATOM
      1 C          -4.2642  -16.7341   23.3741 C.2     1  UNL1        0.3428
      2 O          -3.4742  -15.8025   22.5034 O.2     1  UNL1       -0.2448
      3 C          -9.8787  -17.0279   23.2079 C.2     1  UNL1        0.0522
      4 C          -8.9097  -17.7225   22.2977 C.2     1  UNL1        0.0064
      5 C          -7.4340  -17.5304   22.4861 C.2     1  UNL1        0.0018
      6 C          -6.9273  -16.6436   23.5847 C.2     1  UNL1        0.0217
      7 C          -5.5394  -16.2659   24.0101 C.2     1  UNL1        0.0958
      8 C          -5.6506  -15.3378   25.1833 C.2     1  UNL1        0.1049
      9 N          -7.1073  -15.1419   25.4829 N.2     1  UNL1       -0.2476
     10 C          -7.8963  -15.9490   24.4949 C.2     1  UNL1        0.0643
     11 C          -9.3720  -16.1411   24.3065 C.3     1  UNL1        0.0825
     12 N         -12.8300  -17.4121   22.8311 N.1     1  UNL1       -0.1911
     13 C         -11.3543  -17.2200   23.0195 C.1     1  UNL1        0.0965
     14 O          -3.7789  -18.1339   23.6087 O.3     1  UNL1       -0.4454
     15 C          -3.7498  -19.1172   22.4764 C.3     1  UNL1        0.2087
     16 C          -2.9800  -18.8014   21.2283 C.3     1  UNL1        0.0445
     17 C          -3.6787  -18.7815   19.9011 C.3     1  UNL1        0.0210
     18 C          -2.9090  -18.4656   18.6529 C.3     1  UNL1        0.0722
     19 N          -1.4406  -18.1697   18.7320 N.3     1  UNL1       -0.2727
     20 C          -0.7420  -18.1896   20.0592 C.3     1  UNL1        0.0722
     21 C          -1.5117  -18.5055   21.3074 C.3     1  UNL1        0.0210
     22 C          -1.8202  -18.3374   19.4432 C.3     1  UNL1        0.0722
     23 C          -2.5162  -18.6230   20.5717 C.3     1  UNL1        0.0210
@<TRIPOS>BOND
     1    12    13    3
     2    13     3    1
     3     3     4    2
     4     4     5    1
     5     5     6    2
     6     6     7    1
     7     7     1    1
     8     1     2    2
     9     1    14    1
    10    14    15    1
    11    15    16    1
    12    16    17    1
    13    17    18    1
    14    18    19    1
    15    19    20    1
    16    20    21    1
    17    19    22    1
    18    22    23    1
    19     7     8    2
    20     8     9    1
    21     9    10    2
    22    10    11    1
    23    11     3    1
    24    10     6    1
    25    21    16    1
    26    23    16    1
@<TRIPOS>MOLECULE
*****
 23 26 0 0 0
SMALL
GASTEIGER

@<TRIPOS>ATOM
      1 C          -8.1222  -19.5072   21.8630 C.2     1  UNL1        0.3428
      2 O          -8.8563  -20.1964   22.9748 O.2     1  UNL1       -0.2448
      3 C          -2.6608  -18.8598   20.6837 C.2     1  UNL1        0.0522
      4 C          -3.5978  -19.8750   20.0994 C.2     1  UNL1        0.0064
      5 C          -5.0340  -19.9059   20.5308 C.2     1  UNL1        0.0018
      6 C          -5.5334  -18.9216   21.5465 C.2     1  UNL1        0.0217
      7 C          -6.8858  -18.7117   22.1606 C.2     1  UNL1        0.0958
      8 C          -6.7847  -17.5668   23.1244 C.2     1  UNL1        0.1049
      9 N          -5.3698  -17.0690   23.1060 N.2     1  UNL1       -0.2476
     10 C          -4.5965  -17.9063   22.1308 C.2     1  UNL1        0.0643
     11 C          -3.1602  -17.8754   21.6994 C.3     1  UNL1        0.0825
     12 N           0.2118  -18.7979   19.8209 N.1     1  UNL1       -0.1911
     13 C          -1.2245  -18.8289   20.2523 C.1     1  UNL1        0.0965
     14 O          -8.6245  -19.6135   20.4536 O.3     1  UNL1       -0.4454
     15 C         -10.0992  -19.6691   20.1852 C.3     1  UNL1        0.2087
     16 C         -10.9839  -18.5385   20.6201 C.3     1  UNL1        0.0445
     17 C         -11.1076  -17.3117   19.7660 C.3     1  UNL1        0.0210
     18 C         -11.9922  -16.1810   20.2008 C.3     1  UNL1        0.0722
     19 N         -12.7531  -16.2772   21.4899 N.3     1  UNL1       -0.2727
     20 C         -12.6294  -17.5040   22.3441 C.3     1  UNL1        0.0722
     21 C         -11.7448  -18.6347   21.9092 C.3     1  UNL1        0.0210
     22 C         -12.2808  -16.9224   21.2933 C.3     1  UNL1        0.0722
     23 C         -11.4809  -17.9447   20.9000 C.3     1  UNL1        0.0210
@<TRIPOS>BOND
     1    12    13    3
     2    13     3    1
     3     3     4    2
     4     4     5    1
     5     5     6    2
     6     6     7    1
     7     7     1    1
     8     1     2    2
     9     1    14    1
    10    14    15    1
    11    15    16    1
    12    16    17    1
    13    17    18    1
    14    18    19    1
    15    19    20    1
    16    20    21    1
    17    19    22    1
    18    22    23    1
    19     7     8    2
    20     8     9    1
    21     9    10    2
    22    10    11    1
    23    11     3    1
    24    10     6    1
    25    21    16    1
    26    23    16    1
