@<TRIPOS>MOLECULE
*****
 31 34 0 0 0
SMALL
GASTEIGER

@<TRIPOS>ATOM
      1 C           7.0968   -3.9111   21.1617 C.ar    1  UNL1        0.0154
      2 C           8.1671   -4.7918   20.5882 C.ar    1  UNL1        0.0985
      3 N           9.0220   -5.6228   21.4983 N.ar    1  UNL1       -0.2423
      4 C           8.8067   -5.5732   22.9820 C.ar    1  UNL1        0.0985
      5 C           7.7365   -4.6925   23.5555 C.ar    1  UNL1        0.0152
      6 C           6.8815   -3.8615   22.6453 C.ar    1  UNL1       -0.0188
      7 C           5.8112   -2.9808   23.2188 C.3     1  UNL1        0.0311
      8 C           6.0034   -1.5449   18.1691 C.ar    1  UNL1        0.1690
      9 C           6.8583   -2.3759   19.0793 C.ar    1  UNL1        0.0395
     10 C           6.2418   -3.0800   20.2515 C.ar    1  UNL1        0.0074
     11 C           4.7703   -2.9531   20.5135 C.ar    1  UNL1        0.0395
     12 C           3.9154   -2.1221   19.6033 C.ar    1  UNL1        0.1690
     13 C           4.5320   -1.4180   18.4311 C.ar    1  UNL1        0.2074
     14 F           3.6770   -0.5869   17.5209 F       1  UNL1       -0.1977
     15 C           6.8432    0.6417   17.0451 C.3     1  UNL1        0.2526
     16 O           6.6200   -0.8407   16.9969 O.3     1  UNL1       -0.4691
     17 O           2.4439   -1.9952   19.8653 O.3     1  UNL1       -0.4691
     18 C           1.8892   -0.7190   20.4253 C.3     1  UNL1        0.2526
     19 C           7.5211   -4.6429   25.0391 C.ar    1  UNL1        0.0013
     20 C           7.9536   -3.4373   25.8197 C.ar    1  UNL1        0.0013
     21 C           7.7383   -3.3876   27.3034 C.ar    1  UNL1        0.0145
     22 C           7.0905   -4.5436   28.0064 C.ar    1  UNL1        0.0479
     23 C           6.6580   -5.7492   27.2256 C.ar    1  UNL1        0.0145
     24 C           6.8734   -5.7989   25.7420 C.ar    1  UNL1        0.0013
     25 N           6.8752   -4.4939   29.4900 N.pl3   1  UNL1       -0.3047
     26 C           6.4872   -3.2034   30.1487 C.3     1  UNL1        0.1079
     27 C           6.2719   -3.1537   31.6324 C.3     1  UNL1        0.0903
     28 N           6.4445   -4.3946   32.4573 N.3     1  UNL1       -0.2946
     29 C           6.8325   -5.6852   31.7984 C.3     1  UNL1        0.0903
     30 C           7.0478   -5.7348   30.3148 C.3     1  UNL1        0.1079
     31 H           5.5556   -4.5605   32.9292 H       1  UNL1        0.1233
@<TRIPOS>BOND
     1    15    16    1
     2    16     8    1
     3     8     9   ar
     4     9    10   ar
     5    10     1    1
     6     1     2   ar
     7     2     3   ar
     8     3     4   ar
     9     4     5   ar
    10     5    19    1
    11    19    20   ar
    12    20    21   ar
    13    21    22   ar
    14    22    25    1
    15    25    26    1
    16    26    27    1
    17    27    28    1
    18    28    29    1
    19    29    30    1
    20    22    23   ar
    21    23    24   ar
    22     5     6   ar
    23     6     7    1
    24    10    11   ar
    25    11    12   ar
    26    12    17    1
    27    17    18    1
    28    12    13   ar
    29    13    14    1
    30    13     8   ar
    31     6     1   ar
    32    24    19   ar
    33    30    25    1
    34    28    31    1
@<TRIPOS>MOLECULE
*****
 31 34 0 0 0
SMALL
GASTEIGER

@<TRIPOS>ATOM
      1 C           7.1227   -3.8963   21.1505 C.ar    1  UNL1        0.0154
      2 C           8.1901   -4.7778   20.5730 C.ar    1  UNL1        0.0985
      3 N           9.0430   -5.6150   21.4794 N.ar    1  UNL1       -0.2423
      4 C           8.8284   -5.5708   22.9634 C.ar    1  UNL1        0.0985
      5 C           7.7610   -4.6893   23.5409 C.ar    1  UNL1        0.0152
      6 C           6.9081   -3.8520   22.6344 C.ar    1  UNL1       -0.0188
      7 C           5.8407   -2.9705   23.2119 C.3     1  UNL1        0.0311
      8 C           3.9435   -2.1029   19.5926 C.ar    1  UNL1        0.1690
      9 C           4.7964   -2.9402   20.4990 C.ar    1  UNL1        0.0395
     10 C           6.2698   -3.0589   20.2441 C.ar    1  UNL1        0.0074
     11 C           6.8903   -2.3404   19.0828 C.ar    1  UNL1        0.0395
     12 C           6.0375   -1.5032   18.1764 C.ar    1  UNL1        0.1690
     13 C           4.5641   -1.3845   18.4313 C.ar    1  UNL1        0.2074
     14 F           3.7112   -0.5471   17.5249 F       1  UNL1       -0.1977
     15 C           1.9071   -0.7152   20.4156 C.3     1  UNL1        0.2526
     16 O           2.4701   -1.9842   19.8475 O.3     1  UNL1       -0.4691
     17 O           6.6580   -0.7846   17.0150 O.3     1  UNL1       -0.4691
     18 C           6.9740    0.6779   17.1200 C.3     1  UNL1        0.2526
     19 C           7.5464   -4.6451   25.0248 C.ar    1  UNL1        0.0013
     20 C           6.8847   -5.7968   25.7215 C.ar    1  UNL1        0.0013
     21 C           6.6700   -5.7526   27.2054 C.ar    1  UNL1        0.0145
     22 C           7.1173   -4.5566   27.9926 C.ar    1  UNL1        0.0479
     23 C           7.7791   -3.4049   27.2958 C.ar    1  UNL1        0.0145
     24 C           7.9937   -3.4491   25.8119 C.ar    1  UNL1        0.0013
     25 N           6.9027   -4.5124   29.4765 N.pl3   1  UNL1       -0.3047
     26 C           7.0793   -5.7555   30.2972 C.3     1  UNL1        0.1079
     27 C           6.8648   -5.7113   31.7811 C.3     1  UNL1        0.0903
     28 N           6.4736   -4.4240   32.4443 N.3     1  UNL1       -0.2946
     29 C           6.2969   -3.1809   31.6236 C.3     1  UNL1        0.0903
     30 C           6.5115   -3.2251   30.1397 C.3     1  UNL1        0.1079
     31 H           7.1932   -4.2193   33.1376 H       1  UNL1        0.1233
@<TRIPOS>BOND
     1    15    16    1
     2    16     8    1
     3     8     9   ar
     4     9    10   ar
     5    10     1    1
     6     1     2   ar
     7     2     3   ar
     8     3     4   ar
     9     4     5   ar
    10     5    19    1
    11    19    20   ar
    12    20    21   ar
    13    21    22   ar
    14    22    25    1
    15    25    26    1
    16    26    27    1
    17    27    28    1
    18    28    29    1
    19    29    30    1
    20    22    23   ar
    21    23    24   ar
    22     5     6   ar
    23     6     7    1
    24    10    11   ar
    25    11    12   ar
    26    12    17    1
    27    17    18    1
    28    12    13   ar
    29    13    14    1
    30    13     8   ar
    31     6     1   ar
    32    24    19   ar
    33    30    25    1
    34    28    31    1
@<TRIPOS>MOLECULE
*****
 31 34 0 0 0
SMALL
GASTEIGER

@<TRIPOS>ATOM
      1 C           5.9810    0.6899   35.7537 C.ar    1  UNL1        0.0154
      2 C           7.3112    0.8173   36.4352 C.ar    1  UNL1        0.0985
      3 N           8.5348    0.2156   35.8101 N.ar    1  UNL1       -0.2423
      4 C           8.4282   -0.5135   34.5035 C.ar    1  UNL1        0.0985
      5 C           7.0980   -0.6409   33.8221 C.ar    1  UNL1        0.0152
      6 C           5.8744   -0.0391   34.4472 C.ar    1  UNL1       -0.0188
      7 C           4.5442   -0.1665   33.7658 C.3     1  UNL1        0.0311
      8 C           2.8535    3.0592   36.3497 C.ar    1  UNL1        0.1690
      9 C           4.0770    2.4575   35.7246 C.ar    1  UNL1        0.0395
     10 C           4.7574    1.2917   36.3789 C.ar    1  UNL1        0.0074
     11 C           4.2142    0.7277   37.6582 C.ar    1  UNL1        0.0395
     12 C           2.9907    1.3294   38.2833 C.ar    1  UNL1        0.1690
     13 C           2.3103    2.4952   37.6291 C.ar    1  UNL1        0.2074
     14 F           1.0867    3.0969   38.2542 F       1  UNL1       -0.1977
     15 C           1.5876    4.0776   34.3224 C.3     1  UNL1        0.2526
     16 O           2.1731    4.2250   35.6954 O.3     1  UNL1       -0.4691
     17 O           2.4474    0.7654   39.5627 O.3     1  UNL1       -0.4691
     18 C           1.1552    0.0038   39.5576 C.3     1  UNL1        0.2526
     19 C           6.9914   -1.3700   32.5155 C.ar    1  UNL1        0.0013
     20 C           6.6283   -2.8252   32.4962 C.ar    1  UNL1        0.0013
     21 C           6.5217   -3.5543   31.1896 C.ar    1  UNL1        0.0145
     22 C           6.7781   -2.8282   29.9024 C.ar    1  UNL1        0.0479
     23 C           7.1412   -1.3728   29.9218 C.ar    1  UNL1        0.0145
     24 C           7.2478   -0.6438   31.2283 C.ar    1  UNL1        0.0013
     25 N           6.6715   -3.5572   28.5959 N.pl3   1  UNL1       -0.3047
     26 C           6.5256   -5.0500   28.5798 C.3     1  UNL1        0.1079
     27 C           6.4190   -5.7791   27.2732 C.3     1  UNL1        0.0903
     28 N           6.4583   -5.0154   25.9828 N.3     1  UNL1       -0.2946
     29 C           6.6042   -3.5226   25.9990 C.3     1  UNL1        0.0903
     30 C           6.7108   -2.7935   27.3055 C.3     1  UNL1        0.1079
     31 H           5.5878   -5.2209   25.4924 H       1  UNL1        0.1233
@<TRIPOS>BOND
     1    15    16    1
     2    16     8    1
     3     8     9   ar
     4     9    10   ar
     5    10     1    1
     6     1     2   ar
     7     2     3   ar
     8     3     4   ar
     9     4     5   ar
    10     5    19    1
    11    19    20   ar
    12    20    21   ar
    13    21    22   ar
    14    22    25    1
    15    25    26    1
    16    26    27    1
    17    27    28    1
    18    28    29    1
    19    29    30    1
    20    22    23   ar
    21    23    24   ar
    22     5     6   ar
    23     6     7    1
    24    10    11   ar
    25    11    12   ar
    26    12    17    1
    27    17    18    1
    28    12    13   ar
    29    13    14    1
    30    13     8   ar
    31     6     1   ar
    32    24    19   ar
    33    30    25    1
    34    28    31    1
@<TRIPOS>MOLECULE
*****
 31 34 0 0 0
SMALL
GASTEIGER

@<TRIPOS>ATOM
      1 C           2.1116    0.5938   20.9799 C.ar    1  UNL1        0.0154
      2 C           1.1951    1.5282   20.2473 C.ar    1  UNL1        0.0985
      3 N           0.3102    2.4656   21.0142 N.ar    1  UNL1       -0.2423
      4 C           0.3419    2.4686   22.5139 C.ar    1  UNL1        0.0985
      5 C           1.2584    1.5342   23.2466 C.ar    1  UNL1        0.0152
      6 C           2.1433    0.5967   22.4796 C.ar    1  UNL1       -0.0188
      7 C           3.0598   -0.3377   23.2122 C.3     1  UNL1        0.0311
      8 C           5.1959   -0.7996   18.9074 C.ar    1  UNL1        0.1690
      9 C           4.3111    0.1378   19.6744 C.ar    1  UNL1        0.0395
     10 C           2.9965   -0.3437   20.2129 C.ar    1  UNL1        0.0074
     11 C           2.5667   -1.7625   19.9844 C.ar    1  UNL1        0.0395
     12 C           3.4516   -2.6998   19.2174 C.ar    1  UNL1        0.1690
     13 C           4.7662   -2.2184   18.6789 C.ar    1  UNL1        0.2074
     14 F           5.6511   -3.1558   17.9118 F       1  UNL1       -0.1977
     15 C           6.5705    0.3597   17.0321 C.3     1  UNL1        0.2526
     16 O           6.5106   -0.3181   18.3688 O.3     1  UNL1       -0.4691
     17 O           3.0218   -4.1187   18.9888 O.3     1  UNL1       -0.4691
     18 C           3.6753   -5.2325   19.7521 C.3     1  UNL1        0.2526
     19 C           1.2901    1.5371   24.7462 C.ar    1  UNL1        0.0013
     20 C           2.5138    2.0159   25.4695 C.ar    1  UNL1        0.0013
     21 C           2.5456    2.0189   26.9693 C.ar    1  UNL1        0.0145
     22 C           1.3535    1.5431   27.7456 C.ar    1  UNL1        0.0479
     23 C           0.1297    1.0643   27.0222 C.ar    1  UNL1        0.0145
     24 C           0.0981    1.0614   25.5225 C.ar    1  UNL1        0.0013
     25 N           1.3852    1.5461   29.2452 N.pl3   1  UNL1       -0.3047
     26 C           2.3764    0.6898   29.9761 C.3     1  UNL1        0.1079
     27 C           2.4081    0.6927   31.4758 C.3     1  UNL1        0.0903
     28 N           1.4486    1.5520   32.2445 N.3     1  UNL1       -0.2946
     29 C           0.4574    2.4083   31.5136 C.3     1  UNL1        0.0903
     30 C           0.4257    2.4054   30.0140 C.3     1  UNL1        0.1079
     31 H           2.0109    2.1786   32.8205 H       1  UNL1        0.1233
@<TRIPOS>BOND
     1    15    16    1
     2    16     8    1
     3     8     9   ar
     4     9    10   ar
     5    10     1    1
     6     1     2   ar
     7     2     3   ar
     8     3     4   ar
     9     4     5   ar
    10     5    19    1
    11    19    20   ar
    12    20    21   ar
    13    21    22   ar
    14    22    25    1
    15    25    26    1
    16    26    27    1
    17    27    28    1
    18    28    29    1
    19    29    30    1
    20    22    23   ar
    21    23    24   ar
    22     5     6   ar
    23     6     7    1
    24    10    11   ar
    25    11    12   ar
    26    12    17    1
    27    17    18    1
    28    12    13   ar
    29    13    14    1
    30    13     8   ar
    31     6     1   ar
    32    24    19   ar
    33    30    25    1
    34    28    31    1
@<TRIPOS>MOLECULE
*****
 31 34 0 0 0
SMALL
GASTEIGER

@<TRIPOS>ATOM
      1 C           3.1510    1.5752   20.1469 C.ar    1  UNL1        0.0154
      2 C           3.8269    2.4298   21.1779 C.ar    1  UNL1        0.0985
      3 N           3.1050    3.6044   21.7687 N.ar    1  UNL1       -0.2423
      4 C           1.7071    3.9245   21.3285 C.ar    1  UNL1        0.0985
      5 C           1.0313    3.0700   20.2975 C.ar    1  UNL1        0.0152
      6 C           1.7532    1.8953   19.7067 C.ar    1  UNL1       -0.0188
      7 C           1.0773    1.0407   18.6758 C.3     1  UNL1        0.0311
      8 C           4.3288   -2.1562   19.4840 C.ar    1  UNL1        0.1690
      9 C           3.6069   -0.9815   20.0747 C.ar    1  UNL1        0.0395
     10 C           3.8729    0.4005   19.5561 C.ar    1  UNL1        0.0074
     11 C           4.8609    0.6080   18.4467 C.ar    1  UNL1        0.0395
     12 C           5.5828   -0.5666   17.8560 C.ar    1  UNL1        0.1690
     13 C           5.3167   -1.9487   18.3746 C.ar    1  UNL1        0.2074
     14 F           6.0387   -3.1234   17.7838 F       1  UNL1       -0.1977
     15 C           3.3076   -4.5231   19.1601 C.3     1  UNL1        0.2526
     16 O           4.0627   -3.5383   20.0027 O.3     1  UNL1       -0.4691
     17 O           6.5709   -0.3592   16.7465 O.3     1  UNL1       -0.4691
     18 C           6.9422    1.0310   16.3230 C.3     1  UNL1        0.2526
     19 C          -0.3665    3.3900   19.8574 C.ar    1  UNL1        0.0013
     20 C          -1.5342    2.9482   20.6887 C.ar    1  UNL1        0.0013
     21 C          -2.9321    3.2682   20.2486 C.ar    1  UNL1        0.0145
     22 C          -3.1621    4.0301   18.9771 C.ar    1  UNL1        0.0479
     23 C          -1.9943    4.4719   18.1457 C.ar    1  UNL1        0.0145
     24 C          -0.5965    4.1518   18.5859 C.ar    1  UNL1        0.0013
     25 N          -4.5599    4.3501   18.5369 N.pl3   1  UNL1       -0.3047
     26 C          -4.7904    5.3364   17.4306 C.3     1  UNL1        0.1079
     27 C          -6.1883    5.6565   16.9904 C.3     1  UNL1        0.0903
     28 N          -7.3555    4.9903   17.6566 N.3     1  UNL1       -0.2946
     29 C          -7.1248    4.0039   18.7629 C.3     1  UNL1        0.0903
     30 C          -5.7271    3.6839   19.2031 C.3     1  UNL1        0.1079
     31 H          -7.8700    4.4983   16.9260 H       1  UNL1        0.1233
@<TRIPOS>BOND
     1    15    16    1
     2    16     8    1
     3     8     9   ar
     4     9    10   ar
     5    10     1    1
     6     1     2   ar
     7     2     3   ar
     8     3     4   ar
     9     4     5   ar
    10     5    19    1
    11    19    20   ar
    12    20    21   ar
    13    21    22   ar
    14    22    25    1
    15    25    26    1
    16    26    27    1
    17    27    28    1
    18    28    29    1
    19    29    30    1
    20    22    23   ar
    21    23    24   ar
    22     5     6   ar
    23     6     7    1
    24    10    11   ar
    25    11    12   ar
    26    12    17    1
    27    17    18    1
    28    12    13   ar
    29    13    14    1
    30    13     8   ar
    31     6     1   ar
    32    24    19   ar
    33    30    25    1
    34    28    31    1
@<TRIPOS>MOLECULE
*****
 31 34 0 0 0
SMALL
GASTEIGER

@<TRIPOS>ATOM
      1 C           3.0755    1.3567   20.3001 C.ar    1  UNL1        0.0154
      2 C           3.7214    2.1486   21.3982 C.ar    1  UNL1        0.0985
      3 N           2.9900    3.2994   22.0231 N.ar    1  UNL1       -0.2423
      4 C           1.6126    3.6584   21.5499 C.ar    1  UNL1        0.0985
      5 C           0.9666    2.8666   20.4518 C.ar    1  UNL1        0.0152
      6 C           1.6982    1.7158   19.8269 C.ar    1  UNL1       -0.0188
      7 C           1.0522    0.9240   18.7288 C.3     1  UNL1        0.0311
      8 C           5.4945   -0.7012   17.9202 C.ar    1  UNL1        0.1690
      9 C           4.7630    0.4496   18.5452 C.ar    1  UNL1        0.0395
     10 C           3.8070    0.2059   19.6751 C.ar    1  UNL1        0.0074
     11 C           3.5826   -1.1886   20.1802 C.ar    1  UNL1        0.0395
     12 C           4.3141   -2.3393   19.5552 C.ar    1  UNL1        0.1690
     13 C           5.2700   -2.0957   18.4253 C.ar    1  UNL1        0.2074
     14 F           6.0016   -3.2465   17.8003 F       1  UNL1       -0.1977
     15 C           6.9210    0.9354   16.4931 C.3     1  UNL1        0.2526
     16 O           6.4504   -0.4575   16.7903 O.3     1  UNL1       -0.4691
     17 O           4.0897   -3.7339   20.0603 O.3     1  UNL1       -0.4691
     18 C           3.3337   -4.7223   19.2227 C.3     1  UNL1        0.2526
     19 C          -0.4107    3.2256   19.9786 C.ar    1  UNL1        0.0013
     20 C          -0.5956    3.9020   18.6526 C.ar    1  UNL1        0.0013
     21 C          -1.9730    4.2611   18.1794 C.ar    1  UNL1        0.0145
     22 C          -3.1655    3.9437   19.0322 C.ar    1  UNL1        0.0479
     23 C          -2.9806    3.2673   20.3583 C.ar    1  UNL1        0.0145
     24 C          -1.6032    2.9083   20.8314 C.ar    1  UNL1        0.0013
     25 N          -4.5429    4.3027   18.5590 N.pl3   1  UNL1       -0.3047
     26 C          -5.7459    3.7532   19.2666 C.3     1  UNL1        0.1079
     27 C          -7.1233    4.1122   18.7934 C.3     1  UNL1        0.0903
     28 N          -7.2977    5.0207   17.6127 N.3     1  UNL1       -0.2946
     29 C          -6.0945    5.5702   16.9051 C.3     1  UNL1        0.0903
     30 C          -4.7172    5.2112   17.3782 C.3     1  UNL1        0.1079
     31 H          -7.8410    5.8215   17.9350 H       1  UNL1        0.1233
@<TRIPOS>BOND
     1    15    16    1
     2    16     8    1
     3     8     9   ar
     4     9    10   ar
     5    10     1    1
     6     1     2   ar
     7     2     3   ar
     8     3     4   ar
     9     4     5   ar
    10     5    19    1
    11    19    20   ar
    12    20    21   ar
    13    21    22   ar
    14    22    25    1
    15    25    26    1
    16    26    27    1
    17    27    28    1
    18    28    29    1
    19    29    30    1
    20    22    23   ar
    21    23    24   ar
    22     5     6   ar
    23     6     7    1
    24    10    11   ar
    25    11    12   ar
    26    12    17    1
    27    17    18    1
    28    12    13   ar
    29    13    14    1
    30    13     8   ar
    31     6     1   ar
    32    24    19   ar
    33    30    25    1
    34    28    31    1
@<TRIPOS>MOLECULE
*****
 31 34 0 0 0
SMALL
GASTEIGER

@<TRIPOS>ATOM
      1 C           6.0543    0.6638   35.7580 C.ar    1  UNL1        0.0154
      2 C           7.3848    0.7767   36.4414 C.ar    1  UNL1        0.0985
      3 N           8.6026    0.1612   35.8184 N.ar    1  UNL1       -0.2423
      4 C           8.4899   -0.5672   34.5120 C.ar    1  UNL1        0.0985
      5 C           7.1594   -0.6802   33.8286 C.ar    1  UNL1        0.0152
      6 C           5.9415   -0.0646   34.4517 C.ar    1  UNL1       -0.0188
      7 C           4.6110   -0.1776   33.7683 C.3     1  UNL1        0.0311
      8 C           3.0507    1.3196   38.2677 C.ar    1  UNL1        0.1690
      9 C           4.2684    0.7041   37.6446 C.ar    1  UNL1        0.0395
     10 C           4.8365    1.2793   36.3811 C.ar    1  UNL1        0.0074
     11 C           4.1868    2.4700   35.7407 C.ar    1  UNL1        0.0395
     12 C           2.9691    3.0855   36.3637 C.ar    1  UNL1        0.1690
     13 C           2.4010    2.5103   37.6272 C.ar    1  UNL1        0.2074
     14 F           1.1832    3.1258   38.2503 F       1  UNL1       -0.1977
     15 C           1.1448    0.0664   39.5114 C.3     1  UNL1        0.2526
     16 O           2.4826    0.7444   39.5312 O.3     1  UNL1       -0.4691
     17 O           2.3193    4.2762   35.7233 O.3     1  UNL1       -0.4691
     18 C           2.4341    5.6279   36.3633 C.3     1  UNL1        0.2526
     19 C           7.0466   -1.4086   32.5222 C.ar    1  UNL1        0.0013
     20 C           6.6323   -2.8500   32.5006 C.ar    1  UNL1        0.0013
     21 C           6.5196   -3.5785   31.1942 C.ar    1  UNL1        0.0145
     22 C           6.8211   -2.8655   29.9094 C.ar    1  UNL1        0.0479
     23 C           7.2354   -1.4240   29.9311 C.ar    1  UNL1        0.0145
     24 C           7.3482   -0.6955   31.2374 C.ar    1  UNL1        0.0013
     25 N           6.7084   -3.5939   28.6031 N.pl3   1  UNL1       -0.3047
     26 C           6.7673   -2.8323   27.3122 C.3     1  UNL1        0.1079
     27 C           6.6546   -3.5607   26.0057 C.3     1  UNL1        0.0903
     28 N           6.4829   -5.0507   25.9902 N.3     1  UNL1       -0.2946
     29 C           6.4240   -5.8124   27.2812 C.3     1  UNL1        0.0903
     30 C           6.5367   -5.0840   28.5876 C.3     1  UNL1        0.1079
     31 H           7.2658   -5.4318   25.4590 H       1  UNL1        0.1233
@<TRIPOS>BOND
     1    15    16    1
     2    16     8    1
     3     8     9   ar
     4     9    10   ar
     5    10     1    1
     6     1     2   ar
     7     2     3   ar
     8     3     4   ar
     9     4     5   ar
    10     5    19    1
    11    19    20   ar
    12    20    21   ar
    13    21    22   ar
    14    22    25    1
    15    25    26    1
    16    26    27    1
    17    27    28    1
    18    28    29    1
    19    29    30    1
    20    22    23   ar
    21    23    24   ar
    22     5     6   ar
    23     6     7    1
    24    10    11   ar
    25    11    12   ar
    26    12    17    1
    27    17    18    1
    28    12    13   ar
    29    13    14    1
    30    13     8   ar
    31     6     1   ar
    32    24    19   ar
    33    30    25    1
    34    28    31    1
@<TRIPOS>MOLECULE
*****
 31 34 0 0 0
SMALL
GASTEIGER

@<TRIPOS>ATOM
      1 C           1.6930    0.3810   20.4740 C.ar    1  UNL1        0.0154
      2 C           0.5579    0.9640   19.6856 C.ar    1  UNL1        0.0985
      3 N          -0.4552    1.8380   20.3636 N.ar    1  UNL1       -0.2423
      4 C          -0.3331    2.1291   21.8300 C.ar    1  UNL1        0.0985
      5 C           0.8020    1.5461   22.6184 C.ar    1  UNL1        0.0152
      6 C           1.8151    0.6720   21.9404 C.ar    1  UNL1       -0.0188
      7 C           2.9502    0.0891   22.7288 C.3     1  UNL1        0.0311
      8 C           3.9777   -2.7527   19.6313 C.ar    1  UNL1        0.1690
      9 C           2.9647   -1.8786   20.3092 C.ar    1  UNL1        0.0395
     10 C           2.7061   -0.4931   19.7959 C.ar    1  UNL1        0.0074
     11 C           3.4605    0.0183   18.6047 C.ar    1  UNL1        0.0395
     12 C           4.4736   -0.8558   17.9267 C.ar    1  UNL1        0.1690
     13 C           4.7321   -2.2413   18.4400 C.ar    1  UNL1        0.2074
     14 F           5.7452   -3.1154   17.7619 F       1  UNL1       -0.1977
     15 C           3.3949   -5.2843   19.6666 C.3     1  UNL1        0.2526
     16 O           4.2363   -4.1383   20.1446 O.3     1  UNL1       -0.4691
     17 O           5.2281   -0.3444   16.7353 O.3     1  UNL1       -0.4691
     18 C           6.3643    0.6168   16.9232 C.3     1  UNL1        0.2526
     19 C           0.9241    1.8372   24.0848 C.ar    1  UNL1        0.0013
     20 C           1.8636    2.9048   24.5618 C.ar    1  UNL1        0.0013
     21 C           1.9857    3.1959   26.0283 C.ar    1  UNL1        0.0145
     22 C           1.1683    2.4194   27.0177 C.ar    1  UNL1        0.0479
     23 C           0.2287    1.3518   26.5406 C.ar    1  UNL1        0.0145
     24 C           0.1067    1.0607   25.0742 C.ar    1  UNL1        0.0013
     25 N           1.2904    2.7105   28.4840 N.pl3   1  UNL1       -0.3047
     26 C           0.4918    1.9169   29.4752 C.3     1  UNL1        0.1079
     27 C           0.6139    2.2079   30.9417 C.3     1  UNL1        0.0903
     28 N           1.5345    3.2926   31.4169 N.3     1  UNL1       -0.2946
     29 C           2.3331    4.0862   30.4257 C.3     1  UNL1        0.0903
     30 C           2.2111    3.7952   28.9593 C.3     1  UNL1        0.1079
     31 H           2.2032    2.8547   32.0505 H       1  UNL1        0.1233
@<TRIPOS>BOND
     1    15    16    1
     2    16     8    1
     3     8     9   ar
     4     9    10   ar
     5    10     1    1
     6     1     2   ar
     7     2     3   ar
     8     3     4   ar
     9     4     5   ar
    10     5    19    1
    11    19    20   ar
    12    20    21   ar
    13    21    22   ar
    14    22    25    1
    15    25    26    1
    16    26    27    1
    17    27    28    1
    18    28    29    1
    19    29    30    1
    20    22    23   ar
    21    23    24   ar
    22     5     6   ar
    23     6     7    1
    24    10    11   ar
    25    11    12   ar
    26    12    17    1
    27    17    18    1
    28    12    13   ar
    29    13    14    1
    30    13     8   ar
    31     6     1   ar
    32    24    19   ar
    33    30    25    1
    34    28    31    1
@<TRIPOS>MOLECULE
*****
 31 34 0 0 0
SMALL
GASTEIGER

@<TRIPOS>ATOM
      1 C           2.8876    1.1461   21.8184 C.ar    1  UNL1        0.0154
      2 C           3.8843    2.1281   22.3590 C.ar    1  UNL1        0.0985
      3 N           3.4229    3.4606   22.8704 N.ar    1  UNL1       -0.2423
      4 C           1.9647    3.8112   22.8413 C.ar    1  UNL1        0.0985
      5 C           0.9680    2.8292   22.3007 C.ar    1  UNL1        0.0152
      6 C           1.4294    1.4966   21.7893 C.ar    1  UNL1       -0.0188
      7 C           0.4327    0.5146   21.2488 C.3     1  UNL1        0.0311
      8 C           4.1109   -2.6288   21.7589 C.ar    1  UNL1        0.1690
      9 C           3.6495   -1.2963   22.2703 C.ar    1  UNL1        0.0395
     10 C           3.3491   -0.1864   21.3070 C.ar    1  UNL1        0.0074
     11 C           3.5101   -0.4090   19.8324 C.ar    1  UNL1        0.0395
     12 C           3.9715   -1.7414   19.3211 C.ar    1  UNL1        0.1690
     13 C           4.2719   -2.8513   20.2843 C.ar    1  UNL1        0.2074
     14 F           4.7334   -4.1839   19.7729 F       1  UNL1       -0.1977
     15 C           5.6750   -3.7093   23.5298 C.3     1  UNL1        0.2526
     16 O           4.4113   -3.7387   22.7222 O.3     1  UNL1       -0.4691
     17 O           4.1326   -1.9641   17.8464 O.3     1  UNL1       -0.4691
     18 C           3.9227   -0.8285   16.8891 C.3     1  UNL1        0.2526
     19 C          -0.4902    3.1797   22.2716 C.ar    1  UNL1        0.0013
     20 C          -1.2391    3.3803   23.5557 C.ar    1  UNL1        0.0013
     21 C          -2.6973    3.7308   23.5266 C.ar    1  UNL1        0.0145
     22 C          -3.4066    3.8806   22.2134 C.ar    1  UNL1        0.0479
     23 C          -2.6576    3.6799   20.9293 C.ar    1  UNL1        0.0145
     24 C          -1.1995    3.3295   20.9584 C.ar    1  UNL1        0.0013
     25 N          -4.8647    4.2311   22.1842 N.pl3   1  UNL1       -0.3047
     26 C          -5.7108    4.0223   23.4051 C.3     1  UNL1        0.1079
     27 C          -7.1690    4.3728   23.3760 C.3     1  UNL1        0.0903
     28 N          -7.7811    4.9321   22.1260 N.3     1  UNL1       -0.2946
     29 C          -6.9350    5.1409   20.9051 C.3     1  UNL1        0.0903
     30 C          -5.4769    4.7904   20.9342 C.3     1  UNL1        0.1079
     31 H          -8.1733    5.8411   22.3715 H       1  UNL1        0.1233
@<TRIPOS>BOND
     1    15    16    1
     2    16     8    1
     3     8     9   ar
     4     9    10   ar
     5    10     1    1
     6     1     2   ar
     7     2     3   ar
     8     3     4   ar
     9     4     5   ar
    10     5    19    1
    11    19    20   ar
    12    20    21   ar
    13    21    22   ar
    14    22    25    1
    15    25    26    1
    16    26    27    1
    17    27    28    1
    18    28    29    1
    19    29    30    1
    20    22    23   ar
    21    23    24   ar
    22     5     6   ar
    23     6     7    1
    24    10    11   ar
    25    11    12   ar
    26    12    17    1
    27    17    18    1
    28    12    13   ar
    29    13    14    1
    30    13     8   ar
    31     6     1   ar
    32    24    19   ar
    33    30    25    1
    34    28    31    1
