@<TRIPOS>MOLECULE
*****
 23 26 0 0 0
SMALL
GASTEIGER

@<TRIPOS>ATOM
      1 C          -9.9509  -16.8997   22.1369 C.3     1  UNL1        0.1140
      2 C         -10.9698  -17.5265   23.0419 C.ar    1  UNL1        0.0273
      3 C         -10.8392  -18.2660   24.3404 C.ar    1  UNL1        0.1379
      4 F          -9.4848  -18.4820   24.9475 F       1  UNL1       -0.2044
      5 C         -12.0633  -18.7895   25.0317 C.ar    1  UNL1        0.0294
      6 C         -13.4177  -18.5734   24.4245 C.ar    1  UNL1        0.0023
      7 C         -13.5483  -17.8339   23.1261 C.ar    1  UNL1        0.0014
      8 C         -12.3244  -17.3104   22.4347 C.ar    1  UNL1        0.0173
      9 C         -12.1426  -16.5501   21.1545 C.ar    1  UNL1        0.0804
     10 C         -12.8674  -15.9468   19.9881 C.ar    1  UNL1        0.1178
     11 N         -11.8484  -15.3200   19.0831 N.ar    1  UNL1       -0.2223
     12 C         -10.4939  -15.5361   19.6902 C.ar    1  UNL1        0.1788
     13 N         -10.6757  -16.2963   20.9704 N.ar    1  UNL1       -0.3068
     14 C          -8.4676  -16.8798   22.3593 C.3     1  UNL1        0.0565
     15 O          -7.5105  -14.4941   21.9820 O.3     1  UNL1       -0.3844
     16 C          -7.8063  -15.6455   22.8968 C.3     1  UNL1        0.1127
     17 H          -7.8082  -14.7097   21.0843 H       1  UNL1        0.2103
     18 C          -7.4407  -15.5624   24.3492 C.3     1  UNL1        0.0270
     19 C          -8.5177  -15.5146   25.3922 C.3     1  UNL1        0.0024
     20 C          -8.1522  -15.4315   26.8446 C.3     1  UNL1        0.0001
     21 C          -6.7096  -15.3963   27.2540 C.3     1  UNL1        0.0000
     22 C          -5.6325  -15.4441   26.2111 C.3     1  UNL1        0.0001
     23 C          -5.9981  -15.5272   24.7587 C.3     1  UNL1        0.0024
@<TRIPOS>BOND
     1    15    16    1
     2    16    14    1
     3    14     1    1
     4     1     2    1
     5     2     3   ar
     6     3     4    1
     7     3     5   ar
     8     5     6   ar
     9     6     7   ar
    10     7     8   ar
    11     8     9    1
    12     9    10   ar
    13    10    11   ar
    14    11    12   ar
    15    12    13   ar
    16    16    18    1
    17    18    19    1
    18    19    20    1
    19    20    21    1
    20    21    22    1
    21    22    23    1
    22    13     1    1
    23    23    18    1
    24     8     2   ar
    25    13     9   ar
    26    15    17    1
@<TRIPOS>MOLECULE
*****
 23 26 0 0 0
SMALL
GASTEIGER

@<TRIPOS>ATOM
      1 C          -4.1457  -17.8048   22.4606 C.3     1  UNL1        0.1140
      2 C          -3.1099  -17.7132   21.3794 C.ar    1  UNL1        0.0273
      3 C          -1.8888  -16.8551   21.2295 C.ar    1  UNL1        0.1379
      4 F          -1.5329  -15.8638   22.2974 F       1  UNL1       -0.2044
      5 C          -1.0234  -16.9885   20.0115 C.ar    1  UNL1        0.0294
      6 C          -1.3793  -17.9798   18.9436 C.ar    1  UNL1        0.0023
      7 C          -2.6005  -18.8379   19.0935 C.ar    1  UNL1        0.0014
      8 C          -3.4658  -18.7046   20.3114 C.ar    1  UNL1        0.0173
      9 C          -4.7215  -19.4089   20.7325 C.ar    1  UNL1        0.0804
     10 C          -5.7174  -20.4569   20.3327 C.ar    1  UNL1        0.1178
     11 N          -6.7531  -20.5484   21.4138 N.ar    1  UNL1       -0.2223
     12 C          -6.3973  -19.5571   22.4818 C.ar    1  UNL1        0.1788
     13 N          -5.1416  -18.8528   22.0608 N.ar    1  UNL1       -0.3068
     14 C          -4.1795  -16.9913   23.7204 C.3     1  UNL1        0.0565
     15 O          -4.7823  -14.6278   22.8255 O.3     1  UNL1       -0.3844
     16 C          -5.0209  -15.7515   23.7902 C.3     1  UNL1        0.1127
     17 H          -4.0545  -14.8629   22.2289 H       1  UNL1        0.2103
     18 C          -6.1010  -15.6353   24.8245 C.3     1  UNL1        0.0270
     19 C          -5.7403  -15.5215   26.2760 C.3     1  UNL1        0.0024
     20 C          -6.8203  -15.4053   27.3104 C.3     1  UNL1        0.0001
     21 C          -8.2611  -15.4029   26.8933 C.3     1  UNL1        0.0000
     22 C          -8.6219  -15.5167   25.4417 C.3     1  UNL1        0.0001
     23 C          -7.5419  -15.6329   24.4074 C.3     1  UNL1        0.0024
@<TRIPOS>BOND
     1    15    16    1
     2    16    14    1
     3    14     1    1
     4     1     2    1
     5     2     3   ar
     6     3     4    1
     7     3     5   ar
     8     5     6   ar
     9     6     7   ar
    10     7     8   ar
    11     8     9    1
    12     9    10   ar
    13    10    11   ar
    14    11    12   ar
    15    12    13   ar
    16    16    18    1
    17    18    19    1
    18    19    20    1
    19    20    21    1
    20    21    22    1
    21    22    23    1
    22    13     1    1
    23    23    18    1
    24     8     2   ar
    25    13     9   ar
    26    15    17    1
@<TRIPOS>MOLECULE
*****
 23 26 0 0 0
SMALL
GASTEIGER

@<TRIPOS>ATOM
      1 C          -8.7434  -17.7547   21.8675 C.3     1  UNL1        0.1140
      2 C          -8.7028  -18.7213   20.7210 C.ar    1  UNL1        0.0273
      3 C          -7.5684  -19.4442   20.0574 C.ar    1  UNL1        0.1379
      4 F          -6.1639  -19.2431   20.5440 F       1  UNL1       -0.2044
      5 C          -7.8386  -20.3683   18.9071 C.ar    1  UNL1        0.0294
      6 C          -9.2431  -20.5693   18.4205 C.ar    1  UNL1        0.0023
      7 C         -10.3776  -19.8464   19.0842 C.ar    1  UNL1        0.0014
      8 C         -10.1074  -18.9223   20.2344 C.ar    1  UNL1        0.0173
      9 C         -11.0160  -18.0801   21.0801 C.ar    1  UNL1        0.0804
     10 C         -12.4456  -17.6839   21.3020 C.ar    1  UNL1        0.1178
     11 N         -12.4861  -16.7174   22.4484 N.ar    1  UNL1       -0.2223
     12 C         -11.0815  -16.5163   22.9350 C.ar    1  UNL1        0.1788
     13 N         -10.1730  -17.3585   22.0893 N.ar    1  UNL1       -0.3068
     14 C          -7.5617  -17.2696   22.6539 C.3     1  UNL1        0.0565
     15 O          -7.7280  -14.7076   22.2559 O.3     1  UNL1       -0.3844
     16 C          -7.5403  -15.8680   23.1877 C.3     1  UNL1        0.1127
     17 H          -7.8495  -15.0358   21.3512 H       1  UNL1        0.2103
     18 C          -7.3313  -15.6268   24.6533 C.3     1  UNL1        0.0270
     19 C          -5.9497  -15.3820   25.1836 C.3     1  UNL1        0.0024
     20 C          -5.7406  -15.1408   26.6492 C.3     1  UNL1        0.0001
     21 C          -6.9132  -15.1442   27.5846 C.3     1  UNL1        0.0000
     22 C          -8.2949  -15.3890   27.0544 C.3     1  UNL1        0.0001
     23 C          -8.5040  -15.6302   25.5888 C.3     1  UNL1        0.0024
@<TRIPOS>BOND
     1    15    16    1
     2    16    14    1
     3    14     1    1
     4     1     2    1
     5     2     3   ar
     6     3     4    1
     7     3     5   ar
     8     5     6   ar
     9     6     7   ar
    10     7     8   ar
    11     8     9    1
    12     9    10   ar
    13    10    11   ar
    14    11    12   ar
    15    12    13   ar
    16    16    18    1
    17    18    19    1
    18    19    20    1
    19    20    21    1
    20    21    22    1
    21    22    23    1
    22    13     1    1
    23    23    18    1
    24     8     2   ar
    25    13     9   ar
    26    15    17    1
@<TRIPOS>MOLECULE
*****
 23 26 0 0 0
SMALL
GASTEIGER

@<TRIPOS>ATOM
      1 C          -6.6399  -18.1640   22.3926 C.3     1  UNL1        0.1140
      2 C          -5.2159  -18.5794   22.1694 C.ar    1  UNL1        0.0273
      3 C          -4.6095  -19.6998   21.3776 C.ar    1  UNL1        0.1379
      4 F          -5.4928  -20.6497   20.6245 F       1  UNL1       -0.2044
      5 C          -3.1197  -19.8703   21.3390 C.ar    1  UNL1        0.0294
      6 C          -2.2364  -18.9204   22.0922 C.ar    1  UNL1        0.0023
      7 C          -2.8427  -17.7999   22.8840 C.ar    1  UNL1        0.0014
      8 C          -4.3325  -17.6294   22.9226 C.ar    1  UNL1        0.0173
      9 C          -5.2105  -16.6270   23.6113 C.ar    1  UNL1        0.0804
     10 C          -5.2071  -15.4204   24.5024 C.ar    1  UNL1        0.1178
     11 N          -6.6311  -15.0051   24.7256 N.ar    1  UNL1       -0.2223
     12 C          -7.5145  -15.9550   23.9724 C.ar    1  UNL1        0.1788
     13 N          -6.6365  -16.9574   23.2837 N.ar    1  UNL1       -0.3068
     14 C          -7.8540  -18.8371   21.8245 C.3     1  UNL1        0.0565
     15 O          -8.8691  -20.4192   23.6180 O.3     1  UNL1       -0.3844
     16 C          -8.9904  -19.2195   22.7258 C.3     1  UNL1        0.1127
     17 H          -8.0003  -20.8309   23.4899 H       1  UNL1        0.2103
     18 C         -10.2481  -18.4021   22.7349 C.3     1  UNL1        0.0270
     19 C         -10.3058  -17.1060   21.9821 C.3     1  UNL1        0.0024
     20 C         -11.5635  -16.2886   21.9912 C.3     1  UNL1        0.0001
     21 C         -12.7636  -16.7674   22.7531 C.3     1  UNL1        0.0000
     22 C         -12.7060  -18.0636   23.5059 C.3     1  UNL1        0.0001
     23 C         -11.4483  -18.8809   23.4968 C.3     1  UNL1        0.0024
@<TRIPOS>BOND
     1    15    16    1
     2    16    14    1
     3    14     1    1
     4     1     2    1
     5     2     3   ar
     6     3     4    1
     7     3     5   ar
     8     5     6   ar
     9     6     7   ar
    10     7     8   ar
    11     8     9    1
    12     9    10   ar
    13    10    11   ar
    14    11    12   ar
    15    12    13   ar
    16    16    18    1
    17    18    19    1
    18    19    20    1
    19    20    21    1
    20    21    22    1
    21    22    23    1
    22    13     1    1
    23    23    18    1
    24     8     2   ar
    25    13     9   ar
    26    15    17    1
@<TRIPOS>MOLECULE
*****
 23 26 0 0 0
SMALL
GASTEIGER

@<TRIPOS>ATOM
      1 C          -8.1476  -18.1830   22.3788 C.3     1  UNL1        0.1140
      2 C          -9.6240  -17.9361   22.2817 C.ar    1  UNL1        0.0273
      3 C         -10.7323  -18.7175   21.6405 C.ar    1  UNL1        0.1379
      4 F         -10.4302  -20.0051   20.9330 F       1  UNL1       -0.2044
      5 C         -12.1427  -18.2111   21.7068 C.ar    1  UNL1        0.0294
      6 C         -12.4447  -16.9234   22.4143 C.ar    1  UNL1        0.0023
      7 C         -11.3365  -16.1421   23.0555 C.ar    1  UNL1        0.0014
      8 C          -9.9261  -16.6484   22.9893 C.ar    1  UNL1        0.0173
      9 C          -8.6365  -16.0994   23.5236 C.ar    1  UNL1        0.0804
     10 C          -8.0262  -14.9643   24.2911 C.ar    1  UNL1        0.1178
     11 N          -6.5498  -15.2113   24.3882 N.ar    1  UNL1       -0.2223
     12 C          -6.2477  -16.4990   23.6807 C.ar    1  UNL1        0.1788
     13 N          -7.5373  -17.0479   23.1463 N.ar    1  UNL1       -0.3068
     14 C          -7.4109  -19.3586   21.8085 C.3     1  UNL1        0.0565
     15 O          -7.2491  -19.0278   19.2367 O.3     1  UNL1       -0.3844
     16 C          -6.5815  -19.1947   20.5695 C.3     1  UNL1        0.1127
     17 H          -8.2119  -19.0484   19.3525 H       1  UNL1        0.2103
     18 C          -5.0844  -19.1978   20.6633 C.3     1  UNL1        0.0270
     19 C          -4.4158  -19.4777   21.9766 C.3     1  UNL1        0.0024
     20 C          -2.9187  -19.4808   22.0703 C.3     1  UNL1        0.0001
     21 C          -2.0903  -19.2040   20.8509 C.3     1  UNL1        0.0000
     22 C          -2.7589  -18.9242   19.5376 C.3     1  UNL1        0.0001
     23 C          -4.2560  -18.9211   19.4438 C.3     1  UNL1        0.0024
@<TRIPOS>BOND
     1    15    16    1
     2    16    14    1
     3    14     1    1
     4     1     2    1
     5     2     3   ar
     6     3     4    1
     7     3     5   ar
     8     5     6   ar
     9     6     7   ar
    10     7     8   ar
    11     8     9    1
    12     9    10   ar
    13    10    11   ar
    14    11    12   ar
    15    12    13   ar
    16    16    18    1
    17    18    19    1
    18    19    20    1
    19    20    21    1
    20    21    22    1
    21    22    23    1
    22    13     1    1
    23    23    18    1
    24     8     2   ar
    25    13     9   ar
    26    15    17    1
@<TRIPOS>MOLECULE
*****
 23 26 0 0 0
SMALL
GASTEIGER

@<TRIPOS>ATOM
      1 C          -7.2368  -18.3448   21.9920 C.3     1  UNL1        0.1140
      2 C          -5.8579  -18.8655   21.7129 C.ar    1  UNL1        0.0273
      3 C          -4.5476  -18.6631   22.4142 C.ar    1  UNL1        0.1379
      4 F          -4.4772  -17.7974   23.6370 F       1  UNL1       -0.2044
      5 C          -3.3074  -19.3266   21.8926 C.ar    1  UNL1        0.0294
      6 C          -3.3779  -20.1924   20.6698 C.ar    1  UNL1        0.0023
      7 C          -4.6882  -20.3948   19.9684 C.ar    1  UNL1        0.0014
      8 C          -5.9283  -19.7314   20.4900 C.ar    1  UNL1        0.0173
      9 C          -7.3505  -19.7458   20.0134 C.ar    1  UNL1        0.0804
     10 C          -8.2729  -20.2898   18.9630 C.ar    1  UNL1        0.1178
     11 N          -9.6517  -19.7691   19.2422 N.ar    1  UNL1       -0.2223
     12 C          -9.5814  -18.9032   20.4651 C.ar    1  UNL1        0.1788
     13 N          -8.1592  -18.8888   20.9417 N.ar    1  UNL1       -0.3068
     14 C          -7.6249  -17.4391   23.1230 C.3     1  UNL1        0.0565
     15 O          -8.4868  -15.0474   22.5873 O.3     1  UNL1       -0.3844
     16 C          -8.7620  -16.4752   22.9556 C.3     1  UNL1        0.1127
     17 H          -7.5301  -14.9156   22.4962 H       1  UNL1        0.2103
     18 C         -10.1742  -16.9392   23.1564 C.3     1  UNL1        0.0270
     19 C         -11.2999  -16.2429   22.4507 C.3     1  UNL1        0.0024
     20 C         -12.7121  -16.7069   22.6515 C.3     1  UNL1        0.0001
     21 C         -12.9987  -17.8670   23.5580 C.3     1  UNL1        0.0000
     22 C         -11.8730  -18.5634   24.2638 C.3     1  UNL1        0.0001
     23 C         -10.4607  -18.0994   24.0630 C.3     1  UNL1        0.0024
@<TRIPOS>BOND
     1    15    16    1
     2    16    14    1
     3    14     1    1
     4     1     2    1
     5     2     3   ar
     6     3     4    1
     7     3     5   ar
     8     5     6   ar
     9     6     7   ar
    10     7     8   ar
    11     8     9    1
    12     9    10   ar
    13    10    11   ar
    14    11    12   ar
    15    12    13   ar
    16    16    18    1
    17    18    19    1
    18    19    20    1
    19    20    21    1
    20    21    22    1
    21    22    23    1
    22    13     1    1
    23    23    18    1
    24     8     2   ar
    25    13     9   ar
    26    15    17    1
@<TRIPOS>MOLECULE
*****
 23 26 0 0 0
SMALL
GASTEIGER

@<TRIPOS>ATOM
      1 C          -7.9095  -18.0864   21.9121 C.3     1  UNL1        0.1140
      2 C          -8.5243  -18.8310   20.7642 C.ar    1  UNL1        0.0273
      3 C          -9.9193  -18.8518   20.2132 C.ar    1  UNL1        0.1379
      4 F         -10.9881  -18.0107   20.8457 F       1  UNL1       -0.2044
      5 C         -10.2454  -19.7137   19.0296 C.ar    1  UNL1        0.0294
      6 C          -9.1765  -20.5547   18.3971 C.ar    1  UNL1        0.0023
      7 C          -7.7815  -20.5340   18.9481 C.ar    1  UNL1        0.0014
      8 C          -7.4554  -19.6721   20.1317 C.ar    1  UNL1        0.0173
      9 C          -6.1801  -19.4473   20.8886 C.ar    1  UNL1        0.0804
     10 C          -4.7313  -19.8283   20.9655 C.ar    1  UNL1        0.1178
     11 N          -4.1166  -19.0837   22.1134 N.ar    1  UNL1       -0.2223
     12 C          -5.1854  -18.2426   22.7460 C.ar    1  UNL1        0.1788
     13 N          -6.4607  -18.4673   21.9890 N.ar    1  UNL1       -0.3068
     14 C          -8.6190  -17.1290   22.8232 C.3     1  UNL1        0.0565
     15 O          -7.7434  -14.7677   22.1845 O.3     1  UNL1       -0.3844
     16 C          -7.9623  -15.8379   23.2126 C.3     1  UNL1        0.1127
     17 H          -8.0815  -15.0693   21.3268 H       1  UNL1        0.2103
     18 C          -7.5244  -15.6168   24.6302 C.3     1  UNL1        0.0270
     19 C          -6.0772  -15.3709   24.9384 C.3     1  UNL1        0.0024
     20 C          -5.6394  -15.1498   26.3560 C.3     1  UNL1        0.0001
     21 C          -6.6488  -15.1747   27.4652 C.3     1  UNL1        0.0000
     22 C          -8.0961  -15.4207   27.1570 C.3     1  UNL1        0.0001
     23 C          -8.5339  -15.6417   25.7395 C.3     1  UNL1        0.0024
@<TRIPOS>BOND
     1    15    16    1
     2    16    14    1
     3    14     1    1
     4     1     2    1
     5     2     3   ar
     6     3     4    1
     7     3     5   ar
     8     5     6   ar
     9     6     7   ar
    10     7     8   ar
    11     8     9    1
    12     9    10   ar
    13    10    11   ar
    14    11    12   ar
    15    12    13   ar
    16    16    18    1
    17    18    19    1
    18    19    20    1
    19    20    21    1
    20    21    22    1
    21    22    23    1
    22    13     1    1
    23    23    18    1
    24     8     2   ar
    25    13     9   ar
    26    15    17    1
@<TRIPOS>MOLECULE
*****
 23 26 0 0 0
SMALL
GASTEIGER

@<TRIPOS>ATOM
      1 C          -7.1205  -18.8607   21.8808 C.3     1  UNL1        0.1140
      2 C          -6.5995  -17.7535   22.7485 C.ar    1  UNL1        0.0273
      3 C          -7.2961  -16.7152   23.5772 C.ar    1  UNL1        0.1379
      4 F          -8.7947  -16.6766   23.6265 F       1  UNL1       -0.2044
      5 C          -6.4939  -15.7155   24.3565 C.ar    1  UNL1        0.0294
      6 C          -4.9953  -15.7542   24.3070 C.ar    1  UNL1        0.0023
      7 C          -4.2987  -16.7925   23.4784 C.ar    1  UNL1        0.0014
      8 C          -5.1007  -17.7922   22.6991 C.ar    1  UNL1        0.0173
      9 C          -4.6955  -18.9232   21.8010 C.ar    1  UNL1        0.0804
     10 C          -3.5189  -19.6461   21.2154 C.ar    1  UNL1        0.1178
     11 N          -4.0399  -20.7532   20.3478 N.ar    1  UNL1       -0.2223
     12 C          -5.5386  -20.7145   20.3971 C.ar    1  UNL1        0.1788
     13 N          -5.9438  -19.5835   21.2953 N.ar    1  UNL1       -0.3068
     14 C          -8.5647  -19.1875   21.6409 C.3     1  UNL1        0.0565
     15 O          -8.9344  -20.7302   23.6985 O.3     1  UNL1       -0.3844
     16 C          -9.4266  -19.6544   22.7762 C.3     1  UNL1        0.1127
     17 H          -8.0482  -21.0121   23.4226 H       1  UNL1        0.2103
     18 C         -10.7808  -19.0456   22.9894 C.3     1  UNL1        0.0270
     19 C         -11.4992  -18.3949   21.8446 C.3     1  UNL1        0.0024
     20 C         -12.8534  -17.7861   22.0578 C.3     1  UNL1        0.0001
     21 C         -13.4893  -17.8280   23.4157 C.3     1  UNL1        0.0000
     22 C         -12.7709  -18.4787   24.5605 C.3     1  UNL1        0.0001
     23 C         -11.4166  -19.0875   24.3474 C.3     1  UNL1        0.0024
@<TRIPOS>BOND
     1    15    16    1
     2    16    14    1
     3    14     1    1
     4     1     2    1
     5     2     3   ar
     6     3     4    1
     7     3     5   ar
     8     5     6   ar
     9     6     7   ar
    10     7     8   ar
    11     8     9    1
    12     9    10   ar
    13    10    11   ar
    14    11    12   ar
    15    12    13   ar
    16    16    18    1
    17    18    19    1
    18    19    20    1
    19    20    21    1
    20    21    22    1
    21    22    23    1
    22    13     1    1
    23    23    18    1
    24     8     2   ar
    25    13     9   ar
    26    15    17    1
@<TRIPOS>MOLECULE
*****
 23 26 0 0 0
SMALL
GASTEIGER

@<TRIPOS>ATOM
      1 C          -8.1497  -17.8783   21.9936 C.3     1  UNL1        0.1140
      2 C          -7.8081  -16.9930   23.1554 C.ar    1  UNL1        0.0273
      3 C          -6.4997  -16.4636   23.6632 C.ar    1  UNL1        0.1379
      4 F          -5.2234  -16.8176   22.9593 F       1  UNL1       -0.2044
      5 C          -6.4678  -15.5800   24.8750 C.ar    1  UNL1        0.0294
      6 C          -7.7441  -15.2260   25.5788 C.ar    1  UNL1        0.0023
      7 C          -9.0525  -15.7554   25.0710 C.ar    1  UNL1        0.0014
      8 C          -9.0845  -16.6389   23.8592 C.ar    1  UNL1        0.0173
      9 C         -10.2149  -17.3053   23.1325 C.ar    1  UNL1        0.0804
     10 C         -11.7024  -17.4983   23.1185 C.ar    1  UNL1        0.1178
     11 N         -12.0439  -18.3836   21.9567 N.ar    1  UNL1       -0.2223
     12 C         -10.7675  -18.7377   21.2528 C.ar    1  UNL1        0.1788
     13 N          -9.6371  -18.0713   21.9795 N.ar    1  UNL1       -0.3068
     14 C          -7.1749  -18.4671   21.0173 C.3     1  UNL1        0.0565
     15 O          -6.6184  -20.6604   22.2939 O.3     1  UNL1       -0.3844
     16 C          -6.1723  -19.4829   21.4787 C.3     1  UNL1        0.1127
     17 H          -7.5774  -20.6136   22.4318 H       1  UNL1        0.2103
     18 C          -4.7236  -19.3213   21.1248 C.3     1  UNL1        0.0270
     19 C          -4.3283  -18.9858   19.7174 C.3     1  UNL1        0.0024
     20 C          -2.8796  -18.8242   19.3635 C.3     1  UNL1        0.0001
     21 C          -1.8263  -18.9981   20.4172 C.3     1  UNL1        0.0000
     22 C          -2.2216  -19.3337   21.8248 C.3     1  UNL1        0.0001
     23 C          -3.6703  -19.4953   22.1786 C.3     1  UNL1        0.0024
@<TRIPOS>BOND
     1    15    16    1
     2    16    14    1
     3    14     1    1
     4     1     2    1
     5     2     3   ar
     6     3     4    1
     7     3     5   ar
     8     5     6   ar
     9     6     7   ar
    10     7     8   ar
    11     8     9    1
    12     9    10   ar
    13    10    11   ar
    14    11    12   ar
    15    12    13   ar
    16    16    18    1
    17    18    19    1
    18    19    20    1
    19    20    21    1
    20    21    22    1
    21    22    23    1
    22    13     1    1
    23    23    18    1
    24     8     2   ar
    25    13     9   ar
    26    15    17    1
