@<TRIPOS>MOLECULE
*****
 30 33 0 0 0
SMALL
GASTEIGER

@<TRIPOS>ATOM
      1 C          -9.0239  -17.1986   23.7658 C.ar    1  UNL1        0.0930
      2 C          -9.8591  -16.6601   24.8893 C.ar    1  UNL1        0.1067
      3 N          -8.9903  -15.7693   25.7269 N.ar    1  UNL1       -0.2252
      4 C          -7.6181  -15.7573   25.1211 C.ar    1  UNL1        0.1586
      5 N          -6.3525  -15.0561   25.5165 N.ar    1  UNL1       -0.3349
      6 C          -5.1076  -15.2384   24.6999 C.ar    1  UNL1        0.0945
      7 C          -5.1283  -16.1218   23.4878 C.ar    1  UNL1        0.1177
      8 N          -6.3940  -16.8230   23.0924 N.ar    1  UNL1       -0.2390
      9 C          -7.6389  -16.6407   23.9090 C.ar    1  UNL1        0.1210
     10 H          -6.3388  -14.4763   26.3120 H       1  UNL1        0.1675
     11 C          -3.8834  -16.3040   22.6711 C.2     1  UNL1        0.1230
     12 N          -2.9143  -15.2250   22.2882 N.2     1  UNL1       -0.1467
     13 N          -1.8209  -15.8513   21.4744 N.2     1  UNL1       -0.1519
     14 C          -2.1142  -17.3175   21.3544 C.2     1  UNL1        0.0882
     15 C          -1.3853  -18.4339   20.6672 C.3     1  UNL1        0.0933
     16 C          -1.9310  -19.8301   20.7196 C.2     1  UNL1       -0.0179
     17 C          -3.2057  -20.1099   21.4592 C.2     1  UNL1       -0.0040
     18 C          -3.9346  -18.9935   22.1464 C.2     1  UNL1        0.0025
     19 C          -3.3889  -17.5972   22.0940 C.2     1  UNL1        0.0366
     20 C          -0.1106  -18.1541   19.9276 C.3     1  UNL1        0.1474
     21 O           0.3584  -16.7404   19.7500 O.3     1  UNL1       -0.3812
     22 H          -0.2664  -16.2612   19.1837 H       1  UNL1        0.2105
     23 N          -9.1402  -17.8586   21.2556 N.am    1  UNL1       -0.3039
     24 C          -9.4916  -18.1314   22.6882 C.2     1  UNL1        0.2488
     25 O         -10.3105  -19.3369   23.0430 O.2     1  UNL1       -0.2700
     26 H          -8.6026  -17.0674   21.0226 H       1  UNL1        0.1496
     27 C          -8.2932  -19.5118   20.2311 C.3     1  UNL1        0.0196
     28 C          -9.6078  -18.7914   20.1779 C.3     1  UNL1        0.0572
     29 C         -10.9224  -18.0710   20.1248 C.3     1  UNL1        0.0196
     30 C         -10.0754  -19.7241   19.1004 C.3     1  UNL1        0.0196
@<TRIPOS>BOND
     1    27    28    1
     2    28    29    1
     3    28    30    1
     4    28    23    1
     5    23    24   am
     6    24    25    2
     7    24     1    1
     8     1     2   ar
     9     2     3   ar
    10     3     4   ar
    11     4     5   ar
    12     5     6   ar
    13     6     7   ar
    14     7    11    1
    15    11    12    2
    16    12    13    1
    17    13    14    2
    18    14    15    1
    19    15    20    1
    20    20    21    1
    21    15    16    1
    22    16    17    2
    23    17    18    1
    24    18    19    2
    25     7     8   ar
    26     8     9   ar
    27     9     1   ar
    28     9     4    1
    29    19    11    1
    30    19    14    1
    31    23    26    1
    32     5    10    1
    33    21    22    1
@<TRIPOS>MOLECULE
*****
 30 33 0 0 0
SMALL
GASTEIGER

@<TRIPOS>ATOM
      1 C          -9.6308  -17.9501   24.2440 C.ar    1  UNL1        0.0930
      2 C         -11.1012  -18.2329   24.1556 C.ar    1  UNL1        0.1067
      3 N         -11.3723  -18.8645   22.8223 N.ar    1  UNL1       -0.2252
      4 C         -10.0695  -18.9722   22.0868 C.ar    1  UNL1        0.1586
      5 N          -9.7242  -19.5118   20.7305 N.ar    1  UNL1       -0.3349
      6 C          -8.3025  -19.4862   20.2529 C.ar    1  UNL1        0.0945
      7 C          -7.2262  -18.9211   21.1316 C.ar    1  UNL1        0.1177
      8 N          -7.5714  -18.3815   22.4879 N.ar    1  UNL1       -0.2390
      9 C          -8.9931  -18.4070   22.9655 C.ar    1  UNL1        0.1210
     10 H         -10.4307  -19.8827   20.1538 H       1  UNL1        0.1675
     11 C          -5.8044  -18.8956   20.6539 C.2     1  UNL1        0.1230
     12 N          -5.3342  -19.2219   19.2674 N.2     1  UNL1       -0.1467
     13 N          -3.8425  -19.0673   19.2354 N.2     1  UNL1       -0.1519
     14 C          -3.3909  -18.6455   20.6022 C.2     1  UNL1        0.0882
     15 C          -2.0321  -18.3443   21.1618 C.3     1  UNL1        0.0933
     16 C          -1.8859  -17.9370   22.5979 C.2     1  UNL1       -0.0179
     17 C          -3.0985  -17.8308   23.4747 C.2     1  UNL1       -0.0040
     18 C          -4.4572  -18.1320   22.9151 C.2     1  UNL1        0.0025
     19 C          -4.6034  -18.5394   21.4789 C.2     1  UNL1        0.0366
     20 C          -0.8196  -18.4504   20.2850 C.3     1  UNL1        0.1474
     21 O          -0.8767  -17.9708   18.8649 O.3     1  UNL1       -0.3812
     22 H          -1.4910  -18.5266   18.3604 H       1  UNL1        0.2105
     23 N          -8.0302  -16.1348   25.1891 N.am    1  UNL1       -0.3039
     24 C          -8.9223  -17.3210   25.4069 C.2     1  UNL1        0.2488
     25 O          -9.1058  -17.8778   26.7875 O.2     1  UNL1       -0.2700
     26 H          -7.9097  -15.7693   24.2829 H       1  UNL1        0.1496
     27 C          -8.6436  -15.1985   26.9910 C.3     1  UNL1        0.0196
     28 C          -7.3218  -15.5056   26.3519 C.3     1  UNL1        0.0572
     29 C          -5.9999  -15.8128   25.7128 C.3     1  UNL1        0.0196
     30 C          -6.6134  -14.8765   27.5147 C.3     1  UNL1        0.0196
@<TRIPOS>BOND
     1    27    28    1
     2    28    29    1
     3    28    30    1
     4    28    23    1
     5    23    24   am
     6    24    25    2
     7    24     1    1
     8     1     2   ar
     9     2     3   ar
    10     3     4   ar
    11     4     5   ar
    12     5     6   ar
    13     6     7   ar
    14     7    11    1
    15    11    12    2
    16    12    13    1
    17    13    14    2
    18    14    15    1
    19    15    20    1
    20    20    21    1
    21    15    16    1
    22    16    17    2
    23    17    18    1
    24    18    19    2
    25     7     8   ar
    26     8     9   ar
    27     9     1   ar
    28     9     4    1
    29    19    11    1
    30    19    14    1
    31    23    26    1
    32     5    10    1
    33    21    22    1
@<TRIPOS>MOLECULE
*****
 30 33 0 0 0
SMALL
GASTEIGER

@<TRIPOS>ATOM
      1 C          -9.0656  -17.1879   23.1633 C.ar    1  UNL1        0.0930
      2 C         -10.4596  -17.4555   22.6784 C.ar    1  UNL1        0.1067
      3 N         -10.3702  -18.3671   21.4906 N.ar    1  UNL1       -0.2252
      4 C          -8.9210  -18.6630   21.2414 C.ar    1  UNL1        0.1586
      5 N          -8.2313  -19.5019   20.2067 N.ar    1  UNL1       -0.3349
      6 C          -6.7354  -19.6120   20.2059 C.ar    1  UNL1        0.0945
      7 C          -5.9291  -18.8832   21.2397 C.ar    1  UNL1        0.1177
      8 N          -6.6187  -18.0443   22.2744 N.ar    1  UNL1       -0.2390
      9 C          -8.1147  -17.9342   22.2752 C.ar    1  UNL1        0.1210
     10 H          -8.7605  -19.9802   19.5282 H       1  UNL1        0.1675
     11 C          -4.4331  -18.9934   21.2387 C.2     1  UNL1        0.1230
     12 N          -3.5968  -19.6507   22.2963 N.2     1  UNL1       -0.1467
     13 N          -2.1576  -19.5291   21.8913 N.2     1  UNL1       -0.1519
     14 C          -2.1045  -18.7966   20.5834 C.2     1  UNL1        0.0882
     15 C          -0.9573  -18.3883   19.7075 C.3     1  UNL1        0.0933
     16 C          -1.2163  -17.6489   18.4285 C.2     1  UNL1       -0.0179
     17 C          -2.6227  -17.3178   18.0251 C.2     1  UNL1       -0.0040
     18 C          -3.7699  -17.7261   18.9010 C.2     1  UNL1        0.0025
     19 C          -3.5108  -18.4655   20.1801 C.2     1  UNL1        0.0366
     20 C           0.4491  -18.7195   20.1109 C.3     1  UNL1        0.1474
     21 O           1.3175  -17.6678   20.7354 O.3     1  UNL1       -0.3812
     22 H           1.4949  -16.9683   20.0873 H       1  UNL1        0.2105
     23 N          -7.4827  -16.6652   25.1562 N.am    1  UNL1       -0.3039
     24 C          -8.6887  -16.3255   24.3313 C.2     1  UNL1        0.2488
     25 O          -9.5176  -15.1234   24.6745 O.2     1  UNL1       -0.2700
     26 H          -6.9386  -17.4542   24.9310 H       1  UNL1        0.1496
     27 C          -8.1711  -16.4585   27.1520 C.3     1  UNL1        0.0196
     28 C          -7.1058  -15.8028   26.3242 C.3     1  UNL1        0.0572
     29 C          -6.0406  -15.1471   25.4963 C.3     1  UNL1        0.0196
     30 C          -6.7289  -14.9404   27.4921 C.3     1  UNL1        0.0196
@<TRIPOS>BOND
     1    27    28    1
     2    28    29    1
     3    28    30    1
     4    28    23    1
     5    23    24   am
     6    24    25    2
     7    24     1    1
     8     1     2   ar
     9     2     3   ar
    10     3     4   ar
    11     4     5   ar
    12     5     6   ar
    13     6     7   ar
    14     7    11    1
    15    11    12    2
    16    12    13    1
    17    13    14    2
    18    14    15    1
    19    15    20    1
    20    20    21    1
    21    15    16    1
    22    16    17    2
    23    17    18    1
    24    18    19    2
    25     7     8   ar
    26     8     9   ar
    27     9     1   ar
    28     9     4    1
    29    19    11    1
    30    19    14    1
    31    23    26    1
    32     5    10    1
    33    21    22    1
@<TRIPOS>MOLECULE
*****
 30 33 0 0 0
SMALL
GASTEIGER

@<TRIPOS>ATOM
      1 C          -3.8983  -18.7566   22.0175 C.ar    1  UNL1        0.0930
      2 C          -2.7816  -19.5454   21.4004 C.ar    1  UNL1        0.1067
      3 N          -3.3820  -20.5123   20.4233 N.ar    1  UNL1       -0.2252
      4 C          -4.8697  -20.3211   20.4365 C.ar    1  UNL1        0.1586
      5 N          -5.9750  -20.9948   19.6787 N.ar    1  UNL1       -0.3349
      6 C          -7.3994  -20.5834   19.9061 C.ar    1  UNL1        0.0945
      7 C          -7.7185  -19.4983   20.8914 C.ar    1  UNL1        0.1177
      8 N          -6.6132  -18.8246   21.6492 N.ar    1  UNL1       -0.2390
      9 C          -5.1888  -19.2360   21.4218 C.ar    1  UNL1        0.1210
     10 H          -5.7655  -21.7070   19.0320 H       1  UNL1        0.1675
     11 C          -9.1430  -19.0870   21.1188 C.2     1  UNL1        0.1230
     12 N         -10.1032  -18.6157   20.0672 N.2     1  UNL1       -0.1467
     13 N         -11.4110  -18.3122   20.7361 N.2     1  UNL1       -0.1519
     14 C         -11.2591  -18.5959   22.2012 C.2     1  UNL1        0.0882
     15 C         -12.2159  -18.4800   23.3506 C.3     1  UNL1        0.0933
     16 C         -11.7712  -18.8430   24.7363 C.2     1  UNL1       -0.0179
     17 C         -10.3694  -19.3219   24.9728 C.2     1  UNL1       -0.0040
     18 C          -9.4126  -19.4377   23.8235 C.2     1  UNL1        0.0025
     19 C          -9.8574  -19.0747   22.4377 C.2     1  UNL1        0.0366
     20 C         -13.6177  -18.0011   23.1140 C.3     1  UNL1        0.1474
     21 O         -14.6214  -18.0397   24.2280 O.3     1  UNL1       -0.3812
     22 H         -14.8031  -18.9619   24.4677 H       1  UNL1        0.2105
     23 N          -4.9410  -17.2349   23.8471 N.am    1  UNL1       -0.3039
     24 C          -3.7505  -17.6778   23.0492 C.2     1  UNL1        0.2488
     25 O          -2.4123  -17.0419   23.2830 O.2     1  UNL1       -0.2700
     26 H          -5.8194  -17.6522   23.6937 H       1  UNL1        0.1496
     27 C          -5.2788  -15.1410   23.8868 C.3     1  UNL1        0.0196
     28 C          -4.7932  -16.1561   24.8788 C.3     1  UNL1        0.0572
     29 C          -4.3077  -17.1712   25.8707 C.3     1  UNL1        0.0196
     30 C          -4.6454  -15.0774   25.9104 C.3     1  UNL1        0.0196
@<TRIPOS>BOND
     1    27    28    1
     2    28    29    1
     3    28    30    1
     4    28    23    1
     5    23    24   am
     6    24    25    2
     7    24     1    1
     8     1     2   ar
     9     2     3   ar
    10     3     4   ar
    11     4     5   ar
    12     5     6   ar
    13     6     7   ar
    14     7    11    1
    15    11    12    2
    16    12    13    1
    17    13    14    2
    18    14    15    1
    19    15    20    1
    20    20    21    1
    21    15    16    1
    22    16    17    2
    23    17    18    1
    24    18    19    2
    25     7     8   ar
    26     8     9   ar
    27     9     1   ar
    28     9     4    1
    29    19    11    1
    30    19    14    1
    31    23    26    1
    32     5    10    1
    33    21    22    1
@<TRIPOS>MOLECULE
*****
 30 33 0 0 0
SMALL
GASTEIGER

@<TRIPOS>ATOM
      1 C           0.7867    2.3051   30.9688 C.ar    1  UNL1        0.0930
      2 C           0.3565    3.5944   31.6032 C.ar    1  UNL1        0.1067
      3 N           1.0864    3.7361   32.9060 N.ar    1  UNL1       -0.2252
      4 C           1.9676    2.5343   33.0767 C.ar    1  UNL1        0.1586
      5 N           2.9148    2.1311   34.1676 N.ar    1  UNL1       -0.3349
      6 C           3.6767    0.8434   34.0613 C.ar    1  UNL1        0.0945
      7 C           3.4915   -0.0410   32.8640 C.ar    1  UNL1        0.1177
      8 N           2.5444    0.3622   31.7731 N.ar    1  UNL1       -0.2390
      9 C           1.7824    1.6499   31.8794 C.ar    1  UNL1        0.1210
     10 H           3.0363    2.7115   34.9535 H       1  UNL1        0.1675
     11 C           4.2535   -1.3287   32.7577 C.2     1  UNL1        0.1230
     12 N           4.1075   -2.5168   33.6617 N.2     1  UNL1       -0.1467
     13 N           5.0590   -3.5768   33.1915 N.2     1  UNL1       -0.1519
     14 C           5.7931   -3.0437   31.9969 C.2     1  UNL1        0.0882
     15 C           6.8506   -3.6440   31.1185 C.3     1  UNL1        0.0933
     16 C           7.4101   -2.8550   29.9722 C.2     1  UNL1       -0.0179
     17 C           6.9123   -1.4656   29.7041 C.2     1  UNL1       -0.0040
     18 C           5.8549   -0.8653   30.5824 C.2     1  UNL1        0.0025
     19 C           5.2953   -1.6544   31.7288 C.2     1  UNL1        0.0366
     20 C           7.3484   -5.0334   31.3867 C.3     1  UNL1        0.1474
     21 O           6.4866   -6.0076   32.1337 O.3     1  UNL1       -0.3812
     22 H           6.3660   -5.6996   33.0456 H       1  UNL1        0.2105
     23 N           0.6869    2.4530   28.3767 N.am    1  UNL1       -0.3039
     24 C           0.3056    1.7656   29.6544 C.2     1  UNL1        0.2488
     25 O          -0.5567    0.5389   29.6175 O.2     1  UNL1       -0.2700
     26 H           1.2529    3.2582   28.4009 H       1  UNL1        0.1496
     27 C          -1.0384    2.7435   27.1772 C.3     1  UNL1        0.0196
     28 C           0.2058    1.9135   27.0624 C.3     1  UNL1        0.0572
     29 C           1.4500    1.0836   26.9476 C.3     1  UNL1        0.0196
     30 C          -0.2752    1.3741   25.7481 C.3     1  UNL1        0.0196
@<TRIPOS>BOND
     1    27    28    1
     2    28    29    1
     3    28    30    1
     4    28    23    1
     5    23    24   am
     6    24    25    2
     7    24     1    1
     8     1     2   ar
     9     2     3   ar
    10     3     4   ar
    11     4     5   ar
    12     5     6   ar
    13     6     7   ar
    14     7    11    1
    15    11    12    2
    16    12    13    1
    17    13    14    2
    18    14    15    1
    19    15    20    1
    20    20    21    1
    21    15    16    1
    22    16    17    2
    23    17    18    1
    24    18    19    2
    25     7     8   ar
    26     8     9   ar
    27     9     1   ar
    28     9     4    1
    29    19    11    1
    30    19    14    1
    31    23    26    1
    32     5    10    1
    33    21    22    1
@<TRIPOS>MOLECULE
*****
 30 33 0 0 0
SMALL
GASTEIGER

@<TRIPOS>ATOM
      1 C           1.5546    3.6648   33.9859 C.ar    1  UNL1        0.0930
      2 C           0.5813    4.5645   33.2835 C.ar    1  UNL1        0.1067
      3 N           0.3079    3.9832   31.9280 N.ar    1  UNL1       -0.2252
      4 C           1.1123    2.7243   31.7927 C.ar    1  UNL1        0.1586
      5 N           1.2426    1.7318   30.6756 N.ar    1  UNL1       -0.3349
      6 C           2.1434    0.5425   30.8304 C.ar    1  UNL1        0.0945
      7 C           2.9139    0.3457   32.1023 C.ar    1  UNL1        0.1177
      8 N           2.7835    1.3382   33.2194 N.ar    1  UNL1       -0.2390
      9 C           1.8827    2.5276   33.0645 C.ar    1  UNL1        0.1210
     10 H           0.7369    1.8609   29.8408 H       1  UNL1        0.1675
     11 C           3.8147   -0.8437   32.2571 C.2     1  UNL1        0.1230
     12 N           3.8770   -1.7535   33.4481 N.2     1  UNL1       -0.1467
     13 N           4.9122   -2.8042   33.1752 N.2     1  UNL1       -0.1519
     14 C           5.4897   -2.5437   31.8155 C.2     1  UNL1        0.0882
     15 C           6.5456   -3.2532   31.0208 C.3     1  UNL1        0.0933
     16 C           6.9232   -2.7512   29.6588 C.2     1  UNL1       -0.0179
     17 C           6.2450   -1.5395   29.0913 C.2     1  UNL1       -0.0040
     18 C           5.1891   -0.8300   29.8860 C.2     1  UNL1        0.0025
     19 C           4.8115   -1.3321   31.2482 C.2     1  UNL1        0.0366
     20 C           7.2238   -4.4649   31.5882 C.3     1  UNL1        0.1474
     21 O           6.4650   -5.3986   32.4840 O.3     1  UNL1       -0.3812
     22 H           6.2347   -4.9408   33.3076 H       1  UNL1        0.2105
     23 N           2.3628    2.6835   36.2518 N.am    1  UNL1       -0.3039
     24 C           2.1034    3.8669   35.3672 C.2     1  UNL1        0.2488
     25 O           2.3927    5.2523   35.8640 O.2     1  UNL1       -0.2700
     26 H           2.1729    1.7742   35.9257 H       1  UNL1        0.1496
     27 C           1.5160    3.0032   38.1702 C.3     1  UNL1        0.0196
     28 C           2.9116    2.8856   37.6331 C.3     1  UNL1        0.0572
     29 C           4.3072    2.7681   37.0958 C.3     1  UNL1        0.0196
     30 C           3.4604    3.0877   39.0143 C.3     1  UNL1        0.0196
@<TRIPOS>BOND
     1    27    28    1
     2    28    29    1
     3    28    30    1
     4    28    23    1
     5    23    24   am
     6    24    25    2
     7    24     1    1
     8     1     2   ar
     9     2     3   ar
    10     3     4   ar
    11     4     5   ar
    12     5     6   ar
    13     6     7   ar
    14     7    11    1
    15    11    12    2
    16    12    13    1
    17    13    14    2
    18    14    15    1
    19    15    20    1
    20    20    21    1
    21    15    16    1
    22    16    17    2
    23    17    18    1
    24    18    19    2
    25     7     8   ar
    26     8     9   ar
    27     9     1   ar
    28     9     4    1
    29    19    11    1
    30    19    14    1
    31    23    26    1
    32     5    10    1
    33    21    22    1
@<TRIPOS>MOLECULE
*****
 30 33 0 0 0
SMALL
GASTEIGER

@<TRIPOS>ATOM
      1 C           5.6070   -1.2592   18.9780 C.ar    1  UNL1        0.0930
      2 C           6.1822   -0.3397   17.9420 C.ar    1  UNL1        0.1067
      3 N           7.6568   -0.6014   17.8573 N.ar    1  UNL1       -0.2252
      4 C           7.9929   -1.6828   18.8411 C.ar    1  UNL1        0.1586
      5 N           9.2888   -2.3497   19.1957 N.ar    1  UNL1       -0.3349
      6 C           9.3178   -3.4232   20.2429 C.ar    1  UNL1        0.0945
      7 C           8.0509   -3.8298   20.9355 C.ar    1  UNL1        0.1177
      8 N           6.7550   -3.1628   20.5809 N.ar    1  UNL1       -0.2390
      9 C           6.7260   -2.0893   19.5337 C.ar    1  UNL1        0.1210
     10 H          10.1202   -2.0829   18.7411 H       1  UNL1        0.1675
     11 C           8.0800   -4.9033   21.9828 C.2     1  UNL1        0.1230
     12 N           8.5602   -6.3112   21.7891 N.2     1  UNL1       -0.1467
     13 N           8.4110   -7.0355   23.0941 N.2     1  UNL1       -0.1519
     14 C           7.8386   -6.0753   24.0944 C.2     1  UNL1        0.0882
     15 C           7.4772   -6.2306   25.5419 C.3     1  UNL1        0.0933
     16 C           6.9113   -5.0682   26.3025 C.2     1  UNL1       -0.0179
     17 C           6.7068   -3.7504   25.6156 C.2     1  UNL1       -0.0040
     18 C           7.0681   -3.5952   24.1681 C.2     1  UNL1        0.0025
     19 C           7.6341   -4.7576   23.4075 C.2     1  UNL1        0.0366
     20 C           7.6818   -7.5484   26.2287 C.3     1  UNL1        0.1474
     21 O           6.5114   -8.4516   26.4822 O.3     1  UNL1       -0.3812
     22 H           5.9091   -8.0303   27.1152 H       1  UNL1        0.2105
     23 N           3.4183   -0.0829   19.7370 N.am    1  UNL1       -0.3039
     24 C           4.1657   -1.3354   19.3867 C.2     1  UNL1        0.2488
     25 O           3.4719   -2.6639   19.4451 O.2     1  UNL1       -0.2700
     26 H           3.8736    0.7891   19.6987 H       1  UNL1        0.1496
     27 C           1.5625    0.2108   18.7523 C.3     1  UNL1        0.0196
     28 C           1.9770   -0.1590   20.1457 C.3     1  UNL1        0.0572
     29 C           2.3916   -0.5289   21.5390 C.3     1  UNL1        0.0196
     30 C           0.5358   -0.2352   20.5543 C.3     1  UNL1        0.0196
@<TRIPOS>BOND
     1    27    28    1
     2    28    29    1
     3    28    30    1
     4    28    23    1
     5    23    24   am
     6    24    25    2
     7    24     1    1
     8     1     2   ar
     9     2     3   ar
    10     3     4   ar
    11     4     5   ar
    12     5     6   ar
    13     6     7   ar
    14     7    11    1
    15    11    12    2
    16    12    13    1
    17    13    14    2
    18    14    15    1
    19    15    20    1
    20    20    21    1
    21    15    16    1
    22    16    17    2
    23    17    18    1
    24    18    19    2
    25     7     8   ar
    26     8     9   ar
    27     9     1   ar
    28     9     4    1
    29    19    11    1
    30    19    14    1
    31    23    26    1
    32     5    10    1
    33    21    22    1
@<TRIPOS>MOLECULE
*****
 30 33 0 0 0
SMALL
GASTEIGER

@<TRIPOS>ATOM
      1 C           5.4280   -1.9414   19.2013 C.ar    1  UNL1        0.0930
      2 C           6.1455   -1.6685   17.9126 C.ar    1  UNL1        0.1067
      3 N           7.5844   -2.0519   18.0932 N.ar    1  UNL1       -0.2252
      4 C           7.7561   -2.5617   19.4934 C.ar    1  UNL1        0.1586
      5 N           8.9539   -3.0793   20.2332 N.ar    1  UNL1       -0.3349
      6 C           8.8189   -3.5287   21.6579 C.ar    1  UNL1        0.0945
      7 C           7.4861   -3.4604   22.3428 C.ar    1  UNL1        0.1177
      8 N           6.2884   -2.9428   21.6029 N.ar    1  UNL1       -0.2390
      9 C           6.4234   -2.4935   20.1782 C.ar    1  UNL1        0.1210
     10 H           9.8287   -3.1241   19.7837 H       1  UNL1        0.1675
     11 C           7.3512   -3.9098   23.7675 C.2     1  UNL1        0.1230
     12 N           6.7965   -3.0969   24.8996 N.2     1  UNL1       -0.1467
     13 N           6.8497   -3.9356   26.1421 N.2     1  UNL1       -0.1519
     14 C           7.4372   -5.2669   25.7779 C.2     1  UNL1        0.0882
     15 C           7.7300   -6.4916   26.5929 C.3     1  UNL1        0.0933
     16 C           8.3327   -7.7002   25.9405 C.2     1  UNL1       -0.0179
     17 C           8.6426   -7.6843   24.4729 C.2     1  UNL1       -0.0040
     18 C           8.3498   -6.4596   23.6578 C.2     1  UNL1        0.0025
     19 C           7.7471   -5.2509   24.3103 C.2     1  UNL1        0.0366
     20 C           7.4201   -6.5075   28.0605 C.3     1  UNL1        0.1474
     21 O           6.2171   -5.7781   28.5809 O.3     1  UNL1       -0.3812
     22 H           6.3358   -4.8243   28.4503 H       1  UNL1        0.2105
     23 N           3.4739   -0.3142   19.7341 N.am    1  UNL1       -0.3039
     24 C           3.9708   -1.7040   19.4665 C.2     1  UNL1        0.2488
     25 O           3.0105   -2.8563   19.4641 O.2     1  UNL1       -0.2700
     26 H           4.1041    0.4422   19.7357 H       1  UNL1        0.1496
     27 C           2.2199   -0.4402   21.4404 C.3     1  UNL1        0.0196
     28 C           2.0167   -0.0768   19.9993 C.3     1  UNL1        0.0572
     29 C           1.8136    0.2866   18.5582 C.3     1  UNL1        0.0196
     30 C           0.5596    0.1606   20.2645 C.3     1  UNL1        0.0196
@<TRIPOS>BOND
     1    27    28    1
     2    28    29    1
     3    28    30    1
     4    28    23    1
     5    23    24   am
     6    24    25    2
     7    24     1    1
     8     1     2   ar
     9     2     3   ar
    10     3     4   ar
    11     4     5   ar
    12     5     6   ar
    13     6     7   ar
    14     7    11    1
    15    11    12    2
    16    12    13    1
    17    13    14    2
    18    14    15    1
    19    15    20    1
    20    20    21    1
    21    15    16    1
    22    16    17    2
    23    17    18    1
    24    18    19    2
    25     7     8   ar
    26     8     9   ar
    27     9     1   ar
    28     9     4    1
    29    19    11    1
    30    19    14    1
    31    23    26    1
    32     5    10    1
    33    21    22    1
@<TRIPOS>MOLECULE
*****
 30 33 0 0 0
SMALL
GASTEIGER

@<TRIPOS>ATOM
      1 C           2.7928   -0.0986   27.3584 C.ar    1  UNL1        0.0930
      2 C           3.2731   -0.8143   28.5860 C.ar    1  UNL1        0.1067
      3 N           4.3315   -1.7917   28.1683 N.ar    1  UNL1       -0.2252
      4 C           4.5053   -1.6800   26.6826 C.ar    1  UNL1        0.1586
      5 N           5.4067   -2.3960   25.7209 N.ar    1  UNL1       -0.3349
      6 C           5.3570   -2.0656   24.2586 C.ar    1  UNL1        0.0945
      7 C           4.4059   -1.0192   23.7581 C.ar    1  UNL1        0.1177
      8 N           3.5046   -0.3032   24.7198 N.ar    1  UNL1       -0.2390
      9 C           3.5543   -0.6336   26.1821 C.ar    1  UNL1        0.1210
     10 H           6.0309   -3.0828   26.0495 H       1  UNL1        0.1675
     11 C           4.3563   -0.6887   22.2957 C.2     1  UNL1        0.1230
     12 N           4.3503    0.6891   21.7029 N.2     1  UNL1       -0.1467
     13 N           4.2942    0.5513   20.2103 N.2     1  UNL1       -0.1519
     14 C           4.2655   -0.9118   19.8806 C.2     1  UNL1        0.0882
     15 C           4.2094   -1.6452   18.5734 C.3     1  UNL1        0.0933
     16 C           4.1917   -3.1449   18.5550 C.2     1  UNL1       -0.0179
     17 C           4.2301   -3.9114   19.8439 C.2     1  UNL1       -0.0040
     18 C           4.2862   -3.1779   21.1511 C.2     1  UNL1        0.0025
     19 C           4.3039   -1.6781   21.1695 C.2     1  UNL1        0.0366
     20 C           4.1711   -0.8788   17.2845 C.3     1  UNL1        0.1474
     21 O           3.5361   -1.4867   16.0691 O.3     1  UNL1       -0.3812
     22 H           4.0533   -2.2565   15.7849 H       1  UNL1        0.2105
     23 N           0.4146    0.6837   26.6637 N.am    1  UNL1       -0.3039
     24 C           1.7363    0.9654   27.3148 C.2     1  UNL1        0.2488
     25 O           2.0015    2.3110   27.9221 O.2     1  UNL1       -0.2700
     26 H           0.2405   -0.1995   26.2651 H       1  UNL1        0.1496
     27 C          -0.1709    2.1592   25.2567 C.3     1  UNL1        0.0196
     28 C          -0.6419    1.7477   26.6201 C.3     1  UNL1        0.0572
     29 C          -1.1127    1.3361   27.9835 C.3     1  UNL1        0.0196
     30 C          -1.6982    2.8116   26.5765 C.3     1  UNL1        0.0196
@<TRIPOS>BOND
     1    27    28    1
     2    28    29    1
     3    28    30    1
     4    28    23    1
     5    23    24   am
     6    24    25    2
     7    24     1    1
     8     1     2   ar
     9     2     3   ar
    10     3     4   ar
    11     4     5   ar
    12     5     6   ar
    13     6     7   ar
    14     7    11    1
    15    11    12    2
    16    12    13    1
    17    13    14    2
    18    14    15    1
    19    15    20    1
    20    20    21    1
    21    15    16    1
    22    16    17    2
    23    17    18    1
    24    18    19    2
    25     7     8   ar
    26     8     9   ar
    27     9     1   ar
    28     9     4    1
    29    19    11    1
    30    19    14    1
    31    23    26    1
    32     5    10    1
    33    21    22    1
