@<TRIPOS>MOLECULE
*****
 18 19 0 0 0
SMALL
GASTEIGER

@<TRIPOS>ATOM
      1 C          -8.1621  -19.3080   21.5085 C.2     1  UNL1        0.0063
      2 C          -6.9206  -19.9706   22.0279 C.2     1  UNL1        0.0422
      3 C         -10.2621  -17.9245   22.1611 C.ar    1  UNL1        0.1386
      4 C         -11.4216  -17.6787   23.0804 C.ar    1  UNL1        0.0369
      5 C         -11.6406  -18.5706   24.2665 C.ar    1  UNL1        0.0031
      6 C         -10.7001  -19.7082   24.5332 C.ar    1  UNL1        0.0002
      7 C          -9.5406  -19.9540   23.6139 C.ar    1  UNL1        0.0030
      8 C          -9.3216  -19.0622   22.4279 C.ar    1  UNL1        0.0341
      9 C         -11.1813  -16.2272   20.4222 C.3     1  UNL1        0.2525
     10 O         -10.0432  -17.0327   20.9751 O.3     1  UNL1       -0.4714
     11 C          -5.7611  -20.2165   21.1086 C.2     1  UNL1        0.1971
     12 O          -5.7741  -21.3979   20.1844 O.2     1  UNL1       -0.2865
     13 C          -4.5886  -19.2810   21.1136 C.ar    1  UNL1        0.0581
     14 C          -3.9977  -18.8260   22.4150 C.ar    1  UNL1        0.0063
     15 C          -2.8252  -17.8905   22.4200 C.ar    1  UNL1        0.0208
     16 C          -2.2435  -17.4100   21.1236 C.ar    1  UNL1        0.0989
     17 N          -2.8344  -17.8651   19.8221 N.ar    1  UNL1       -0.2422
     18 C          -4.0069  -18.8006   19.8171 C.ar    1  UNL1        0.1020
@<TRIPOS>BOND
     1     9    10    1
     2    10     3    1
     3     3     4   ar
     4     4     5   ar
     5     5     6   ar
     6     6     7   ar
     7     7     8   ar
     8     8     1    1
     9     1     2    2
    10     2    11    1
    11    11    12    2
    12    11    13    1
    13    13    14   ar
    14    14    15   ar
    15    15    16   ar
    16    16    17   ar
    17    17    18   ar
    18     8     3   ar
    19    18    13   ar
@<TRIPOS>MOLECULE
*****
 18 19 0 0 0
SMALL
GASTEIGER

@<TRIPOS>ATOM
      1 C          -9.4440  -16.6374   24.3062 C.2     1  UNL1        0.0063
      2 C         -10.1735  -17.8705   24.7502 C.2     1  UNL1        0.0422
      3 C          -6.9894  -15.7860   24.3259 C.ar    1  UNL1        0.1386
      4 C          -5.7843  -15.3138   25.0839 C.ar    1  UNL1        0.0369
      5 C          -5.8286  -15.2206   26.5804 C.ar    1  UNL1        0.0031
      6 C          -7.0780  -15.5997   27.3188 C.ar    1  UNL1        0.0002
      7 C          -8.2831  -16.0719   26.5607 C.ar    1  UNL1        0.0030
      8 C          -8.2388  -16.1651   25.0643 C.ar    1  UNL1        0.0341
      9 C          -7.8767  -15.0477   21.9983 C.3     1  UNL1        0.2525
     10 O          -6.9451  -15.8791   22.8294 O.3     1  UNL1       -0.4714
     11 C         -11.3787  -18.3428   23.9922 C.2     1  UNL1        0.1971
     12 O         -12.6346  -18.7028   24.7292 O.2     1  UNL1       -0.2865
     13 C         -11.3279  -18.4550   22.4973 C.ar    1  UNL1        0.0581
     14 C         -10.6732  -19.6425   21.8561 C.ar    1  UNL1        0.0063
     15 C         -10.6225  -19.7547   20.3612 C.ar    1  UNL1        0.0208
     16 C         -11.2264  -18.6795   19.5074 C.ar    1  UNL1        0.0989
     17 N         -11.8812  -17.4919   20.1486 N.ar    1  UNL1       -0.2422
     18 C         -11.9319  -17.3796   21.6435 C.ar    1  UNL1        0.1020
@<TRIPOS>BOND
     1     9    10    1
     2    10     3    1
     3     3     4   ar
     4     4     5   ar
     5     5     6   ar
     6     6     7   ar
     7     7     8   ar
     8     8     1    1
     9     1     2    2
    10     2    11    1
    11    11    12    2
    12    11    13    1
    13    13    14   ar
    14    14    15   ar
    15    15    16   ar
    16    16    17   ar
    17    17    18   ar
    18     8     3   ar
    19    18    13   ar
@<TRIPOS>MOLECULE
*****
 18 19 0 0 0
SMALL
GASTEIGER

@<TRIPOS>ATOM
      1 C          -8.1585  -19.3665   21.6755 C.2     1  UNL1        0.0063
      2 C          -7.1353  -19.3423   20.5789 C.2     1  UNL1        0.0422
      3 C          -9.2907  -17.0283   21.6491 C.ar    1  UNL1        0.1386
      4 C         -10.5260  -16.1843   21.5410 C.ar    1  UNL1        0.0369
      5 C         -11.8644  -16.8346   21.3513 C.ar    1  UNL1        0.0031
      6 C         -11.9674  -18.3288   21.2697 C.ar    1  UNL1        0.0002
      7 C         -10.7321  -19.1727   21.3777 C.ar    1  UNL1        0.0030
      8 C          -9.3938  -18.5225   21.5675 C.ar    1  UNL1        0.0341
      9 C          -7.5909  -15.7790   23.1656 C.3     1  UNL1        0.2525
     10 O          -7.9524  -16.3781   21.8388 O.3     1  UNL1       -0.4714
     11 C          -5.9000  -20.1863   20.6869 C.2     1  UNL1        0.1971
     12 O          -5.9253  -21.6148   20.2299 O.2     1  UNL1       -0.2865
     13 C          -4.6394  -19.6019   21.2521 C.ar    1  UNL1        0.0581
     14 C          -4.7096  -18.6195   22.3834 C.ar    1  UNL1        0.0063
     15 C          -3.4490  -18.0351   22.9485 C.ar    1  UNL1        0.0208
     16 C          -2.1182  -18.4331   22.3823 C.ar    1  UNL1        0.0989
     17 N          -2.0480  -19.4155   21.2508 N.ar    1  UNL1       -0.2422
     18 C          -3.3086  -19.9999   20.6857 C.ar    1  UNL1        0.1020
@<TRIPOS>BOND
     1     9    10    1
     2    10     3    1
     3     3     4   ar
     4     4     5   ar
     5     5     6   ar
     6     6     7   ar
     7     7     8   ar
     8     8     1    1
     9     1     2    2
    10     2    11    1
    11    11    12    2
    12    11    13    1
    13    13    14   ar
    14    14    15   ar
    15    15    16   ar
    16    16    17   ar
    17    17    18   ar
    18     8     3   ar
    19    18    13   ar
@<TRIPOS>MOLECULE
*****
 18 19 0 0 0
SMALL
GASTEIGER

@<TRIPOS>ATOM
      1 C          -7.3576  -18.9719   22.5741 C.2     1  UNL1        0.0063
      2 C          -8.2256  -20.1660   22.8398 C.2     1  UNL1        0.0422
      3 C          -6.1200  -19.0592   20.2914 C.ar    1  UNL1        0.1386
      4 C          -4.8509  -19.2142   19.5069 C.ar    1  UNL1        0.0369
      5 C          -3.5505  -19.4369   20.2205 C.ar    1  UNL1        0.0031
      6 C          -3.5190  -19.5046   21.7186 C.ar    1  UNL1        0.0002
      7 C          -4.7881  -19.3496   22.5031 C.ar    1  UNL1        0.0030
      8 C          -6.0885  -19.1269   21.7895 C.ar    1  UNL1        0.0341
      9 C          -8.2303  -20.0096   19.1111 C.3     1  UNL1        0.2525
     10 O          -7.4204  -18.8365   19.5778 O.3     1  UNL1       -0.4714
     11 C          -9.4946  -20.0110   23.6244 C.2     1  UNL1        0.1971
     12 O          -9.6174  -20.6350   24.9830 O.2     1  UNL1       -0.2865
     13 C         -10.6409  -19.2321   23.0504 C.ar    1  UNL1        0.0581
     14 C         -10.7997  -19.1174   21.5633 C.ar    1  UNL1        0.0063
     15 C         -11.9460  -18.3385   20.9894 C.ar    1  UNL1        0.0208
     16 C         -12.9334  -17.6743   21.9025 C.ar    1  UNL1        0.0989
     17 N         -12.7745  -17.7890   23.3897 N.ar    1  UNL1       -0.2422
     18 C         -11.6283  -18.5679   23.9637 C.ar    1  UNL1        0.1020
@<TRIPOS>BOND
     1     9    10    1
     2    10     3    1
     3     3     4   ar
     4     4     5   ar
     5     5     6   ar
     6     6     7   ar
     7     7     8   ar
     8     8     1    1
     9     1     2    2
    10     2    11    1
    11    11    12    2
    12    11    13    1
    13    13    14   ar
    14    14    15   ar
    15    15    16   ar
    16    16    17   ar
    17    17    18   ar
    18     8     3   ar
    19    18    13   ar
@<TRIPOS>MOLECULE
*****
 18 19 0 0 0
SMALL
GASTEIGER

@<TRIPOS>ATOM
      1 C          -7.6346  -19.3555   21.8495 C.2     1  UNL1        0.0063
      2 C          -6.5167  -18.9206   20.9489 C.2     1  UNL1        0.0422
      3 C          -9.6967  -17.9154   21.1984 C.ar    1  UNL1        0.1386
      4 C         -10.7750  -16.9443   21.5781 C.ar    1  UNL1        0.0369
      5 C         -10.8696  -16.4422   22.9884 C.ar    1  UNL1        0.0031
      6 C          -9.8859  -16.9112   24.0190 C.ar    1  UNL1        0.0002
      7 C          -8.8076  -17.8823   23.6394 C.ar    1  UNL1        0.0030
      8 C          -8.7130  -18.3844   22.2291 C.ar    1  UNL1        0.0341
      9 C         -10.3068  -19.6812   19.3930 C.3     1  UNL1        0.2525
     10 O          -9.6020  -18.4175   19.7881 O.3     1  UNL1       -0.4714
     11 C          -5.4384  -19.8916   20.5692 C.2     1  UNL1        0.1971
     12 O          -5.7787  -21.3314   20.3217 O.2     1  UNL1       -0.2865
     13 C          -4.0196  -19.4230   20.4372 C.ar    1  UNL1        0.0581
     14 C          -3.6060  -18.6102   19.2463 C.ar    1  UNL1        0.0063
     15 C          -2.1872  -18.1415   19.1143 C.ar    1  UNL1        0.0208
     16 C          -1.1820  -18.4857   20.1731 C.ar    1  UNL1        0.0989
     17 N          -1.5956  -19.2986   21.3640 N.ar    1  UNL1       -0.2422
     18 C          -3.0144  -19.7672   21.4961 C.ar    1  UNL1        0.1020
@<TRIPOS>BOND
     1     9    10    1
     2    10     3    1
     3     3     4   ar
     4     4     5   ar
     5     5     6   ar
     6     6     7   ar
     7     7     8   ar
     8     8     1    1
     9     1     2    2
    10     2    11    1
    11    11    12    2
    12    11    13    1
    13    13    14   ar
    14    14    15   ar
    15    15    16   ar
    16    16    17   ar
    17    17    18   ar
    18     8     3   ar
    19    18    13   ar
@<TRIPOS>MOLECULE
*****
 18 19 0 0 0
SMALL
GASTEIGER

@<TRIPOS>ATOM
      1 C          -7.0735  -19.1399   22.5232 C.2     1  UNL1        0.0063
      2 C          -8.0720  -20.2297   22.7789 C.2     1  UNL1        0.0422
      3 C          -4.4872  -18.9298   22.3938 C.ar    1  UNL1        0.1386
      4 C          -3.1909  -19.2460   21.7086 C.ar    1  UNL1        0.0369
      5 C          -3.1845  -20.0885   20.4676 C.ar    1  UNL1        0.0031
      6 C          -4.4745  -20.6148   19.9117 C.ar    1  UNL1        0.0002
      7 C          -5.7708  -20.2986   20.5970 C.ar    1  UNL1        0.0030
      8 C          -5.7771  -19.4561   21.8380 C.ar    1  UNL1        0.0341
      9 C          -4.5429  -16.5921   23.5260 C.3     1  UNL1        0.2525
     10 O          -4.4935  -18.0873   23.6348 O.3     1  UNL1       -0.4714
     11 C          -9.3683  -19.9136   23.4641 C.2     1  UNL1        0.1971
     12 O          -9.5958  -20.3552   24.8795 O.2     1  UNL1       -0.2865
     13 C         -10.4373  -19.1558   22.7339 C.ar    1  UNL1        0.0581
     14 C         -10.3895  -19.0444   21.2389 C.ar    1  UNL1        0.0063
     15 C         -11.4585  -18.2866   20.5087 C.ar    1  UNL1        0.0208
     16 C         -12.5752  -17.6402   21.2736 C.ar    1  UNL1        0.0989
     17 N         -12.6229  -17.7515   22.7688 N.ar    1  UNL1       -0.2422
     18 C         -11.5540  -18.5093   23.4989 C.ar    1  UNL1        0.1020
@<TRIPOS>BOND
     1     9    10    1
     2    10     3    1
     3     3     4   ar
     4     4     5   ar
     5     5     6   ar
     6     6     7   ar
     7     7     8   ar
     8     8     1    1
     9     1     2    2
    10     2    11    1
    11    11    12    2
    12    11    13    1
    13    13    14   ar
    14    14    15   ar
    15    15    16   ar
    16    16    17   ar
    17    17    18   ar
    18     8     3   ar
    19    18    13   ar
@<TRIPOS>MOLECULE
*****
 18 19 0 0 0
SMALL
GASTEIGER

@<TRIPOS>ATOM
      1 C          -8.4262  -19.5710   21.6164 C.2     1  UNL1        0.0063
      2 C          -7.2822  -19.2482   20.7015 C.2     1  UNL1        0.0422
      3 C         -10.3162  -18.2613   22.8259 C.ar    1  UNL1        0.1386
      4 C         -11.5751  -17.4479   22.7682 C.ar    1  UNL1        0.0369
      5 C         -12.2030  -17.1306   21.4434 C.ar    1  UNL1        0.0031
      6 C         -11.5720  -17.6268   20.1763 C.ar    1  UNL1        0.0002
      7 C         -10.3131  -18.4402   20.2340 C.ar    1  UNL1        0.0030
      8 C          -9.6852  -18.7575   21.5588 C.ar    1  UNL1        0.0341
      9 C         -10.1612  -19.7628   24.9404 C.3     1  UNL1        0.2525
     10 O          -9.6883  -18.5786   24.1507 O.3     1  UNL1       -0.4714
     11 C          -6.0232  -20.0616   20.7591 C.2     1  UNL1        0.1971
     12 O          -6.0158  -21.4698   20.2424 O.2     1  UNL1       -0.2865
     13 C          -4.7716  -19.4669   21.3334 C.ar    1  UNL1        0.0581
     14 C          -3.4374  -19.8100   20.7401 C.ar    1  UNL1        0.0063
     15 C          -2.1858  -19.2153   21.3144 C.ar    1  UNL1        0.0208
     16 C          -2.2684  -18.2774   22.4820 C.ar    1  UNL1        0.0989
     17 N          -3.6027  -17.9342   23.0755 N.ar    1  UNL1       -0.2422
     18 C          -4.8543  -18.5289   22.5011 C.ar    1  UNL1        0.1020
@<TRIPOS>BOND
     1     9    10    1
     2    10     3    1
     3     3     4   ar
     4     4     5   ar
     5     5     6   ar
     6     6     7   ar
     7     7     8   ar
     8     8     1    1
     9     1     2    2
    10     2    11    1
    11    11    12    2
    12    11    13    1
    13    13    14   ar
    14    14    15   ar
    15    15    16   ar
    16    16    17   ar
    17    17    18   ar
    18     8     3   ar
    19    18    13   ar
@<TRIPOS>MOLECULE
*****
 18 19 0 0 0
SMALL
GASTEIGER

@<TRIPOS>ATOM
      1 C          -6.6800  -18.1380   22.6778 C.2     1  UNL1        0.0063
      2 C          -8.0026  -17.6452   22.1700 C.2     1  UNL1        0.0422
      3 C          -4.3478  -18.6714   21.6646 C.ar    1  UNL1        0.1386
      4 C          -3.4761  -19.5194   20.7865 C.ar    1  UNL1        0.0369
      5 C          -4.0648  -20.6820   20.0437 C.ar    1  UNL1        0.0031
      6 C          -5.5251  -20.9966   20.1788 C.ar    1  UNL1        0.0002
      7 C          -6.3968  -20.1486   21.0569 C.ar    1  UNL1        0.0030
      8 C          -5.8082  -18.9860   21.7997 C.ar    1  UNL1        0.0341
      9 C          -2.3618  -17.0553   22.1048 C.3     1  UNL1        0.2525
     10 O          -3.7592  -17.5088   22.4074 O.3     1  UNL1       -0.4714
     11 C          -8.8744  -16.7973   23.0480 C.2     1  UNL1        0.1971
     12 O          -8.2935  -15.6131   23.7625 O.2     1  UNL1       -0.2865
     13 C         -10.3270  -17.1334   23.2116 C.ar    1  UNL1        0.0581
     14 C         -10.7380  -18.2752   24.0932 C.ar    1  UNL1        0.0063
     15 C         -12.1906  -18.6114   24.2568 C.ar    1  UNL1        0.0208
     16 C         -13.2324  -17.8057   23.5387 C.ar    1  UNL1        0.0989
     17 N         -12.8214  -16.6638   22.6570 N.ar    1  UNL1       -0.2422
     18 C         -11.3688  -16.3277   22.4934 C.ar    1  UNL1        0.1020
@<TRIPOS>BOND
     1     9    10    1
     2    10     3    1
     3     3     4   ar
     4     4     5   ar
     5     5     6   ar
     6     6     7   ar
     7     7     8   ar
     8     8     1    1
     9     1     2    2
    10     2    11    1
    11    11    12    2
    12    11    13    1
    13    13    14   ar
    14    14    15   ar
    15    15    16   ar
    16    16    17   ar
    17    17    18   ar
    18     8     3   ar
    19    18    13   ar
@<TRIPOS>MOLECULE
*****
 18 19 0 0 0
SMALL
GASTEIGER

@<TRIPOS>ATOM
      1 C          -7.3366  -18.1870   22.5766 C.2     1  UNL1        0.0063
      2 C          -7.2626  -16.8330   23.2179 C.2     1  UNL1        0.0422
      3 C          -6.2559  -19.0564   20.3797 C.ar    1  UNL1        0.1386
      4 C          -5.0688  -19.6036   19.6440 C.ar    1  UNL1        0.0369
      5 C          -3.7753  -19.8287   20.3694 C.ar    1  UNL1        0.0031
      6 C          -3.6689  -19.5065   21.8305 C.ar    1  UNL1        0.0002
      7 C          -4.8560  -18.9593   22.5662 C.ar    1  UNL1        0.0030
      8 C          -6.1495  -18.7342   21.8408 C.ar    1  UNL1        0.0341
      9 C          -8.3798  -20.0028   19.2207 C.3     1  UNL1        0.2525
     10 O          -7.5494  -18.8313   19.6543 O.3     1  UNL1       -0.4714
     11 C          -8.4496  -16.2858   23.9537 C.2     1  UNL1        0.1971
     12 O          -8.3006  -15.0690   24.8182 O.2     1  UNL1       -0.2865
     13 C          -9.7858  -16.9552   23.8250 C.ar    1  UNL1        0.0581
     14 C         -10.7925  -16.4373   22.8410 C.ar    1  UNL1        0.0063
     15 C         -12.1286  -17.1068   22.7123 C.ar    1  UNL1        0.0208
     16 C         -12.4581  -18.2941   23.5676 C.ar    1  UNL1        0.0989
     17 N         -11.4514  -18.8121   24.5517 N.ar    1  UNL1       -0.2422
     18 C         -10.1152  -18.1426   24.6804 C.ar    1  UNL1        0.1020
@<TRIPOS>BOND
     1     9    10    1
     2    10     3    1
     3     3     4   ar
     4     4     5   ar
     5     5     6   ar
     6     6     7   ar
     7     7     8   ar
     8     8     1    1
     9     1     2    2
    10     2    11    1
    11    11    12    2
    12    11    13    1
    13    13    14   ar
    14    14    15   ar
    15    15    16   ar
    16    16    17   ar
    17    17    18   ar
    18     8     3   ar
    19    18    13   ar
