@<TRIPOS>MOLECULE
*****
 41 45 0 0 0
SMALL
GASTEIGER

@<TRIPOS>ATOM
      1 C           6.8966   -4.7370   30.5465 C.2     1  UNL1        0.2252
      2 O           6.9114   -6.1474   31.0570 O.2     1  UNL1       -0.2749
      3 N           6.7817   -4.4735   29.0743 N.am    1  UNL1       -0.2794
      4 C           6.6816   -5.6203   28.1127 C.3     1  UNL1        0.0953
      5 C           6.5667   -5.3568   26.6405 C.3     1  UNL1        0.0442
      6 C           6.5519   -3.9464   26.1299 C.3     1  UNL1        0.0933
      7 C           6.6520   -2.7997   27.0915 C.3     1  UNL1        0.0442
      8 C           6.7669   -3.0632   28.5637 C.3     1  UNL1        0.0953
      9 N           6.4370   -3.6829   24.6577 N.ar    1  UNL1       -0.2817
     10 C           5.4601   -2.7523   24.0022 C.ar    1  UNL1        0.3315
     11 O           4.4265   -1.9219   24.7037 O.2     1  UNL1       -0.2463
     12 N           5.6982   -2.7980   22.5219 N.ar    1  UNL1       -0.2799
     13 C           6.8223   -3.7568   22.2626 C.ar    1  UNL1        0.0797
     14 C           7.4891   -4.2025   20.9950 C.ar    1  UNL1        0.0188
     15 C           8.6124   -5.1951   21.0475 C.ar    1  UNL1        0.0016
     16 C           9.0690   -5.7419   22.3675 C.ar    1  UNL1        0.0016
     17 C           8.4023   -5.2962   23.6351 C.ar    1  UNL1        0.0188
     18 C           7.2789   -4.3037   23.5826 C.ar    1  UNL1        0.0796
     19 C           4.9446   -2.0213   21.4833 C.3     1  UNL1        0.1109
     20 C           3.7669   -2.6412   20.7910 C.3     1  UNL1        0.0334
     21 C           3.8479   -2.9810   19.3323 C.3     1  UNL1        0.1053
     22 C           4.3411   -4.3310   18.9031 C.3     1  UNL1        0.3978
     23 F           4.8342   -5.6811   18.4739 F       1  UNL1       -0.1700
     24 F           3.2316   -4.9817   19.6750 F       1  UNL1       -0.1700
     25 F           5.4505   -3.6804   18.1312 F       1  UNL1       -0.1700
     26 N           7.1968   -1.2966   33.4314 N.3     1  UNL1       -0.2689
     27 C           5.8510   -1.8254   33.0322 C.3     1  UNL1        0.0729
     28 C           5.7509   -2.9722   32.0706 C.3     1  UNL1        0.0264
     29 C           6.9967   -3.5902   31.5082 C.3     1  UNL1        0.0795
     30 C           8.3424   -3.0614   31.9073 C.3     1  UNL1        0.0264
     31 C           8.4425   -1.9146   32.8689 C.3     1  UNL1        0.0729
     32 C           7.2969   -0.1497   34.3931 C.3     1  UNL1        0.0993
     33 N           3.5939    0.4513   37.9884 N.pl3   1  UNL1       -0.3426
     34 C           4.2014    0.8367   36.6721 C.ar    1  UNL1        0.1251
     35 C           5.4454    0.1508   36.1907 C.ar    1  UNL1        0.0310
     36 C           6.0529    0.5362   34.8744 C.ar    1  UNL1       -0.0018
     37 C           5.4162    1.6076   34.0397 C.ar    1  UNL1        0.0179
     38 C           4.1722    2.2935   34.5211 C.ar    1  UNL1        0.1000
     39 N           3.5647    1.9080   35.8374 N.ar    1  UNL1       -0.2296
     40 H           4.0117   -0.2519   38.5363 H       1  UNL1        0.1437
     41 H           2.7774    0.9015   38.3043 H       1  UNL1        0.1437
@<TRIPOS>BOND
     1    33    34    1
     2    34    35   ar
     3    35    36   ar
     4    36    32    1
     5    32    26    1
     6    26    27    1
     7    27    28    1
     8    28    29    1
     9    29     1    1
    10     1     2    2
    11     1     3   am
    12     3     4    1
    13     4     5    1
    14     5     6    1
    15     6     9    1
    16     9    10   ar
    17    10    11    2
    18    10    12   ar
    19    12    19    1
    20    19    20    1
    21    20    21    1
    22    21    22    1
    23    22    23    1
    24    22    24    1
    25    22    25    1
    26    12    13   ar
    27    13    14   ar
    28    14    15   ar
    29    15    16   ar
    30    16    17   ar
    31    17    18   ar
    32     6     7    1
    33     7     8    1
    34    29    30    1
    35    30    31    1
    36    36    37   ar
    37    37    38   ar
    38    38    39   ar
    39    39    34   ar
    40    31    26    1
    41     8     3    1
    42    18     9   ar
    43    18    13   ar
    44    33    40    1
    45    33    41    1
@<TRIPOS>MOLECULE
*****
 41 45 0 0 0
SMALL
GASTEIGER

@<TRIPOS>ATOM
      1 C          -3.9644    4.8501   18.6174 C.2     1  UNL1        0.2252
      2 O          -4.5472    5.3018   17.3112 O.2     1  UNL1       -0.2749
      3 N          -2.6027    4.2221   18.6538 N.am    1  UNL1       -0.2794
      4 C          -1.8238    4.0459   17.3841 C.3     1  UNL1        0.0953
      5 C          -0.4621    3.4179   17.4204 C.3     1  UNL1        0.0442
      6 C           0.1209    2.9662   18.7267 C.3     1  UNL1        0.0933
      7 C          -0.6580    3.1424   19.9964 C.3     1  UNL1        0.0442
      8 C          -2.0197    3.7704   19.9600 C.3     1  UNL1        0.0953
      9 N           1.4826    2.3382   18.7631 N.ar    1  UNL1       -0.2817
     10 C           1.8032    0.9555   19.2481 C.ar    1  UNL1        0.3315
     11 O           0.8184   -0.0421   19.7819 O.2     1  UNL1       -0.2463
     12 N           3.2816    0.7455   19.1056 N.ar    1  UNL1       -0.2799
     13 C           3.8747    1.9984   18.5326 C.ar    1  UNL1        0.0797
     14 C           5.2835    2.3701   18.1762 C.ar    1  UNL1        0.0188
     15 C           5.5804    3.7262   17.6081 C.ar    1  UNL1        0.0016
     16 C           4.4686    4.7106   17.3964 C.ar    1  UNL1        0.0016
     17 C           3.0598    4.3389   17.7528 C.ar    1  UNL1        0.0188
     18 C           2.7628    2.9828   18.3209 C.ar    1  UNL1        0.0796
     19 C           4.0347   -0.4990   19.4719 C.3     1  UNL1        0.1109
     20 C           3.7605   -1.7827   18.7458 C.3     1  UNL1        0.0334
     21 C           3.6355   -3.0660   19.5123 C.3     1  UNL1        0.1053
     22 C           4.1821   -4.3391   18.9374 C.3     1  UNL1        0.3978
     23 F           4.7287   -5.6121   18.3626 F       1  UNL1       -0.1700
     24 F           5.4949   -3.6599   18.6817 F       1  UNL1       -0.1700
     25 F           2.8693   -5.0182   19.1931 F       1  UNL1       -0.1700
     26 N          -6.3009    5.3787   22.4268 N.3     1  UNL1       -0.2689
     27 C          -5.3628    6.4551   21.9668 C.3     1  UNL1        0.0729
     28 C          -4.5840    6.2789   20.6970 C.3     1  UNL1        0.0264
     29 C          -4.7432    5.0263   19.8872 C.3     1  UNL1        0.0795
     30 C          -5.6812    3.9499   20.3472 C.3     1  UNL1        0.0264
     31 C          -6.4601    4.1261   21.6170 C.3     1  UNL1        0.0729
     32 C          -7.0797    5.5549   23.6966 C.3     1  UNL1        0.0993
     33 N          -6.6926    6.7590   28.7364 N.pl3   1  UNL1       -0.3426
     34 C          -6.2056    5.9919   27.5429 C.ar    1  UNL1        0.1251
     35 C          -6.8862    6.1569   26.2164 C.ar    1  UNL1        0.0310
     36 C          -6.3991    5.3899   25.0230 C.ar    1  UNL1       -0.0018
     37 C          -5.2314    4.4578   25.1560 C.ar    1  UNL1        0.0179
     38 C          -4.5508    4.2927   26.4825 C.ar    1  UNL1        0.1000
     39 N          -5.0379    5.0598   27.6759 N.ar    1  UNL1       -0.2296
     40 H          -7.4590    7.3708   28.6492 H       1  UNL1        0.1437
     41 H          -6.2459    6.6507   29.6070 H       1  UNL1        0.1437
@<TRIPOS>BOND
     1    33    34    1
     2    34    35   ar
     3    35    36   ar
     4    36    32    1
     5    32    26    1
     6    26    27    1
     7    27    28    1
     8    28    29    1
     9    29     1    1
    10     1     2    2
    11     1     3   am
    12     3     4    1
    13     4     5    1
    14     5     6    1
    15     6     9    1
    16     9    10   ar
    17    10    11    2
    18    10    12   ar
    19    12    19    1
    20    19    20    1
    21    20    21    1
    22    21    22    1
    23    22    23    1
    24    22    24    1
    25    22    25    1
    26    12    13   ar
    27    13    14   ar
    28    14    15   ar
    29    15    16   ar
    30    16    17   ar
    31    17    18   ar
    32     6     7    1
    33     7     8    1
    34    29    30    1
    35    30    31    1
    36    36    37   ar
    37    37    38   ar
    38    38    39   ar
    39    39    34   ar
    40    31    26    1
    41     8     3    1
    42    18     9   ar
    43    18    13   ar
    44    33    40    1
    45    33    41    1
@<TRIPOS>MOLECULE
*****
 41 45 0 0 0
SMALL
GASTEIGER

@<TRIPOS>ATOM
      1 C           1.4364    1.3714   28.0156 C.2     1  UNL1        0.2252
      2 O           0.1591    2.1221   28.2499 O.2     1  UNL1       -0.2749
      3 N           1.8745    1.0550   26.6163 N.am    1  UNL1       -0.2794
      4 C           1.0353    1.4894   25.4514 C.3     1  UNL1        0.0953
      5 C           1.4734    1.1730   24.0521 C.3     1  UNL1        0.0442
      6 C           2.7507    0.4222   23.8178 C.3     1  UNL1        0.0933
      7 C           3.5899   -0.0120   24.9827 C.3     1  UNL1        0.0442
      8 C           3.1518    0.3043   26.3820 C.3     1  UNL1        0.0953
      9 N           3.1888    0.1059   22.4185 N.ar    1  UNL1       -0.2817
     10 C           4.4978   -0.5103   22.0224 C.ar    1  UNL1        0.3315
     11 O           5.5986   -0.9183   22.9562 O.2     1  UNL1       -0.2463
     12 N           4.5127   -0.6468   20.5288 N.ar    1  UNL1       -0.2799
     13 C           3.2130   -0.1150   20.0016 C.ar    1  UNL1        0.0797
     14 C           2.6689    0.0058   18.6090 C.ar    1  UNL1        0.0188
     15 C           1.3065    0.5917   18.3844 C.ar    1  UNL1        0.0016
     16 C           0.4883    1.0569   19.5523 C.ar    1  UNL1        0.0016
     17 C           1.0324    0.9362   20.9449 C.ar    1  UNL1        0.0188
     18 C           2.3948    0.3502   21.1695 C.ar    1  UNL1        0.0796
     19 C           5.6311   -1.2153   19.7065 C.3     1  UNL1        0.1109
     20 C           5.7588   -2.7005   19.5389 C.3     1  UNL1        0.0334
     21 C           4.8523   -3.4291   18.5915 C.3     1  UNL1        0.1053
     22 C           3.8773   -4.4414   19.1156 C.3     1  UNL1        0.3978
     23 F           2.9024   -5.4537   19.6396 F       1  UNL1       -0.1700
     24 F           4.8213   -5.5450   18.7399 F       1  UNL1       -0.1700
     25 F           2.9334   -3.3378   19.4912 F       1  UNL1       -0.1700
     26 N           3.9541    0.0683   31.5104 N.3     1  UNL1       -0.2689
     27 C           2.8876   -0.8401   30.9742 C.3     1  UNL1        0.0729
     28 C           2.0483   -0.4058   29.8093 C.3     1  UNL1        0.0264
     29 C           2.2756    0.9370   29.1805 C.3     1  UNL1        0.0795
     30 C           3.3420    1.8455   29.7167 C.3     1  UNL1        0.0264
     31 C           4.1813    1.4111   30.8816 C.3     1  UNL1        0.0729
     32 C           4.7933   -0.3660   32.6753 C.3     1  UNL1        0.0993
     33 N           6.4163   -5.2933   32.3804 N.pl3   1  UNL1       -0.3426
     34 C           6.7102   -3.8234   32.3268 C.ar    1  UNL1        0.1251
     35 C           5.6048   -2.8296   32.5279 C.ar    1  UNL1        0.0310
     36 C           5.8987   -1.3597   32.4742 C.ar    1  UNL1       -0.0018
     37 C           7.2981   -0.8835   32.2195 C.ar    1  UNL1        0.0179
     38 C           8.4036   -1.8772   32.0184 C.ar    1  UNL1        0.1000
     39 N           8.1096   -3.3472   32.0720 N.ar    1  UNL1       -0.2296
     40 H           5.4979   -5.6059   32.5476 H       1  UNL1        0.1437
     41 H           7.1419   -5.9455   32.2484 H       1  UNL1        0.1437
@<TRIPOS>BOND
     1    33    34    1
     2    34    35   ar
     3    35    36   ar
     4    36    32    1
     5    32    26    1
     6    26    27    1
     7    27    28    1
     8    28    29    1
     9    29     1    1
    10     1     2    2
    11     1     3   am
    12     3     4    1
    13     4     5    1
    14     5     6    1
    15     6     9    1
    16     9    10   ar
    17    10    11    2
    18    10    12   ar
    19    12    19    1
    20    19    20    1
    21    20    21    1
    22    21    22    1
    23    22    23    1
    24    22    24    1
    25    22    25    1
    26    12    13   ar
    27    13    14   ar
    28    14    15   ar
    29    15    16   ar
    30    16    17   ar
    31    17    18   ar
    32     6     7    1
    33     7     8    1
    34    29    30    1
    35    30    31    1
    36    36    37   ar
    37    37    38   ar
    38    38    39   ar
    39    39    34   ar
    40    31    26    1
    41     8     3    1
    42    18     9   ar
    43    18    13   ar
    44    33    40    1
    45    33    41    1
@<TRIPOS>MOLECULE
*****
 41 45 0 0 0
SMALL
GASTEIGER

@<TRIPOS>ATOM
      1 C           1.9979    0.1433   28.8729 C.2     1  UNL1        0.2252
      2 O           2.3310   -1.2177   28.3374 O.2     1  UNL1       -0.2749
      3 N           2.4198    0.5272   30.2602 N.am    1  UNL1       -0.2794
      4 C           3.1747   -0.4499   31.1119 C.3     1  UNL1        0.0953
      5 C           3.5965   -0.0659   32.4993 C.3     1  UNL1        0.0442
      6 C           3.2634    1.2951   33.0349 C.3     1  UNL1        0.0933
      7 C           2.5086    2.2720   32.1831 C.3     1  UNL1        0.0442
      8 C           2.0867    1.8881   30.7958 C.3     1  UNL1        0.0953
      9 N           3.6853    1.6790   34.4222 N.ar    1  UNL1       -0.2817
     10 C           2.9499    2.6081   35.3419 C.ar    1  UNL1        0.3315
     11 O           1.6636    3.3165   35.0359 O.2     1  UNL1       -0.2463
     12 N           3.7267    2.7045   36.6215 N.ar    1  UNL1       -0.2799
     13 C           4.9422    1.8350   36.4925 C.ar    1  UNL1        0.0797
     14 C           6.0689    1.5384   37.4372 C.ar    1  UNL1        0.0188
     15 C           7.1701    0.6081   37.0226 C.ar    1  UNL1        0.0016
     16 C           7.1444   -0.0257   35.6633 C.ar    1  UNL1        0.0016
     17 C           6.0177    0.2708   34.7187 C.ar    1  UNL1        0.0188
     18 C           4.9166    1.2012   35.1333 C.ar    1  UNL1        0.0796
     19 C           3.3536    3.5262   37.8197 C.3     1  UNL1        0.1109
     20 C           2.7133    2.8719   39.0080 C.3     1  UNL1        0.0334
     21 C           1.3725    2.2136   38.8697 C.3     1  UNL1        0.1053
     22 C           1.2064    0.7673   39.2310 C.3     1  UNL1        0.3978
     23 F           1.0404   -0.6791   39.5923 F       1  UNL1       -0.1700
     24 F           2.6963    0.6196   39.3247 F       1  UNL1       -0.1700
     25 F          -0.2833    0.9149   39.1373 F       1  UNL1       -0.1700
     26 N          -0.2668    3.0744   26.3176 N.3     1  UNL1       -0.2689
     27 C           1.2321    3.0385   26.2689 C.3     1  UNL1        0.0729
     28 C           1.9870    2.0615   27.1207 C.3     1  UNL1        0.0264
     29 C           1.2430    1.1203   28.0211 C.3     1  UNL1        0.0795
     30 C          -0.2557    1.1561   28.0698 C.3     1  UNL1        0.0264
     31 C          -1.0107    2.1331   27.2181 C.3     1  UNL1        0.0729
     32 C          -1.0217    4.0514   25.4658 C.3     1  UNL1        0.0993
     33 N          -5.4581    5.4779   27.7645 N.pl3   1  UNL1       -0.3426
     34 C          -4.7394    4.7840   26.6455 C.ar    1  UNL1        0.1251
     35 C          -3.2398    4.7646   26.6151 C.ar    1  UNL1        0.0310
     36 C          -2.5212    4.0707   25.4962 C.ar    1  UNL1       -0.0018
     37 C          -3.3022    3.3961   24.4076 C.ar    1  UNL1        0.0179
     38 C          -4.8018    3.4155   24.4380 C.ar    1  UNL1        0.1000
     39 N          -5.5204    4.1094   25.5569 N.ar    1  UNL1       -0.2296
     40 H          -4.9455    5.9206   28.4790 H       1  UNL1        0.1437
     41 H          -6.4423    5.4905   27.7844 H       1  UNL1        0.1437
@<TRIPOS>BOND
     1    33    34    1
     2    34    35   ar
     3    35    36   ar
     4    36    32    1
     5    32    26    1
     6    26    27    1
     7    27    28    1
     8    28    29    1
     9    29     1    1
    10     1     2    2
    11     1     3   am
    12     3     4    1
    13     4     5    1
    14     5     6    1
    15     6     9    1
    16     9    10   ar
    17    10    11    2
    18    10    12   ar
    19    12    19    1
    20    19    20    1
    21    20    21    1
    22    21    22    1
    23    22    23    1
    24    22    24    1
    25    22    25    1
    26    12    13   ar
    27    13    14   ar
    28    14    15   ar
    29    15    16   ar
    30    16    17   ar
    31    17    18   ar
    32     6     7    1
    33     7     8    1
    34    29    30    1
    35    30    31    1
    36    36    37   ar
    37    37    38   ar
    38    38    39   ar
    39    39    34   ar
    40    31    26    1
    41     8     3    1
    42    18     9   ar
    43    18    13   ar
    44    33    40    1
    45    33    41    1
@<TRIPOS>MOLECULE
*****
 41 45 0 0 0
SMALL
GASTEIGER

@<TRIPOS>ATOM
      1 C           5.9794   -1.9998   18.8651 C.2     1  UNL1        0.2252
      2 O           6.4049   -2.4786   17.5088 O.2     1  UNL1       -0.2749
      3 N           4.8455   -1.0266   18.9951 N.am    1  UNL1       -0.2794
      4 C           4.1370   -0.5322   17.7689 C.3     1  UNL1        0.0953
      5 C           3.0031    0.4410   17.8989 C.3     1  UNL1        0.0442
      6 C           2.5775    0.9199   19.2553 C.3     1  UNL1        0.0933
      7 C           3.2859    0.4255   20.4814 C.3     1  UNL1        0.0442
      8 C           4.4199   -0.5477   20.3514 C.3     1  UNL1        0.0953
      9 N           1.4435    1.8932   19.3853 N.ar    1  UNL1       -0.2817
     10 C           0.1422    1.6420   20.0879 C.ar    1  UNL1        0.3315
     11 O          -0.2535    0.3735   20.7838 O.2     1  UNL1       -0.2463
     12 N          -0.6937    2.8821   19.9723 N.ar    1  UNL1       -0.2799
     13 C           0.0908    3.8996   19.1984 C.ar    1  UNL1        0.0797
     14 C          -0.2269    5.3037   18.7771 C.ar    1  UNL1        0.0188
     15 C           0.7763    6.0966   17.9930 C.ar    1  UNL1        0.0016
     16 C           2.0972    5.4855   17.6302 C.ar    1  UNL1        0.0016
     17 C           2.4149    4.0814   18.0514 C.ar    1  UNL1        0.0188
     18 C           1.4117    3.2884   18.8355 C.ar    1  UNL1        0.0796
     19 C          -2.0723    3.0714   20.5325 C.3     1  UNL1        0.1109
     20 C          -3.1856    3.5398   19.6428 C.3     1  UNL1        0.0334
     21 C          -4.5552    3.7661   20.2111 C.3     1  UNL1        0.1053
     22 C          -5.7689    3.5073   19.3686 C.3     1  UNL1        0.3978
     23 F          -6.9826    3.2485   18.5262 F       1  UNL1       -0.1700
     24 F          -6.6498    3.8175   20.5425 F       1  UNL1       -0.1700
     25 F          -4.8880    3.1971   18.1948 F       1  UNL1       -0.1700
     26 N           8.1047   -3.4829   22.5439 N.3     1  UNL1       -0.2689
     27 C           6.8636   -4.1756   22.0641 C.3     1  UNL1        0.0729
     28 C           6.1552   -3.6812   20.8379 C.3     1  UNL1        0.0264
     29 C           6.6878   -2.4942   20.0914 C.3     1  UNL1        0.0795
     30 C           7.9288   -1.8015   20.5711 C.3     1  UNL1        0.0264
     31 C           8.6373   -2.2959   21.7973 C.3     1  UNL1        0.0729
     32 C           8.8131   -3.9773   23.7701 C.3     1  UNL1        0.0993
     33 N           5.8344   -5.7651   27.6342 N.pl3   1  UNL1       -0.3426
     34 C           6.7596   -6.0217   26.4817 C.ar    1  UNL1        0.1251
     35 C           7.3238   -4.8712   25.7021 C.ar    1  UNL1        0.0310
     36 C           8.2489   -5.1279   24.5497 C.ar    1  UNL1       -0.0018
     37 C           8.6098   -6.5353   24.1768 C.ar    1  UNL1        0.0179
     38 C           8.0456   -7.6859   24.9563 C.ar    1  UNL1        0.1000
     39 N           7.1205   -7.4291   26.1088 N.ar    1  UNL1       -0.2296
     40 H           5.5975   -4.8414   27.8790 H       1  UNL1        0.1437
     41 H           5.4641   -6.5203   28.1459 H       1  UNL1        0.1437
@<TRIPOS>BOND
     1    33    34    1
     2    34    35   ar
     3    35    36   ar
     4    36    32    1
     5    32    26    1
     6    26    27    1
     7    27    28    1
     8    28    29    1
     9    29     1    1
    10     1     2    2
    11     1     3   am
    12     3     4    1
    13     4     5    1
    14     5     6    1
    15     6     9    1
    16     9    10   ar
    17    10    11    2
    18    10    12   ar
    19    12    19    1
    20    19    20    1
    21    20    21    1
    22    21    22    1
    23    22    23    1
    24    22    24    1
    25    22    25    1
    26    12    13   ar
    27    13    14   ar
    28    14    15   ar
    29    15    16   ar
    30    16    17   ar
    31    17    18   ar
    32     6     7    1
    33     7     8    1
    34    29    30    1
    35    30    31    1
    36    36    37   ar
    37    37    38   ar
    38    38    39   ar
    39    39    34   ar
    40    31    26    1
    41     8     3    1
    42    18     9   ar
    43    18    13   ar
    44    33    40    1
    45    33    41    1
@<TRIPOS>MOLECULE
*****
 41 45 0 0 0
SMALL
GASTEIGER

@<TRIPOS>ATOM
      1 C           1.8147    1.3596   28.4084 C.2     1  UNL1        0.2252
      2 O           0.6798    2.2804   28.7461 O.2     1  UNL1       -0.2749
      3 N           2.0372    0.9333   26.9876 N.am    1  UNL1       -0.2794
      4 C           1.1248    1.4277   25.9045 C.3     1  UNL1        0.0953
      5 C           1.3473    1.0014   24.4837 C.3     1  UNL1        0.0442
      6 C           2.4823    0.0806   24.1459 C.3     1  UNL1        0.0933
      7 C           3.3946   -0.4138   25.2289 C.3     1  UNL1        0.0442
      8 C           3.1721    0.0125   26.6498 C.3     1  UNL1        0.0953
      9 N           2.7048   -0.3457   22.7251 N.ar    1  UNL1       -0.2817
     10 C           2.2114    0.3696   21.5024 C.ar    1  UNL1        0.3315
     11 O           1.4090    1.6368   21.4858 O.2     1  UNL1       -0.2463
     12 N           2.6615   -0.4048   20.2992 N.ar    1  UNL1       -0.2799
     13 C           3.4329   -1.5987   20.7782 C.ar    1  UNL1        0.0797
     14 C           4.1145   -2.7144   20.0429 C.ar    1  UNL1        0.0188
     15 C           4.8228   -3.7935   20.8069 C.ar    1  UNL1        0.0016
     16 C           4.8495   -3.7570   22.3062 C.ar    1  UNL1        0.0016
     17 C           4.1680   -2.6413   23.0415 C.ar    1  UNL1        0.0188
     18 C           3.4597   -1.5622   22.2775 C.ar    1  UNL1        0.0796
     19 C           2.3881   -0.0480   18.8681 C.3     1  UNL1        0.1109
     20 C           3.0674    1.1367   18.2475 C.3     1  UNL1        0.0334
     21 C           4.5565    1.1377   18.0667 C.3     1  UNL1        0.1053
     22 C           5.2791   -0.1472   17.7897 C.3     1  UNL1        0.3978
     23 F           6.0017   -1.4321   17.5126 F       1  UNL1       -0.1700
     24 F           4.5982   -0.2426   16.4564 F       1  UNL1       -0.1700
     25 F           5.9600   -0.0518   19.1228 F       1  UNL1       -0.1700
     26 N           4.5520   -0.1237   31.6575 N.3     1  UNL1       -0.2689
     27 C           3.3020   -0.8834   31.3250 C.3     1  UNL1        0.0729
     28 C           2.3896   -0.3890   30.2419 C.3     1  UNL1        0.0264
     29 C           2.7271    0.8652   29.4914 C.3     1  UNL1        0.0795
     30 C           3.9770    1.6249   29.8240 C.3     1  UNL1        0.0264
     31 C           4.8894    1.1304   30.9070 C.3     1  UNL1        0.0729
     32 C           5.4644   -0.6182   32.7406 C.3     1  UNL1        0.0993
     33 N           6.5448   -5.6607   32.1034 N.pl3   1  UNL1       -0.3426
     34 C           6.9929   -4.2294   32.1305 C.ar    1  UNL1        0.1251
     35 C           6.0046   -3.1393   32.4220 C.ar    1  UNL1        0.0310
     36 C           6.4528   -1.7081   32.4491 C.ar    1  UNL1       -0.0018
     37 C           7.8893   -1.3669   32.1847 C.ar    1  UNL1        0.0179
     38 C           8.8777   -2.4570   31.8932 C.ar    1  UNL1        0.1000
     39 N           8.4294   -3.8882   31.8661 N.ar    1  UNL1       -0.2296
     40 H           5.6019   -5.8846   32.2769 H       1  UNL1        0.1437
     41 H           7.1935   -6.3760   31.9121 H       1  UNL1        0.1437
@<TRIPOS>BOND
     1    33    34    1
     2    34    35   ar
     3    35    36   ar
     4    36    32    1
     5    32    26    1
     6    26    27    1
     7    27    28    1
     8    28    29    1
     9    29     1    1
    10     1     2    2
    11     1     3   am
    12     3     4    1
    13     4     5    1
    14     5     6    1
    15     6     9    1
    16     9    10   ar
    17    10    11    2
    18    10    12   ar
    19    12    19    1
    20    19    20    1
    21    20    21    1
    22    21    22    1
    23    22    23    1
    24    22    24    1
    25    22    25    1
    26    12    13   ar
    27    13    14   ar
    28    14    15   ar
    29    15    16   ar
    30    16    17   ar
    31    17    18   ar
    32     6     7    1
    33     7     8    1
    34    29    30    1
    35    30    31    1
    36    36    37   ar
    37    37    38   ar
    38    38    39   ar
    39    39    34   ar
    40    31    26    1
    41     8     3    1
    42    18     9   ar
    43    18    13   ar
    44    33    40    1
    45    33    41    1
@<TRIPOS>MOLECULE
*****
 41 45 0 0 0
SMALL
GASTEIGER

@<TRIPOS>ATOM
      1 C           3.8663   -0.4821   17.9764 C.2     1  UNL1        0.2252
      2 O           4.1331   -0.9687   16.5828 O.2     1  UNL1       -0.2749
      3 N           4.4976   -1.1762   19.1467 N.am    1  UNL1       -0.2794
      4 C           5.3956   -2.3567   18.9235 C.3     1  UNL1        0.0953
      5 C           6.0269   -3.0508   20.0939 C.3     1  UNL1        0.0442
      6 C           5.7601   -2.5643   21.4876 C.3     1  UNL1        0.0933
      7 C           4.8621   -1.3837   21.7107 C.3     1  UNL1        0.0442
      8 C           4.2309   -0.6897   20.5403 C.3     1  UNL1        0.0953
      9 N           6.3913   -3.2583   22.6580 N.ar    1  UNL1       -0.2817
     10 C           7.3586   -4.4026   22.5876 C.ar    1  UNL1        0.3315
     11 O           7.8645   -5.0538   21.3346 O.2     1  UNL1       -0.2463
     12 N           7.7312   -4.7814   23.9904 N.ar    1  UNL1       -0.2799
     13 C           6.9942   -3.8713   24.9276 C.ar    1  UNL1        0.0797
     14 C           6.9702   -3.7780   26.4245 C.ar    1  UNL1        0.0188
     15 C           6.1181   -2.7434   27.0979 C.ar    1  UNL1        0.0016
     16 C           5.2900   -1.8021   26.2744 C.ar    1  UNL1        0.0016
     17 C           5.3140   -1.8953   24.7775 C.ar    1  UNL1        0.0188
     18 C           6.1661   -2.9299   24.1041 C.ar    1  UNL1        0.0796
     19 C           8.6751   -5.8779   24.3864 C.3     1  UNL1        0.1109
     20 C           8.1900   -7.2956   24.4582 C.3     1  UNL1        0.0334
     21 C           8.1543   -8.0102   25.7766 C.3     1  UNL1        0.1053
     22 C           7.8287   -7.2543   27.0306 C.3     1  UNL1        0.3978
     23 F           7.5032   -6.4985   28.2847 F       1  UNL1       -0.1700
     24 F           9.2368   -7.4453   27.5112 F       1  UNL1       -0.1700
     25 F           6.4206   -7.0634   26.5501 F       1  UNL1       -0.1700
     26 N           1.1723    3.0596   18.6460 N.3     1  UNL1       -0.2689
     27 C           2.6574    3.2527   18.5587 C.3     1  UNL1        0.0729
     28 C           3.5554    2.0722   18.3355 C.3     1  UNL1        0.0264
     29 C           2.9683    0.6985   18.1996 C.3     1  UNL1        0.0795
     30 C           1.4834    0.5053   18.2869 C.3     1  UNL1        0.0264
     31 C           0.5854    1.6859   18.5101 C.3     1  UNL1        0.0729
     32 C           0.2743    4.2402   18.8692 C.3     1  UNL1        0.0993
     33 N          -4.1666    2.7819   21.1390 N.pl3   1  UNL1       -0.3426
     34 C          -3.4355    3.3406   19.9543 C.ar    1  UNL1        0.1251
     35 C          -1.9461    3.5111   20.0041 C.ar    1  UNL1        0.0310
     36 C          -1.2151    4.0697   18.8193 C.ar    1  UNL1       -0.0018
     37 C          -1.9735    4.4578   17.5848 C.ar    1  UNL1        0.0179
     38 C          -3.4629    4.2872   17.5350 C.ar    1  UNL1        0.1000
     39 N          -4.1939    3.7286   18.7197 N.ar    1  UNL1       -0.2296
     40 H          -3.6688    2.5272   21.9493 H       1  UNL1        0.1437
     41 H          -5.1441    2.6700   21.1063 H       1  UNL1        0.1437
@<TRIPOS>BOND
     1    33    34    1
     2    34    35   ar
     3    35    36   ar
     4    36    32    1
     5    32    26    1
     6    26    27    1
     7    27    28    1
     8    28    29    1
     9    29     1    1
    10     1     2    2
    11     1     3   am
    12     3     4    1
    13     4     5    1
    14     5     6    1
    15     6     9    1
    16     9    10   ar
    17    10    11    2
    18    10    12   ar
    19    12    19    1
    20    19    20    1
    21    20    21    1
    22    21    22    1
    23    22    23    1
    24    22    24    1
    25    22    25    1
    26    12    13   ar
    27    13    14   ar
    28    14    15   ar
    29    15    16   ar
    30    16    17   ar
    31    17    18   ar
    32     6     7    1
    33     7     8    1
    34    29    30    1
    35    30    31    1
    36    36    37   ar
    37    37    38   ar
    38    38    39   ar
    39    39    34   ar
    40    31    26    1
    41     8     3    1
    42    18     9   ar
    43    18    13   ar
    44    33    40    1
    45    33    41    1
@<TRIPOS>MOLECULE
*****
 41 45 0 0 0
SMALL
GASTEIGER

@<TRIPOS>ATOM
      1 C           3.6332   -1.9078   20.1180 C.2     1  UNL1        0.2252
      2 O           3.5010   -2.3791   18.7001 O.2     1  UNL1       -0.2749
      3 N           2.6670   -0.9001   20.6665 N.am    1  UNL1       -0.2794
      4 C           1.5686   -0.3637   19.7972 C.3     1  UNL1        0.0953
      5 C           0.6023    0.6440   20.3457 C.3     1  UNL1        0.0442
      6 C           0.7345    1.1154   21.7637 C.3     1  UNL1        0.0933
      7 C           1.8329    0.5789   22.6329 C.3     1  UNL1        0.0442
      8 C           2.7991   -0.4288   22.0844 C.3     1  UNL1        0.0953
      9 N          -0.2318    2.1231   22.3122 N.ar    1  UNL1       -0.2817
     10 C          -1.0426    3.0957   21.5081 C.ar    1  UNL1        0.3315
     11 O          -1.0295    3.2314   20.0143 O.2     1  UNL1       -0.2463
     12 N          -1.8687    3.9088   22.4601 N.ar    1  UNL1       -0.2799
     13 C          -1.5685    3.4387   23.8526 C.ar    1  UNL1        0.0797
     14 C          -2.0857    3.8730   25.1919 C.ar    1  UNL1        0.0188
     15 C          -1.5911    3.2037   26.4398 C.ar    1  UNL1        0.0016
     16 C          -0.5794    2.1000   26.3484 C.ar    1  UNL1        0.0016
     17 C          -0.0622    1.6657   25.0091 C.ar    1  UNL1        0.0188
     18 C          -0.5568    2.3351   23.7611 C.ar    1  UNL1        0.0796
     19 C          -2.8269    5.0004   22.0855 C.3     1  UNL1        0.1109
     20 C          -4.2060    4.6560   21.6060 C.3     1  UNL1        0.0334
     21 C          -5.3762    4.7805   22.5361 C.3     1  UNL1        0.1053
     22 C          -5.4007    4.0033   23.8187 C.3     1  UNL1        0.3978
     23 F          -5.4252    3.2260   25.1014 F       1  UNL1       -0.1700
     24 F          -5.0760    2.7481   23.0643 F       1  UNL1       -0.1700
     25 F          -5.7255    5.2584   24.5732 F       1  UNL1       -0.1700
     26 N           6.9284   -3.5170   22.7260 N.3     1  UNL1       -0.2689
     27 C           5.5517   -4.1072   22.8072 C.3     1  UNL1        0.0729
     28 C           4.4533   -3.5708   21.9379 C.3     1  UNL1        0.0264
     29 C           4.7316   -2.4442   20.9874 C.3     1  UNL1        0.0795
     30 C           6.1082   -1.8541   20.9061 C.3     1  UNL1        0.0264
     31 C           7.2066   -2.3905   21.7755 C.3     1  UNL1        0.0729
     32 C           8.0268   -4.0534   23.5954 C.3     1  UNL1        0.0993
     33 N           5.7955   -5.7871   27.9561 N.pl3   1  UNL1       -0.3426
     34 C           6.6300   -6.0384   26.7352 C.ar    1  UNL1        0.1251
     35 C           6.9112   -4.9202   25.7757 C.ar    1  UNL1        0.0310
     36 C           7.7457   -5.1716   24.5548 C.ar    1  UNL1       -0.0018
     37 C           8.2989   -6.5411   24.2935 C.ar    1  UNL1        0.0179
     38 C           8.0177   -7.6593   25.2530 C.ar    1  UNL1        0.1000
     39 N           7.1833   -7.4079   26.4738 N.ar    1  UNL1       -0.2296
     40 H           5.4323   -4.8883   28.1276 H       1  UNL1        0.1437
     41 H           5.6110   -6.5210   28.5858 H       1  UNL1        0.1437
@<TRIPOS>BOND
     1    33    34    1
     2    34    35   ar
     3    35    36   ar
     4    36    32    1
     5    32    26    1
     6    26    27    1
     7    27    28    1
     8    28    29    1
     9    29     1    1
    10     1     2    2
    11     1     3   am
    12     3     4    1
    13     4     5    1
    14     5     6    1
    15     6     9    1
    16     9    10   ar
    17    10    11    2
    18    10    12   ar
    19    12    19    1
    20    19    20    1
    21    20    21    1
    22    21    22    1
    23    22    23    1
    24    22    24    1
    25    22    25    1
    26    12    13   ar
    27    13    14   ar
    28    14    15   ar
    29    15    16   ar
    30    16    17   ar
    31    17    18   ar
    32     6     7    1
    33     7     8    1
    34    29    30    1
    35    30    31    1
    36    36    37   ar
    37    37    38   ar
    38    38    39   ar
    39    39    34   ar
    40    31    26    1
    41     8     3    1
    42    18     9   ar
    43    18    13   ar
    44    33    40    1
    45    33    41    1
@<TRIPOS>MOLECULE
*****
 41 45 0 0 0
SMALL
GASTEIGER

@<TRIPOS>ATOM
      1 C           7.2350   -4.2265   22.1643 C.2     1  UNL1        0.2252
      2 O           8.1588   -5.3267   21.7328 O.2     1  UNL1       -0.2749
      3 N           7.1413   -3.8512   23.6135 N.am    1  UNL1       -0.2794
      4 C           7.9712   -4.5761   24.6312 C.3     1  UNL1        0.0953
      5 C           7.8774   -4.2008   26.0805 C.3     1  UNL1        0.0442
      6 C           6.9537   -3.1006   26.5121 C.3     1  UNL1        0.0933
      7 C           6.1238   -2.3757   25.4944 C.3     1  UNL1        0.0442
      8 C           6.2176   -2.7510   24.0451 C.3     1  UNL1        0.0953
      9 N           6.8599   -2.7253   27.9614 N.ar    1  UNL1       -0.2817
     10 C           6.7324   -1.3332   28.5052 C.ar    1  UNL1        0.3315
     11 O           6.6763   -0.0719   27.6952 O.2     1  UNL1       -0.2463
     12 N           6.6709   -1.4238   30.0012 N.ar    1  UNL1       -0.2799
     13 C           6.7603   -2.8719   30.3819 C.ar    1  UNL1        0.0797
     14 C           6.7505   -3.5620   31.7137 C.ar    1  UNL1        0.0188
     15 C           6.8575   -5.0564   31.7848 C.ar    1  UNL1        0.0016
     16 C           6.9743   -5.8608   30.5241 C.ar    1  UNL1        0.0016
     17 C           6.9841   -5.1707   29.1923 C.ar    1  UNL1        0.0188
     18 C           6.8771   -3.6763   29.1212 C.ar    1  UNL1        0.0796
     19 C           6.5424   -0.2690   30.9499 C.3     1  UNL1        0.1109
     20 C           5.2595   -0.0503   31.6959 C.3     1  UNL1        0.0334
     21 C           5.2002   -0.2969   33.1743 C.3     1  UNL1        0.1053
     22 C           4.5030   -1.5148   33.7040 C.3     1  UNL1        0.3978
     23 F           3.8058   -2.7327   34.2339 F       1  UNL1       -0.1700
     24 F           5.0056   -1.2028   35.0825 F       1  UNL1       -0.1700
     25 F           4.0004   -1.8268   32.3256 F       1  UNL1       -0.1700
     26 N           4.7453   -2.0517   19.1112 N.3     1  UNL1       -0.2689
     27 C           4.1690   -3.2206   19.8540 C.3     1  UNL1        0.0729
     28 C           4.9989   -3.9456   20.8717 C.3     1  UNL1        0.0264
     29 C           6.4051   -3.5015   21.1466 C.3     1  UNL1        0.0795
     30 C           6.9814   -2.3326   20.4039 C.3     1  UNL1        0.0264
     31 C           6.1515   -1.6077   19.3862 C.3     1  UNL1        0.0729
     32 C           3.9154   -1.3267   18.0935 C.3     1  UNL1        0.0993
     33 N          -0.3270    0.2550   20.6431 N.pl3   1  UNL1       -0.3426
     34 C           0.8734    0.5669   19.7993 C.ar    1  UNL1        0.1251
     35 C           1.7942   -0.5359   19.3683 C.ar    1  UNL1        0.0310
     36 C           2.9946   -0.2239   18.5245 C.ar    1  UNL1       -0.0018
     37 C           3.2740    1.1909   18.1118 C.ar    1  UNL1        0.0179
     38 C           2.3532    2.2937   18.5429 C.ar    1  UNL1        0.1000
     39 N           1.1528    1.9817   19.3866 N.ar    1  UNL1       -0.2296
     40 H          -0.5105   -0.6735   20.9140 H       1  UNL1        0.1437
     41 H          -0.9314    0.9789   20.9260 H       1  UNL1        0.1437
@<TRIPOS>BOND
     1    33    34    1
     2    34    35   ar
     3    35    36   ar
     4    36    32    1
     5    32    26    1
     6    26    27    1
     7    27    28    1
     8    28    29    1
     9    29     1    1
    10     1     2    2
    11     1     3   am
    12     3     4    1
    13     4     5    1
    14     5     6    1
    15     6     9    1
    16     9    10   ar
    17    10    11    2
    18    10    12   ar
    19    12    19    1
    20    19    20    1
    21    20    21    1
    22    21    22    1
    23    22    23    1
    24    22    24    1
    25    22    25    1
    26    12    13   ar
    27    13    14   ar
    28    14    15   ar
    29    15    16   ar
    30    16    17   ar
    31    17    18   ar
    32     6     7    1
    33     7     8    1
    34    29    30    1
    35    30    31    1
    36    36    37   ar
    37    37    38   ar
    38    38    39   ar
    39    39    34   ar
    40    31    26    1
    41     8     3    1
    42    18     9   ar
    43    18    13   ar
    44    33    40    1
    45    33    41    1
