@<TRIPOS>MOLECULE
*****
 32 33 0 0 0
SMALL
GASTEIGER

@<TRIPOS>ATOM
      1 C          -7.7373  -18.6483   22.4136 C.2     1  UNL1        0.2270
      2 O          -7.3531  -17.2527   22.0202 O.2     1  UNL1       -0.2748
      3 N          -8.9089  -18.8758   23.3221 N.am    1  UNL1       -0.2797
      4 C          -9.4093  -20.2070   23.7992 C.3     1  UNL1        0.0934
      5 C         -10.5955  -19.9660   24.6850 C.3     1  UNL1        0.0232
      6 C         -10.8284  -18.4858   24.7553 C.3     1  UNL1        0.0230
      7 C          -9.7860  -17.8120   23.9130 C.3     1  UNL1        0.0928
      8 C          -6.9498  -19.8164   21.8984 C.3     1  UNL1        0.1010
      9 N          -7.0496  -19.0727   19.4110 N.3     1  UNL1       -0.3215
     10 C          -6.3300  -19.7597   20.5336 C.3     1  UNL1        0.0644
     11 H          -7.9379  -18.7046   19.7514 H       1  UNL1        0.1188
     12 H          -7.2237  -19.7403   18.6597 H       1  UNL1        0.1188
     13 C          -4.9907  -20.3901   20.2914 C.3     1  UNL1        0.0447
     14 C          -3.7520  -19.5440   20.2938 C.ar    1  UNL1        0.0090
     15 C          -3.1886  -19.0355   19.0000 C.ar    1  UNL1        0.0300
     16 C          -1.9500  -18.1895   19.0025 C.ar    1  UNL1        0.1672
     17 F          -1.3865  -17.6809   17.7086 F       1  UNL1       -0.2018
     18 C          -1.2748  -17.8519   20.2987 C.ar    1  UNL1        0.1696
     19 F          -0.0362  -17.0058   20.3011 F       1  UNL1       -0.2017
     20 C          -1.8383  -18.3604   21.5925 C.ar    1  UNL1        0.0612
     21 C          -3.0769  -19.2065   21.5900 C.ar    1  UNL1        0.1386
     22 F          -3.6404  -19.7150   22.8838 F       1  UNL1       -0.2044
     23 C          -9.6454  -16.3341   23.6991 C.3     1  UNL1        0.1111
     24 N          -9.2357  -15.4471   24.8373 N.3     1  UNL1       -0.1743
     25 H          -9.8295  -15.6917   25.6297 H       1  UNL1        0.1488
     26 S          -7.8204  -15.4693   25.3337 S.O2    1  UNL1        0.1272
     27 O          -8.2629  -16.2085   26.5617 O.2     1  UNL1       -0.1497
     28 O          -7.3781  -14.7302   24.1057 O.2     1  UNL1       -0.1497
     29 C          -6.4052  -15.4916   25.8302 C.3     1  UNL1        0.5357
     30 F          -6.8799  -15.1099   27.2009 F       1  UNL1       -0.1493
     31 F          -5.9304  -15.8734   24.4594 F       1  UNL1       -0.1493
     32 F          -4.9899  -15.5140   26.3266 F       1  UNL1       -0.1493
@<TRIPOS>BOND
     1    10     9    1
     2    10     8    1
     3     8     1    1
     4     1     2    2
     5     1     3   am
     6     3     4    1
     7     4     5    1
     8     5     6    1
     9     6     7    1
    10     7    23    1
    11    23    24    1
    12    24    26    1
    13    26    27    2
    14    26    28    2
    15    26    29    1
    16    29    30    1
    17    29    31    1
    18    29    32    1
    19    10    13    1
    20    13    14    1
    21    14    15   ar
    22    15    16   ar
    23    16    17    1
    24    16    18   ar
    25    18    19    1
    26    18    20   ar
    27    20    21   ar
    28    21    22    1
    29     7     3    1
    30    21    14   ar
    31     9    11    1
    32     9    12    1
    33    24    25    1
@<TRIPOS>MOLECULE
*****
 32 33 0 0 0
SMALL
GASTEIGER

@<TRIPOS>ATOM
      1 C          -6.1325  -15.4818   23.8174 C.2     1  UNL1        0.2270
      2 O          -7.0152  -15.5358   22.6059 O.2     1  UNL1       -0.2748
      3 N          -6.7286  -15.6226   25.1866 N.am    1  UNL1       -0.2797
      4 C          -5.9758  -15.5892   26.4837 C.3     1  UNL1        0.0934
      5 C          -6.9641  -15.7675   27.5979 C.3     1  UNL1        0.0232
      6 C          -8.3277  -15.9112   26.9894 C.3     1  UNL1        0.0230
      7 C          -8.1821  -15.8216   25.4992 C.3     1  UNL1        0.0928
      8 C          -4.6536  -15.2870   23.6597 C.3     1  UNL1        0.1010
      9 N          -2.8700  -15.9117   21.8768 N.3     1  UNL1       -0.3215
     10 C          -3.8318  -16.3232   22.9518 C.3     1  UNL1        0.0644
     11 H          -2.9043  -14.8991   21.7594 H       1  UNL1        0.1188
     12 H          -3.1264  -16.3646   20.9996 H       1  UNL1        0.1188
     13 C          -3.9720  -17.7708   23.3187 C.3     1  UNL1        0.0447
     14 C          -4.6056  -18.7308   22.3558 C.ar    1  UNL1        0.0090
     15 C          -6.0998  -18.8279   22.2675 C.ar    1  UNL1        0.0300
     16 C          -6.7333  -19.7879   21.3046 C.ar    1  UNL1        0.1672
     17 F          -8.2275  -19.8851   21.2162 F       1  UNL1       -0.2018
     18 C          -5.8725  -20.6506   20.4300 C.ar    1  UNL1        0.1696
     19 F          -6.5061  -21.6105   19.4671 F       1  UNL1       -0.2017
     20 C          -4.3783  -20.5534   20.5183 C.ar    1  UNL1        0.0612
     21 C          -3.7448  -19.5935   21.4812 C.ar    1  UNL1        0.1386
     22 F          -2.2506  -19.4963   21.5696 F       1  UNL1       -0.2044
     23 C          -9.2946  -15.9147   24.4975 C.3     1  UNL1        0.1111
     24 N          -9.4670  -17.1616   23.6816 N.3     1  UNL1       -0.1743
     25 H          -9.3292  -17.9492   24.3149 H       1  UNL1        0.1488
     26 S         -10.7556  -17.4105   22.9552 S.O2    1  UNL1        0.1272
     27 O         -10.2446  -16.6288   21.7813 O.2     1  UNL1       -0.1497
     28 O         -11.2664  -18.1922   24.1291 O.2     1  UNL1       -0.1497
     29 C         -12.0441  -17.6594   22.2287 C.3     1  UNL1        0.5357
     30 F         -12.5693  -16.3385   22.7077 F       1  UNL1       -0.1493
     31 F         -11.5188  -18.9803   21.7497 F       1  UNL1       -0.1493
     32 F         -13.3325  -17.9083   21.5022 F       1  UNL1       -0.1493
@<TRIPOS>BOND
     1    10     9    1
     2    10     8    1
     3     8     1    1
     4     1     2    2
     5     1     3   am
     6     3     4    1
     7     4     5    1
     8     5     6    1
     9     6     7    1
    10     7    23    1
    11    23    24    1
    12    24    26    1
    13    26    27    2
    14    26    28    2
    15    26    29    1
    16    29    30    1
    17    29    31    1
    18    29    32    1
    19    10    13    1
    20    13    14    1
    21    14    15   ar
    22    15    16   ar
    23    16    17    1
    24    16    18   ar
    25    18    19    1
    26    18    20   ar
    27    20    21   ar
    28    21    22    1
    29     7     3    1
    30    21    14   ar
    31     9    11    1
    32     9    12    1
    33    24    25    1
@<TRIPOS>MOLECULE
*****
 32 33 0 0 0
SMALL
GASTEIGER

@<TRIPOS>ATOM
      1 C          -6.0621  -16.8355   23.2238 C.2     1  UNL1        0.2270
      2 O          -4.8012  -16.6232   24.0080 O.2     1  UNL1       -0.2748
      3 N          -6.2055  -18.0439   22.3468 N.am    1  UNL1       -0.2797
      4 C          -7.4008  -18.3880   21.5084 C.3     1  UNL1        0.0934
      5 C          -7.1128  -19.6772   20.7977 C.3     1  UNL1        0.0232
      6 C          -5.7395  -20.1298   21.1969 C.3     1  UNL1        0.0230
      7 C          -5.1788  -19.1204   22.1543 C.3     1  UNL1        0.0928
      8 C          -7.1797  -15.8393   23.3166 C.3     1  UNL1        0.1010
      9 N          -7.1129  -14.9100   25.7419 N.3     1  UNL1       -0.3215
     10 C          -7.8567  -15.5920   24.6321 C.3     1  UNL1        0.0644
     11 H          -6.1678  -14.6861   25.4304 H       1  UNL1        0.1188
     12 H          -7.0664  -15.5295   26.5509 H       1  UNL1        0.1188
     13 C          -9.2776  -16.0266   24.8378 C.3     1  UNL1        0.0447
     14 C          -9.7949  -17.2520   24.1443 C.ar    1  UNL1        0.0090
     15 C          -9.3642  -18.6129   24.6053 C.ar    1  UNL1        0.0300
     16 C          -9.8816  -19.8382   23.9119 C.ar    1  UNL1        0.1672
     17 F          -9.4509  -21.1991   24.3729 F       1  UNL1       -0.2018
     18 C         -10.8296  -19.7026   22.7574 C.ar    1  UNL1        0.1696
     19 F         -11.3470  -20.9280   22.0639 F       1  UNL1       -0.2017
     20 C         -11.2603  -18.3418   22.2964 C.ar    1  UNL1        0.0612
     21 C         -10.7430  -17.1165   22.9898 C.ar    1  UNL1        0.1386
     22 F         -11.1736  -15.7556   22.5288 F       1  UNL1       -0.2044
     23 C          -3.8285  -19.1774   22.8050 C.3     1  UNL1        0.1111
     24 N          -2.7641  -18.1964   22.4114 N.3     1  UNL1       -0.1743
     25 H          -1.9320  -18.4322   22.9520 H       1  UNL1        0.1488
     26 S          -2.3340  -18.0912   20.9782 S.O2    1  UNL1        0.1272
     27 O          -1.8622  -19.5147   21.0154 O.2     1  UNL1       -0.1497
     28 O          -2.8057  -16.6678   20.9411 O.2     1  UNL1       -0.1497
     29 C          -1.9038  -17.9861   19.5451 C.3     1  UNL1        0.5357
     30 F          -2.8940  -19.0485   19.1699 F       1  UNL1       -0.1493
     31 F          -0.9135  -16.9236   19.9204 F       1  UNL1       -0.1493
     32 F          -1.4735  -17.8809   18.1120 F       1  UNL1       -0.1493
@<TRIPOS>BOND
     1    10     9    1
     2    10     8    1
     3     8     1    1
     4     1     2    2
     5     1     3   am
     6     3     4    1
     7     4     5    1
     8     5     6    1
     9     6     7    1
    10     7    23    1
    11    23    24    1
    12    24    26    1
    13    26    27    2
    14    26    28    2
    15    26    29    1
    16    29    30    1
    17    29    31    1
    18    29    32    1
    19    10    13    1
    20    13    14    1
    21    14    15   ar
    22    15    16   ar
    23    16    17    1
    24    16    18   ar
    25    18    19    1
    26    18    20   ar
    27    20    21   ar
    28    21    22    1
    29     7     3    1
    30    21    14   ar
    31     9    11    1
    32     9    12    1
    33    24    25    1
@<TRIPOS>MOLECULE
*****
 32 33 0 0 0
SMALL
GASTEIGER

@<TRIPOS>ATOM
      1 C          -7.7736  -17.4158   22.8729 C.2     1  UNL1        0.2270
      2 O          -7.4784  -17.0057   21.4606 O.2     1  UNL1       -0.2748
      3 N          -8.8102  -18.4643   23.1484 N.am    1  UNL1       -0.2797
      4 C          -9.2111  -18.9739   24.5010 C.3     1  UNL1        0.0934
      5 C         -10.2766  -20.0120   24.3082 C.3     1  UNL1        0.0232
      6 C         -10.5342  -20.1439   22.8364 C.3     1  UNL1        0.0230
      7 C          -9.6279  -19.1874   22.1196 C.3     1  UNL1        0.0928
      8 C          -7.0323  -16.7772   24.0098 C.3     1  UNL1        0.1010
      9 N          -5.5343  -14.7436   23.4012 N.3     1  UNL1       -0.3215
     10 C          -5.6718  -16.1881   23.7813 C.3     1  UNL1        0.0644
     11 H          -6.4593  -14.3176   23.3435 H       1  UNL1        0.1188
     12 H          -5.0704  -14.6730   22.4955 H       1  UNL1        0.1188
     13 C          -4.4490  -17.0434   23.9330 C.3     1  UNL1        0.0447
     14 C          -3.6874  -17.4851   22.7185 C.ar    1  UNL1        0.0090
     15 C          -2.5476  -16.6560   22.2054 C.ar    1  UNL1        0.0300
     16 C          -1.7860  -17.0977   20.9910 C.ar    1  UNL1        0.1672
     17 F          -0.6461  -16.2686   20.4778 F       1  UNL1       -0.2018
     18 C          -2.1642  -18.3686   20.2897 C.ar    1  UNL1        0.1696
     19 F          -1.4026  -18.8104   19.0752 F       1  UNL1       -0.2017
     20 C          -3.3040  -19.1978   20.8028 C.ar    1  UNL1        0.0612
     21 C          -4.0656  -18.7560   22.0172 C.ar    1  UNL1        0.1386
     22 F          -5.2055  -19.5852   22.5304 F       1  UNL1       -0.2044
     23 C          -9.5526  -18.9889   20.6347 C.3     1  UNL1        0.1111
     24 N         -10.2883  -17.8507   19.9918 N.3     1  UNL1       -0.1743
     25 H         -10.8456  -18.2496   19.2363 H       1  UNL1        0.1488
     26 S         -11.2136  -16.9987   20.8090 S.O2    1  UNL1        0.1272
     27 O         -12.2750  -18.0539   20.7072 O.2     1  UNL1       -0.1497
     28 O         -10.1522  -15.9437   20.9108 O.2     1  UNL1       -0.1497
     29 C         -12.1389  -16.1467   21.6262 C.3     1  UNL1        0.5357
     30 F         -12.9820  -15.8967   20.4111 F       1  UNL1       -0.1493
     31 F         -11.2958  -16.3968   22.8415 F       1  UNL1       -0.1493
     32 F         -13.0642  -15.2948   22.4435 F       1  UNL1       -0.1493
@<TRIPOS>BOND
     1    10     9    1
     2    10     8    1
     3     8     1    1
     4     1     2    2
     5     1     3   am
     6     3     4    1
     7     4     5    1
     8     5     6    1
     9     6     7    1
    10     7    23    1
    11    23    24    1
    12    24    26    1
    13    26    27    2
    14    26    28    2
    15    26    29    1
    16    29    30    1
    17    29    31    1
    18    29    32    1
    19    10    13    1
    20    13    14    1
    21    14    15   ar
    22    15    16   ar
    23    16    17    1
    24    16    18   ar
    25    18    19    1
    26    18    20   ar
    27    20    21   ar
    28    21    22    1
    29     7     3    1
    30    21    14   ar
    31     9    11    1
    32     9    12    1
    33    24    25    1
@<TRIPOS>MOLECULE
*****
 32 33 0 0 0
SMALL
GASTEIGER

@<TRIPOS>ATOM
      1 C          -5.8641  -16.3782   23.4901 C.2     1  UNL1        0.2270
      2 O          -4.6682  -15.8558   24.2296 O.2     1  UNL1       -0.2748
      3 N          -5.7888  -17.6964   22.7782 N.am    1  UNL1       -0.2797
      4 C          -6.8970  -18.3435   22.0014 C.3     1  UNL1        0.0934
      5 C          -6.3852  -19.6459   21.4613 C.3     1  UNL1        0.0232
      6 C          -4.9608  -19.8037   21.9042 C.3     1  UNL1        0.0230
      7 C          -4.5922  -18.5988   22.7181 C.3     1  UNL1        0.0928
      8 C          -7.1353  -15.5825   23.4624 C.3     1  UNL1        0.1010
      9 N          -7.2969  -14.9056   25.9656 N.3     1  UNL1       -0.3215
     10 C          -7.9454  -15.4193   24.7144 C.3     1  UNL1        0.0644
     11 H          -6.3103  -14.7198   25.7856 H       1  UNL1        0.1188
     12 H          -7.3822  -15.6039   26.7041 H       1  UNL1        0.1188
     13 C          -9.4038  -15.7699   24.7150 C.3     1  UNL1        0.0447
     14 C          -9.8799  -16.9998   24.0004 C.ar    1  UNL1        0.0090
     15 C         -10.3095  -16.9148   22.5658 C.ar    1  UNL1        0.0300
     16 C         -10.7856  -18.1447   21.8513 C.ar    1  UNL1        0.1672
     17 F         -11.2153  -18.0597   20.4167 F       1  UNL1       -0.2018
     18 C         -10.8319  -19.4597   22.5714 C.ar    1  UNL1        0.1696
     19 F         -11.3080  -20.6897   21.8568 F       1  UNL1       -0.2017
     20 C         -10.4023  -19.5448   24.0060 C.ar    1  UNL1        0.0612
     21 C          -9.9262  -18.3149   24.7205 C.ar    1  UNL1        0.1386
     22 F          -9.4965  -18.3999   26.1552 F       1  UNL1       -0.2044
     23 C          -3.2608  -18.3416   23.3592 C.3     1  UNL1        0.1111
     24 N          -2.2931  -17.3887   22.7224 N.3     1  UNL1       -0.1743
     25 H          -1.3935  -17.5321   23.1812 H       1  UNL1        0.1488
     26 S          -2.0407  -17.4516   21.2451 S.O2    1  UNL1        0.1272
     27 O          -1.4117  -18.8034   21.4103 O.2     1  UNL1       -0.1497
     28 O          -2.6696  -16.0999   21.0801 O.2     1  UNL1       -0.1497
     29 C          -1.7882  -17.5146   19.7679 C.3     1  UNL1        0.5357
     30 F          -3.0500  -18.3049   19.5858 F       1  UNL1       -0.1493
     31 F          -0.5263  -16.7242   19.9500 F       1  UNL1       -0.1493
     32 F          -1.5356  -17.5776   18.2907 F       1  UNL1       -0.1493
@<TRIPOS>BOND
     1    10     9    1
     2    10     8    1
     3     8     1    1
     4     1     2    2
     5     1     3   am
     6     3     4    1
     7     4     5    1
     8     5     6    1
     9     6     7    1
    10     7    23    1
    11    23    24    1
    12    24    26    1
    13    26    27    2
    14    26    28    2
    15    26    29    1
    16    29    30    1
    17    29    31    1
    18    29    32    1
    19    10    13    1
    20    13    14    1
    21    14    15   ar
    22    15    16   ar
    23    16    17    1
    24    16    18   ar
    25    18    19    1
    26    18    20   ar
    27    20    21   ar
    28    21    22    1
    29     7     3    1
    30    21    14   ar
    31     9    11    1
    32     9    12    1
    33    24    25    1
@<TRIPOS>MOLECULE
*****
 32 33 0 0 0
SMALL
GASTEIGER

@<TRIPOS>ATOM
      1 C          -6.2656  -18.9684   22.3285 C.2     1  UNL1        0.2270
      2 O          -5.1366  -19.9154   22.0486 O.2     1  UNL1       -0.2748
      3 N          -5.9905  -17.6441   22.9770 N.am    1  UNL1       -0.2797
      4 C          -7.0120  -16.5995   23.3168 C.3     1  UNL1        0.0934
      5 C          -6.2983  -15.4417   23.9494 C.3     1  UNL1        0.0232
      6 C          -4.8357  -15.7708   24.0005 C.3     1  UNL1        0.0230
      7 C          -4.6455  -17.1319   23.3996 C.3     1  UNL1        0.0928
      8 C          -7.6698  -19.3455   21.9599 C.3     1  UNL1        0.1010
      9 N          -7.1224  -18.9783   19.4468 N.3     1  UNL1       -0.3215
     10 C          -8.1202  -19.2561   20.5318 C.3     1  UNL1        0.0644
     11 H          -6.1936  -18.8787   19.8564 H       1  UNL1        0.1188
     12 H          -7.3757  -18.1158   18.9647 H       1  UNL1        0.1188
     13 C          -9.5682  -19.4445   20.1889 C.3     1  UNL1        0.0447
     14 C         -10.6311  -18.9131   21.1043 C.ar    1  UNL1        0.0090
     15 C         -10.7125  -19.3992   22.5210 C.ar    1  UNL1        0.0300
     16 C         -11.7753  -18.8677   23.4363 C.ar    1  UNL1        0.1672
     17 F         -11.8568  -19.3538   24.8531 F       1  UNL1       -0.2018
     18 C         -12.7568  -17.8501   22.9350 C.ar    1  UNL1        0.1696
     19 F         -13.8196  -17.3187   23.8504 F       1  UNL1       -0.2017
     20 C         -12.6754  -17.3640   21.5183 C.ar    1  UNL1        0.0612
     21 C         -11.6125  -17.8955   20.6030 C.ar    1  UNL1        0.1386
     22 F         -11.5311  -17.4094   19.1862 F       1  UNL1       -0.2044
     23 C          -3.3395  -17.8540   23.2479 C.3     1  UNL1        0.1111
     24 N          -2.2074  -17.2085   22.5051 N.3     1  UNL1       -0.1743
     25 H          -1.3471  -17.4968   22.9712 H       1  UNL1        0.1488
     26 S          -2.0189  -17.4798   21.0419 S.O2    1  UNL1        0.1272
     27 O          -2.6572  -16.1622   20.7155 O.2     1  UNL1       -0.1497
     28 O          -1.3807  -18.7974   21.3685 O.2     1  UNL1       -0.1497
     29 C          -1.8304  -17.7511   19.5788 C.3     1  UNL1        0.5357
     30 F          -3.2730  -18.1466   19.4662 F       1  UNL1       -0.1493
     31 F          -0.3878  -17.3556   19.6913 F       1  UNL1       -0.1493
     32 F          -1.6419  -18.0223   18.1156 F       1  UNL1       -0.1493
@<TRIPOS>BOND
     1    10     9    1
     2    10     8    1
     3     8     1    1
     4     1     2    2
     5     1     3   am
     6     3     4    1
     7     4     5    1
     8     5     6    1
     9     6     7    1
    10     7    23    1
    11    23    24    1
    12    24    26    1
    13    26    27    2
    14    26    28    2
    15    26    29    1
    16    29    30    1
    17    29    31    1
    18    29    32    1
    19    10    13    1
    20    13    14    1
    21    14    15   ar
    22    15    16   ar
    23    16    17    1
    24    16    18   ar
    25    18    19    1
    26    18    20   ar
    27    20    21   ar
    28    21    22    1
    29     7     3    1
    30    21    14   ar
    31     9    11    1
    32     9    12    1
    33    24    25    1
@<TRIPOS>MOLECULE
*****
 32 33 0 0 0
SMALL
GASTEIGER

@<TRIPOS>ATOM
      1 C          -8.7186  -17.2150   24.5915 C.2     1  UNL1        0.2270
      2 O          -8.3307  -17.5320   23.1776 O.2     1  UNL1       -0.2748
      3 N          -7.7911  -16.4220   25.4638 N.am    1  UNL1       -0.2797
      4 C          -8.0415  -16.0301   26.8899 C.3     1  UNL1        0.0934
      5 C          -6.8555  -15.2475   27.3706 C.3     1  UNL1        0.0232
      6 C          -5.8722  -15.1557   26.2415 C.3     1  UNL1        0.0230
      7 C          -6.4504  -15.8816   25.0631 C.3     1  UNL1        0.0928
      8 C         -10.0339  -17.6910   25.1331 C.3     1  UNL1        0.1010
      9 N          -9.9198  -20.2735   25.3934 N.3     1  UNL1       -0.3215
     10 C         -10.5422  -19.0563   24.7760 C.3     1  UNL1        0.0644
     11 H          -9.1722  -19.9891   26.0263 H       1  UNL1        0.1188
     12 H          -9.5360  -20.8686   24.6593 H       1  UNL1        0.1188
     13 C         -11.6728  -19.2045   23.8014 C.3     1  UNL1        0.0447
     14 C         -11.6557  -18.4399   22.5110 C.ar    1  UNL1        0.0090
     15 C         -10.7969  -18.9076   21.3735 C.ar    1  UNL1        0.0300
     16 C         -10.7799  -18.1431   20.0831 C.ar    1  UNL1        0.1672
     17 F          -9.9211  -18.6107   18.9456 F       1  UNL1       -0.2018
     18 C         -11.6216  -16.9109   19.9302 C.ar    1  UNL1        0.1696
     19 F         -11.6045  -16.1464   18.6397 F       1  UNL1       -0.2017
     20 C         -12.4803  -16.4433   21.0676 C.ar    1  UNL1        0.0612
     21 C         -12.4974  -17.2078   22.3580 C.ar    1  UNL1        0.1386
     22 F         -13.3561  -16.7402   23.4955 F       1  UNL1       -0.2044
     23 C          -5.8018  -16.0394   23.7198 C.3     1  UNL1        0.1111
     24 N          -5.5281  -17.4101   23.1754 N.3     1  UNL1       -0.1743
     25 H          -6.0894  -17.5084   22.3294 H       1  UNL1        0.1488
     26 S          -4.1276  -17.8078   22.8143 S.O2    1  UNL1        0.1272
     27 O          -4.5180  -19.2540   22.8938 O.2     1  UNL1       -0.1497
     28 O          -3.7373  -16.3617   22.7349 O.2     1  UNL1       -0.1497
     29 C          -2.7271  -18.2057   22.4533 C.3     1  UNL1        0.5357
     30 F          -2.2850  -16.7795   22.5965 F       1  UNL1       -0.1493
     31 F          -3.1693  -19.6320   22.3101 F       1  UNL1       -0.1493
     32 F          -1.3267  -18.6037   22.0922 F       1  UNL1       -0.1493
@<TRIPOS>BOND
     1    10     9    1
     2    10     8    1
     3     8     1    1
     4     1     2    2
     5     1     3   am
     6     3     4    1
     7     4     5    1
     8     5     6    1
     9     6     7    1
    10     7    23    1
    11    23    24    1
    12    24    26    1
    13    26    27    2
    14    26    28    2
    15    26    29    1
    16    29    30    1
    17    29    31    1
    18    29    32    1
    19    10    13    1
    20    13    14    1
    21    14    15   ar
    22    15    16   ar
    23    16    17    1
    24    16    18   ar
    25    18    19    1
    26    18    20   ar
    27    20    21   ar
    28    21    22    1
    29     7     3    1
    30    21    14   ar
    31     9    11    1
    32     9    12    1
    33    24    25    1
@<TRIPOS>MOLECULE
*****
 32 33 0 0 0
SMALL
GASTEIGER

@<TRIPOS>ATOM
      1 C          -7.8116  -17.2642   22.7938 C.2     1  UNL1        0.2270
      2 O          -7.5772  -16.8809   21.3626 O.2     1  UNL1       -0.2748
      3 N          -8.7937  -18.3473   23.1289 N.am    1  UNL1       -0.2797
      4 C          -9.1313  -18.8361   24.5063 C.3     1  UNL1        0.0934
      5 C         -10.1568  -19.9227   24.3742 C.3     1  UNL1        0.0232
      6 C         -10.4531  -20.1054   22.9151 C.3     1  UNL1        0.0230
      7 C          -9.6107  -19.1318   22.1455 C.3     1  UNL1        0.0928
      8 C          -7.0640  -16.5644   23.8898 C.3     1  UNL1        0.1010
      9 N          -5.1837  -14.8185   23.4812 N.3     1  UNL1       -0.3215
     10 C          -5.6104  -16.2373   23.7158 C.3     1  UNL1        0.0644
     11 H          -6.0052  -14.2139   23.4699 H       1  UNL1        0.1188
     12 H          -4.7006  -14.7525   22.5853 H       1  UNL1        0.1188
     13 C          -4.5835  -17.3290   23.7766 C.3     1  UNL1        0.0447
     14 C          -4.2607  -18.1243   22.5464 C.ar    1  UNL1        0.0090
     15 C          -5.1296  -19.2817   22.1521 C.ar    1  UNL1        0.0300
     16 C          -4.8067  -20.0769   20.9219 C.ar    1  UNL1        0.1672
     17 F          -5.6756  -21.2344   20.5276 F       1  UNL1       -0.2018
     18 C          -3.6150  -19.7148   20.0861 C.ar    1  UNL1        0.1696
     19 F          -3.2921  -20.5102   18.8559 F       1  UNL1       -0.2017
     20 C          -2.7461  -18.5575   20.4804 C.ar    1  UNL1        0.0612
     21 C          -3.0689  -17.7622   21.7105 C.ar    1  UNL1        0.1386
     22 F          -2.2000  -16.6048   22.1049 F       1  UNL1       -0.2044
     23 C          -9.5890  -18.9710   20.6544 C.3     1  UNL1        0.1111
     24 N         -10.3458  -17.8475   20.0100 N.3     1  UNL1       -0.1743
     25 H         -10.9033  -18.2592   19.2616 H       1  UNL1        0.1488
     26 S         -11.2766  -17.0033   20.8290 S.O2    1  UNL1        0.1272
     27 O         -12.2947  -18.1047   20.8071 O.2     1  UNL1       -0.1497
     28 O         -10.2585  -15.9020   20.8509 O.2     1  UNL1       -0.1497
     29 C         -12.2075  -16.1591   21.6481 C.3     1  UNL1        0.5357
     30 F         -13.0126  -15.8548   20.4196 F       1  UNL1       -0.1493
     31 F         -11.4024  -16.4635   22.8767 F       1  UNL1       -0.1493
     32 F         -13.1383  -15.3150   22.4672 F       1  UNL1       -0.1493
@<TRIPOS>BOND
     1    10     9    1
     2    10     8    1
     3     8     1    1
     4     1     2    2
     5     1     3   am
     6     3     4    1
     7     4     5    1
     8     5     6    1
     9     6     7    1
    10     7    23    1
    11    23    24    1
    12    24    26    1
    13    26    27    2
    14    26    28    2
    15    26    29    1
    16    29    30    1
    17    29    31    1
    18    29    32    1
    19    10    13    1
    20    13    14    1
    21    14    15   ar
    22    15    16   ar
    23    16    17    1
    24    16    18   ar
    25    18    19    1
    26    18    20   ar
    27    20    21   ar
    28    21    22    1
    29     7     3    1
    30    21    14   ar
    31     9    11    1
    32     9    12    1
    33    24    25    1
@<TRIPOS>MOLECULE
*****
 32 33 0 0 0
SMALL
GASTEIGER

@<TRIPOS>ATOM
      1 C          -9.8901  -17.0674   24.1575 C.2     1  UNL1        0.2270
      2 O          -9.7567  -16.3407   22.8521 O.2     1  UNL1       -0.2748
      3 N          -9.0860  -16.6291   25.3454 N.am    1  UNL1       -0.2797
      4 C          -9.1136  -17.2551   26.7083 C.3     1  UNL1        0.0934
      5 C          -8.1578  -16.5008   27.5843 C.3     1  UNL1        0.0232
      6 C          -7.5395  -15.4085   26.7628 C.3     1  UNL1        0.0230
      7 C          -8.1132  -15.4879   25.3791 C.3     1  UNL1        0.0928
      8 C         -10.8276  -18.2324   24.2749 C.3     1  UNL1        0.1010
      9 N          -9.9833  -20.5572   25.0702 N.3     1  UNL1       -0.3215
     10 C         -10.3461  -19.6174   23.9588 C.3     1  UNL1        0.0644
     11 H         -10.1233  -20.0928   25.9674 H       1  UNL1        0.1188
     12 H          -9.0052  -20.8312   24.9781 H       1  UNL1        0.1188
     13 C         -10.2273  -20.0626   22.5313 C.3     1  UNL1        0.0447
     14 C          -8.9390  -19.8650   21.7888 C.ar    1  UNL1        0.0090
     15 C          -7.6299  -20.0983   22.4829 C.ar    1  UNL1        0.0300
     16 C          -6.3417  -19.9007   21.7403 C.ar    1  UNL1        0.1672
     17 F          -5.0325  -20.1340   22.4344 F       1  UNL1       -0.2018
     18 C          -6.3625  -19.4699   20.3037 C.ar    1  UNL1        0.1696
     19 F          -5.0742  -19.2724   19.5611 F       1  UNL1       -0.2017
     20 C          -7.6716  -19.2367   19.6096 C.ar    1  UNL1        0.0612
     21 C          -8.9598  -19.4342   20.3521 C.ar    1  UNL1        0.1386
     22 F         -10.2690  -19.2010   19.6580 F       1  UNL1       -0.2044
     23 C          -7.7736  -14.5846   24.2308 C.3     1  UNL1        0.1111
     24 N          -6.6967  -14.9750   23.2623 N.3     1  UNL1       -0.1743
     25 H          -6.2246  -14.1146   22.9844 H       1  UNL1        0.1488
     26 S          -5.6271  -15.9405   23.6791 S.O2    1  UNL1        0.1272
     27 O          -6.2856  -17.0188   22.8705 O.2     1  UNL1       -0.1497
     28 O          -4.9688  -14.8622   24.4877 O.2     1  UNL1       -0.1497
     29 C          -4.5576  -16.9061   24.0959 C.3     1  UNL1        0.5357
     30 F          -4.6923  -16.4425   25.5160 F       1  UNL1       -0.1493
     31 F          -4.4229  -17.3698   22.6756 F       1  UNL1       -0.1493
     32 F          -3.4881  -17.8717   24.5125 F       1  UNL1       -0.1493
@<TRIPOS>BOND
     1    10     9    1
     2    10     8    1
     3     8     1    1
     4     1     2    2
     5     1     3   am
     6     3     4    1
     7     4     5    1
     8     5     6    1
     9     6     7    1
    10     7    23    1
    11    23    24    1
    12    24    26    1
    13    26    27    2
    14    26    28    2
    15    26    29    1
    16    29    30    1
    17    29    31    1
    18    29    32    1
    19    10    13    1
    20    13    14    1
    21    14    15   ar
    22    15    16   ar
    23    16    17    1
    24    16    18   ar
    25    18    19    1
    26    18    20   ar
    27    20    21   ar
    28    21    22    1
    29     7     3    1
    30    21    14   ar
    31     9    11    1
    32     9    12    1
    33    24    25    1
