@<TRIPOS>MOLECULE
*****
 14 15 0 0 0
SMALL
GASTEIGER

@<TRIPOS>ATOM
      1 N          -7.6577  -17.3308   21.5454 N.pl3   1  UNL1       -0.3267
      2 C          -7.6276  -16.4333   22.7469 C.ar    1  UNL1        0.2236
      3 O          -6.4657  -15.5962   23.1931 O.2     1  UNL1       -0.3387
      4 N          -6.8741  -14.8608   24.4351 N.ar    1  UNL1       -0.0738
      5 C          -8.2884  -15.2434   24.7564 C.ar    1  UNL1        0.1451
      6 C          -8.7542  -16.2153   23.7130 C.ar    1  UNL1        0.0737
      7 H          -6.8637  -17.4078   20.9685 H       1  UNL1        0.1452
      8 H          -8.4715  -17.8428   21.3337 H       1  UNL1        0.1452
      9 C         -10.1086  -16.8565   23.6473 C.ar    1  UNL1        0.0059
     10 C         -10.4019  -18.0758   24.4702 C.ar    1  UNL1        0.0002
     11 C         -11.7564  -18.7170   24.4045 C.ar    1  UNL1        0.0000
     12 C         -12.8175  -18.1389   23.5158 C.ar    1  UNL1        0.0000
     13 C         -12.5242  -16.9196   22.6929 C.ar    1  UNL1        0.0000
     14 C         -11.1698  -16.2784   22.7586 C.ar    1  UNL1        0.0002
@<TRIPOS>BOND
     1     1     2    1
     2     2     3   ar
     3     3     4   ar
     4     4     5   ar
     5     5     6   ar
     6     6     9    1
     7     9    10   ar
     8    10    11   ar
     9    11    12   ar
    10    12    13   ar
    11    13    14   ar
    12     6     2   ar
    13    14     9   ar
    14     1     7    1
    15     1     8    1
@<TRIPOS>MOLECULE
*****
 14 15 0 0 0
SMALL
GASTEIGER

@<TRIPOS>ATOM
      1 N          -7.9515  -14.7317   21.6909 N.pl3   1  UNL1       -0.3267
      2 C          -8.6439  -16.0077   22.0684 C.ar    1  UNL1        0.2236
      3 O          -9.4878  -16.8543   21.1623 O.2     1  UNL1       -0.3387
      4 N          -9.9795  -18.0309   21.9522 N.ar    1  UNL1       -0.0738
      5 C          -9.4394  -17.9114   23.3465 C.ar    1  UNL1        0.1451
      6 C          -8.6140  -16.6610   23.4183 C.ar    1  UNL1        0.0737
      7 H          -8.0312  -14.3809   20.7745 H       1  UNL1        0.1452
      8 H          -7.4173  -14.2451   22.3595 H       1  UNL1        0.1452
      9 C          -7.8864  -16.1531   24.6278 C.ar    1  UNL1        0.0059
     10 C          -6.4319  -15.7987   24.5342 C.ar    1  UNL1        0.0002
     11 C          -5.7044  -15.2908   25.7436 C.ar    1  UNL1        0.0000
     12 C          -6.4314  -15.1373   27.0466 C.ar    1  UNL1        0.0000
     13 C          -7.8859  -15.4917   27.1403 C.ar    1  UNL1        0.0000
     14 C          -8.6134  -15.9996   25.9309 C.ar    1  UNL1        0.0002
@<TRIPOS>BOND
     1     1     2    1
     2     2     3   ar
     3     3     4   ar
     4     4     5   ar
     5     5     6   ar
     6     6     9    1
     7     9    10   ar
     8    10    11   ar
     9    11    12   ar
    10    12    13   ar
    11    13    14   ar
    12     6     2   ar
    13    14     9   ar
    14     1     7    1
    15     1     8    1
@<TRIPOS>MOLECULE
*****
 14 15 0 0 0
SMALL
GASTEIGER

@<TRIPOS>ATOM
      1 N          -7.9247  -14.7156   21.6895 N.pl3   1  UNL1       -0.3267
      2 C          -8.6470  -15.9735   22.0713 C.ar    1  UNL1        0.2236
      3 O          -9.5063  -16.8060   21.1665 O.2     1  UNL1       -0.3387
      4 N         -10.0273  -17.9669   21.9609 N.ar    1  UNL1       -0.0738
      5 C          -9.4900  -17.8518   23.3566 C.ar    1  UNL1        0.1451
      6 C          -8.6369  -16.6199   23.4248 C.ar    1  UNL1        0.0737
      7 H          -7.9931  -14.3682   20.7708 H       1  UNL1        0.1452
      8 H          -7.3823  -14.2374   22.3575 H       1  UNL1        0.1452
      9 C          -7.9027  -16.1217   24.6343 C.ar    1  UNL1        0.0059
     10 C          -8.6216  -15.9820   25.9434 C.ar    1  UNL1        0.0002
     11 C          -7.8874  -15.4839   27.1528 C.ar    1  UNL1        0.0000
     12 C          -6.4342  -15.1254   27.0531 C.ar    1  UNL1        0.0000
     13 C          -5.7153  -15.2651   25.7441 C.ar    1  UNL1        0.0000
     14 C          -6.4496  -15.7633   24.5347 C.ar    1  UNL1        0.0002
@<TRIPOS>BOND
     1     1     2    1
     2     2     3   ar
     3     3     4   ar
     4     4     5   ar
     5     5     6   ar
     6     6     9    1
     7     9    10   ar
     8    10    11   ar
     9    11    12   ar
    10    12    13   ar
    11    13    14   ar
    12     6     2   ar
    13    14     9   ar
    14     1     7    1
    15     1     8    1
@<TRIPOS>MOLECULE
*****
 14 15 0 0 0
SMALL
GASTEIGER

@<TRIPOS>ATOM
      1 N          -8.2436  -14.8241   24.1533 N.pl3   1  UNL1       -0.3267
      2 C          -7.7269  -16.0553   23.4699 C.ar    1  UNL1        0.2236
      3 O          -6.2909  -16.3502   23.1519 O.2     1  UNL1       -0.3387
      4 N          -6.2318  -17.6850   22.4700 N.ar    1  UNL1       -0.0738
      5 C          -7.6312  -18.2150   22.3666 C.ar    1  UNL1        0.1451
      6 C          -8.5552  -17.2078   22.9846 C.ar    1  UNL1        0.0737
      7 H          -7.6178  -14.1188   24.4363 H       1  UNL1        0.1452
      8 H          -9.2087  -14.7213   24.3188 H       1  UNL1        0.1452
      9 C         -10.0459  -17.3314   23.0973 C.ar    1  UNL1        0.0059
     10 C         -10.9361  -16.4326   22.2914 C.ar    1  UNL1        0.0002
     11 C         -12.4267  -16.5563   22.4042 C.ar    1  UNL1        0.0000
     12 C         -13.0271  -17.5788   23.3230 C.ar    1  UNL1        0.0000
     13 C         -12.1369  -18.4776   24.1289 C.ar    1  UNL1        0.0000
     14 C         -10.6463  -18.3539   24.0161 C.ar    1  UNL1        0.0002
@<TRIPOS>BOND
     1     1     2    1
     2     2     3   ar
     3     3     4   ar
     4     4     5   ar
     5     5     6   ar
     6     6     9    1
     7     9    10   ar
     8    10    11   ar
     9    11    12   ar
    10    12    13   ar
    11    13    14   ar
    12     6     2   ar
    13    14     9   ar
    14     1     7    1
    15     1     8    1
@<TRIPOS>MOLECULE
*****
 14 15 0 0 0
SMALL
GASTEIGER

@<TRIPOS>ATOM
      1 N          -8.8270  -15.5734   21.7648 N.pl3   1  UNL1       -0.3267
      2 C         -10.0759  -16.0288   21.0699 C.ar    1  UNL1        0.2236
      3 O         -10.7446  -15.3400   19.9173 O.2     1  UNL1       -0.3387
      4 N         -11.9574  -16.1384   19.5406 N.ar    1  UNL1       -0.0738
      5 C         -12.0382  -17.3205   20.4604 C.ar    1  UNL1        0.1451
      6 C         -10.8754  -17.2528   21.4056 C.ar    1  UNL1        0.0737
      7 H          -8.3713  -14.7520   21.4701 H       1  UNL1        0.1452
      8 H          -8.4631  -16.0959   22.5157 H       1  UNL1        0.1452
      9 C         -10.5663  -18.2364   22.4951 C.ar    1  UNL1        0.0059
     10 C          -9.4095  -19.1799   22.3478 C.ar    1  UNL1        0.0002
     11 C          -9.1005  -20.1634   23.4373 C.ar    1  UNL1        0.0000
     12 C          -9.9483  -20.2036   24.6741 C.ar    1  UNL1        0.0000
     13 C         -11.1050  -19.2601   24.8214 C.ar    1  UNL1        0.0000
     14 C         -11.4140  -18.2766   23.7319 C.ar    1  UNL1        0.0002
@<TRIPOS>BOND
     1     1     2    1
     2     2     3   ar
     3     3     4   ar
     4     4     5   ar
     5     5     6   ar
     6     6     9    1
     7     9    10   ar
     8    10    11   ar
     9    11    12   ar
    10    12    13   ar
    11    13    14   ar
    12     6     2   ar
    13    14     9   ar
    14     1     7    1
    15     1     8    1
@<TRIPOS>MOLECULE
*****
 14 15 0 0 0
SMALL
GASTEIGER

@<TRIPOS>ATOM
      1 N          -8.8318  -15.6001   21.7432 N.pl3   1  UNL1       -0.3267
      2 C         -10.0871  -16.0586   21.0621 C.ar    1  UNL1        0.2236
      3 O         -10.7670  -15.3748   19.9132 O.2     1  UNL1       -0.3387
      4 N         -11.9830  -16.1750   19.5512 N.ar    1  UNL1       -0.0738
      5 C         -12.0546  -17.3534   20.4765 C.ar    1  UNL1        0.1451
      6 C         -10.8829  -17.2815   21.4103 C.ar    1  UNL1        0.0737
      7 H          -8.3791  -14.7798   21.4408 H       1  UNL1        0.1452
      8 H          -8.4606  -16.1195   22.4927 H       1  UNL1        0.1452
      9 C         -10.5631  -18.2606   22.5008 C.ar    1  UNL1        0.0059
     10 C         -11.3956  -18.2922   23.7482 C.ar    1  UNL1        0.0002
     11 C         -11.0758  -19.2713   24.8386 C.ar    1  UNL1        0.0000
     12 C          -9.9236  -20.2188   24.6816 C.ar    1  UNL1        0.0000
     13 C          -9.0912  -20.1873   23.4342 C.ar    1  UNL1        0.0000
     14 C          -9.4109  -19.2082   22.3438 C.ar    1  UNL1        0.0002
@<TRIPOS>BOND
     1     1     2    1
     2     2     3   ar
     3     3     4   ar
     4     4     5   ar
     5     5     6   ar
     6     6     9    1
     7     9    10   ar
     8    10    11   ar
     9    11    12   ar
    10    12    13   ar
    11    13    14   ar
    12     6     2   ar
    13    14     9   ar
    14     1     7    1
    15     1     8    1
@<TRIPOS>MOLECULE
*****
 14 15 0 0 0
SMALL
GASTEIGER

@<TRIPOS>ATOM
      1 N         -10.6509  -19.9201   25.0191 N.pl3   1  UNL1       -0.3267
      2 C         -11.7048  -19.1019   24.3336 C.ar    1  UNL1        0.2236
      3 O         -12.9752  -18.6016   24.9547 O.2     1  UNL1       -0.3387
      4 N         -13.7289  -17.8309   23.9116 N.ar    1  UNL1       -0.0738
      5 C         -12.9243  -17.8548   22.6459 C.ar    1  UNL1        0.1451
      6 C         -11.6733  -18.6404   22.9067 C.ar    1  UNL1        0.0737
      7 H         -10.7624  -20.1749   25.9635 H       1  UNL1        0.1452
      8 H          -9.8477  -20.2022   24.5246 H       1  UNL1        0.1452
      9 C         -10.5823  -18.9160   21.9147 C.ar    1  UNL1        0.0059
     10 C          -9.1533  -18.6361   22.2745 C.ar    1  UNL1        0.0002
     11 C          -8.0624  -18.9117   21.2825 C.ar    1  UNL1        0.0000
     12 C          -8.4006  -19.4672   19.9308 C.ar    1  UNL1        0.0000
     13 C          -9.8297  -19.7471   19.5711 C.ar    1  UNL1        0.0000
     14 C         -10.9205  -19.4715   20.5631 C.ar    1  UNL1        0.0002
@<TRIPOS>BOND
     1     1     2    1
     2     2     3   ar
     3     3     4   ar
     4     4     5   ar
     5     5     6   ar
     6     6     9    1
     7     9    10   ar
     8    10    11   ar
     9    11    12   ar
    10    12    13   ar
    11    13    14   ar
    12     6     2   ar
    13    14     9   ar
    14     1     7    1
    15     1     8    1
@<TRIPOS>MOLECULE
*****
 14 15 0 0 0
SMALL
GASTEIGER

@<TRIPOS>ATOM
      1 N          -7.7839  -15.0018   22.1366 N.pl3   1  UNL1       -0.3267
      2 C          -7.7460  -15.2641   23.6130 C.ar    1  UNL1        0.2236
      3 O          -6.7042  -14.7662   24.5704 O.2     1  UNL1       -0.3387
      4 N          -7.0575  -15.2647   25.9404 N.ar    1  UNL1       -0.0738
      5 C          -8.3176  -16.0708   25.8295 C.ar    1  UNL1        0.1451
      6 C          -8.7431  -16.0704   24.3911 C.ar    1  UNL1        0.0737
      7 H          -7.0801  -14.4575   21.7151 H       1  UNL1        0.1452
      8 H          -8.5127  -15.3739   21.5891 H       1  UNL1        0.1452
      9 C          -9.9534  -16.7560   23.8296 C.ar    1  UNL1        0.0059
     10 C         -10.1394  -18.2311   24.0280 C.ar    1  UNL1        0.0002
     11 C         -11.3496  -18.9166   23.4665 C.ar    1  UNL1        0.0000
     12 C         -12.3738  -18.1270   22.7064 C.ar    1  UNL1        0.0000
     13 C         -12.1877  -16.6519   22.5079 C.ar    1  UNL1        0.0000
     14 C         -10.9775  -15.9664   23.0695 C.ar    1  UNL1        0.0002
@<TRIPOS>BOND
     1     1     2    1
     2     2     3   ar
     3     3     4   ar
     4     4     5   ar
     5     5     6   ar
     6     6     9    1
     7     9    10   ar
     8    10    11   ar
     9    11    12   ar
    10    12    13   ar
    11    13    14   ar
    12     6     2   ar
    13    14     9   ar
    14     1     7    1
    15     1     8    1
@<TRIPOS>MOLECULE
*****
 14 15 0 0 0
SMALL
GASTEIGER

@<TRIPOS>ATOM
      1 N          -7.6867  -16.6871   22.6078 N.pl3   1  UNL1       -0.3267
      2 C          -7.8969  -17.7219   21.5423 C.ar    1  UNL1        0.2236
      3 O          -6.8755  -18.1789   20.5434 O.2     1  UNL1       -0.3387
      4 N          -7.5128  -19.2208   19.6724 N.ar    1  UNL1       -0.0738
      5 C          -8.9280  -19.4076   20.1332 C.ar    1  UNL1        0.1451
      6 C          -9.1654  -18.4812   21.2888 C.ar    1  UNL1        0.0737
      7 H          -6.8133  -16.2414   22.6955 H       1  UNL1        0.1452
      8 H          -8.4221  -16.4538   23.2193 H       1  UNL1        0.1452
      9 C         -10.4464  -18.3392   22.0562 C.ar    1  UNL1        0.0059
     10 C         -10.5012  -18.7304   23.5033 C.ar    1  UNL1        0.0002
     11 C         -11.7822  -18.5883   24.2706 C.ar    1  UNL1        0.0000
     12 C         -13.0084  -18.0552   23.5909 C.ar    1  UNL1        0.0000
     13 C         -12.9537  -17.6640   22.1438 C.ar    1  UNL1        0.0000
     14 C         -11.6727  -17.8061   21.3765 C.ar    1  UNL1        0.0002
@<TRIPOS>BOND
     1     1     2    1
     2     2     3   ar
     3     3     4   ar
     4     4     5   ar
     5     5     6   ar
     6     6     9    1
     7     9    10   ar
     8    10    11   ar
     9    11    12   ar
    10    12    13   ar
    11    13    14   ar
    12     6     2   ar
    13    14     9   ar
    14     1     7    1
    15     1     8    1
