@<TRIPOS>MOLECULE
*****
 29 32 0 0 0
SMALL
GASTEIGER

@<TRIPOS>ATOM
      1 C           4.6407   -0.8519   30.3333 C.3     1  UNL1        0.0902
      2 N           4.4597   -1.0263   28.8545 N.3     1  UNL1       -0.2639
      3 C           5.5109   -2.0615   28.5837 C.3     1  UNL1        0.0988
      4 C           6.3725   -3.0323   27.8320 C.2     1  UNL1       -0.0132
      5 C           6.9405   -3.8218   26.6900 C.2     1  UNL1       -0.0255
      6 C           7.1465   -4.3347   25.2956 C.3     1  UNL1        0.0730
      7 C           6.9655   -4.5091   23.8168 C.3     1  UNL1        0.2100
      8 O           6.4194   -4.3239   22.4319 O.3     1  UNL1       -0.4751
      9 C           5.3139   -3.5880   21.1913 C.ar    1  UNL1        0.1386
     10 C           5.5199   -4.1008   19.7969 C.ar    1  UNL1        0.0369
     11 C           4.6746   -3.5785   18.6732 C.ar    1  UNL1        0.0032
     12 C           3.6234   -2.5433   18.9440 C.ar    1  UNL1        0.0017
     13 C           3.4174   -2.0305   20.3385 C.ar    1  UNL1        0.0208
     14 C           4.2627   -2.5528   21.4621 C.ar    1  UNL1        0.0384
     15 C           2.3662   -0.9953   20.6093 C.ar    1  UNL1        0.0858
     16 C           1.3485   -0.2607   19.7140 C.ar    1  UNL1        0.0399
     17 C           0.2972    0.7745   19.9848 C.ar    1  UNL1        0.1034
     18 N           0.0913    1.2874   21.3793 N.ar    1  UNL1       -0.2120
     19 C           0.9366    0.7651   22.5030 C.ar    1  UNL1        0.2207
     20 N           1.5046   -0.0244   21.3610 N.ar    1  UNL1       -0.2135
     21 N           0.7307    1.2779   23.8974 N.pl3   1  UNL1       -0.2825
     22 C           0.9117    1.4523   25.3763 C.ar    1  UNL1        0.0502
     23 C           0.2179    2.3378   26.4305 C.ar    1  UNL1        0.0147
     24 C           0.3989    2.5122   27.9093 C.ar    1  UNL1        0.0010
     25 C           1.4415    1.7157   28.6363 C.ar    1  UNL1       -0.0028
     26 C           2.3031    0.7448   27.8846 C.ar    1  UNL1       -0.0049
     27 C           1.4578    1.2672   26.7610 C.ar    1  UNL1        0.0118
     28 C           3.3457   -0.0517   28.6117 C.3     1  UNL1        0.0995
     29 H          -0.0005    1.9176   23.7380 H       1  UNL1        0.1551
@<TRIPOS>BOND
     1     1     2    1
     2     2     3    1
     3     3     4    1
     4     4     5    2
     5     5     6    1
     6     6     7    1
     7     7     8    1
     8     8     9    1
     9     9    10   ar
    10    10    11   ar
    11    11    12   ar
    12    12    13   ar
    13    13    14   ar
    14    13    15    1
    15    15    16   ar
    16    16    17   ar
    17    17    18   ar
    18    18    19   ar
    19    19    20   ar
    20    19    21    1
    21    21    22    1
    22    22    23   ar
    23    23    24   ar
    24    24    25   ar
    25    25    26   ar
    26    26    27   ar
    27    26    28    1
    28    28     2    1
    29    14     9   ar
    30    20    15   ar
    31    27    22   ar
    32    21    29    1
@<TRIPOS>MOLECULE
*****
 29 32 0 0 0
SMALL
GASTEIGER

@<TRIPOS>ATOM
      1 C           1.7418    1.7063   29.1040 C.3     1  UNL1        0.0902
      2 N           2.6586    0.5707   28.7580 N.3     1  UNL1       -0.2639
      3 C           2.5597    0.6027   27.2616 C.3     1  UNL1        0.0988
      4 C           2.7910    0.2364   25.8256 C.2     1  UNL1       -0.0132
      5 C           3.3249   -0.4840   24.6230 C.2     1  UNL1       -0.0255
      6 C           4.0968   -1.4715   23.7991 C.3     1  UNL1        0.0730
      7 C           5.0137   -2.6071   23.4531 C.3     1  UNL1        0.2100
      8 O           5.9650   -3.7539   23.6268 O.3     1  UNL1       -0.4751
      9 C           6.9690   -4.9176   24.5967 C.ar    1  UNL1        0.1386
     10 C           7.7409   -5.9051   23.7728 C.ar    1  UNL1        0.0369
     11 C           8.6118   -6.9245   24.4452 C.ar    1  UNL1        0.0032
     12 C           8.7107   -6.9564   25.9416 C.ar    1  UNL1        0.0017
     13 C           7.9388   -5.9689   26.7655 C.ar    1  UNL1        0.0208
     14 C           7.0679   -4.9495   26.0931 C.ar    1  UNL1        0.0384
     15 C           8.0378   -6.0008   28.2619 C.ar    1  UNL1        0.0858
     16 C           8.8165   -6.8893   29.2526 C.ar    1  UNL1        0.0399
     17 C           8.9154   -6.9212   30.7490 C.ar    1  UNL1        0.1034
     18 N           8.1435   -5.9336   31.5730 N.ar    1  UNL1       -0.2120
     19 C           7.2726   -4.9142   30.9005 C.ar    1  UNL1        0.2207
     20 N           7.8065   -5.6346   29.6980 N.ar    1  UNL1       -0.2135
     21 N           6.5007   -3.9266   31.7245 N.pl3   1  UNL1       -0.2825
     22 C           5.5837   -2.7910   32.0705 C.ar    1  UNL1        0.0502
     23 C           5.1326   -2.1635   33.4044 C.ar    1  UNL1        0.0147
     24 C           4.2157   -1.0278   33.7504 C.ar    1  UNL1        0.0010
     25 C           3.5302   -0.2586   32.6603 C.ar    1  UNL1       -0.0028
     26 C           3.7616   -0.6249   31.2243 C.ar    1  UNL1       -0.0049
     27 C           4.6325   -1.6443   31.8967 C.ar    1  UNL1        0.0118
     28 C           3.0760    0.1444   30.1342 C.3     1  UNL1        0.0995
     29 H           6.7747   -4.2065   32.6277 H       1  UNL1        0.1551
@<TRIPOS>BOND
     1     1     2    1
     2     2     3    1
     3     3     4    1
     4     4     5    2
     5     5     6    1
     6     6     7    1
     7     7     8    1
     8     8     9    1
     9     9    10   ar
    10    10    11   ar
    11    11    12   ar
    12    12    13   ar
    13    13    14   ar
    14    13    15    1
    15    15    16   ar
    16    16    17   ar
    17    17    18   ar
    18    18    19   ar
    19    19    20   ar
    20    19    21    1
    21    21    22    1
    22    22    23   ar
    23    23    24   ar
    24    24    25   ar
    25    25    26   ar
    26    26    27   ar
    27    26    28    1
    28    28     2    1
    29    14     9   ar
    30    20    15   ar
    31    27    22   ar
    32    21    29    1
@<TRIPOS>MOLECULE
*****
 29 32 0 0 0
SMALL
GASTEIGER

@<TRIPOS>ATOM
      1 C           3.9879   -1.0739   33.6728 C.3     1  UNL1        0.0902
      2 N           4.3362   -1.4838   32.2725 N.3     1  UNL1       -0.2639
      3 C           5.3800   -2.5227   32.5572 C.3     1  UNL1        0.0988
      4 C           6.4188   -3.5787   32.3212 C.2     1  UNL1       -0.0132
      5 C           7.3274   -4.5244   31.5930 C.2     1  UNL1       -0.0255
      6 C           7.9962   -5.2456   30.4606 C.3     1  UNL1        0.0730
      7 C           8.3445   -5.6554   29.0603 C.3     1  UNL1        0.2100
      8 O           8.3302   -5.7044   27.5611 O.3     1  UNL1       -0.4751
      9 C           7.7606   -5.2006   25.9105 C.ar    1  UNL1        0.1386
     10 C           8.4293   -5.9218   24.7780 C.ar    1  UNL1        0.0369
     11 C           8.0543   -5.6041   23.3609 C.ar    1  UNL1        0.0032
     12 C           7.0105   -4.5651   23.0762 C.ar    1  UNL1        0.0017
     13 C           6.3418   -3.8439   24.2087 C.ar    1  UNL1        0.0208
     14 C           6.7168   -4.1616   25.6258 C.ar    1  UNL1        0.0384
     15 C           5.2980   -2.8049   23.9240 C.ar    1  UNL1        0.0858
     16 C           4.6881   -2.2458   22.6231 C.ar    1  UNL1        0.0399
     17 C           3.6443   -1.2068   22.3385 C.ar    1  UNL1        0.1034
     18 N           2.9755   -0.4855   23.4710 N.ar    1  UNL1       -0.2120
     19 C           3.3506   -0.8033   24.8882 C.ar    1  UNL1        0.2207
     20 N           4.2592   -1.7490   24.1600 N.ar    1  UNL1       -0.2135
     21 N           2.6818   -0.0821   26.0206 N.pl3   1  UNL1       -0.2825
     22 C           2.3335    0.3278   27.4210 C.ar    1  UNL1        0.0502
     23 C           1.3417    1.3513   28.0086 C.ar    1  UNL1        0.0147
     24 C           0.9934    1.7612   29.4090 C.ar    1  UNL1        0.0010
     25 C           1.6840    1.1150   30.5732 C.ar    1  UNL1       -0.0028
     26 C           2.7228    0.0590   30.3373 C.ar    1  UNL1       -0.0049
     27 C           2.3478    0.3768   28.9201 C.ar    1  UNL1        0.0118
     28 C           3.4134   -0.5871   31.5016 C.3     1  UNL1        0.0995
     29 H           2.0761    0.5064   25.5146 H       1  UNL1        0.1551
@<TRIPOS>BOND
     1     1     2    1
     2     2     3    1
     3     3     4    1
     4     4     5    2
     5     5     6    1
     6     6     7    1
     7     7     8    1
     8     8     9    1
     9     9    10   ar
    10    10    11   ar
    11    11    12   ar
    12    12    13   ar
    13    13    14   ar
    14    13    15    1
    15    15    16   ar
    16    16    17   ar
    17    17    18   ar
    18    18    19   ar
    19    19    20   ar
    20    19    21    1
    21    21    22    1
    22    22    23   ar
    23    23    24   ar
    24    24    25   ar
    25    25    26   ar
    26    26    27   ar
    27    26    28    1
    28    28     2    1
    29    14     9   ar
    30    20    15   ar
    31    27    22   ar
    32    21    29    1
@<TRIPOS>MOLECULE
*****
 29 32 0 0 0
SMALL
GASTEIGER

@<TRIPOS>ATOM
      1 C           0.7680    2.2520   27.4407 C.3     1  UNL1        0.0902
      2 N           1.7663    1.1383   27.5546 N.3     1  UNL1       -0.2639
      3 C           1.8991    1.0591   29.0466 C.3     1  UNL1        0.0988
      4 C           2.3626    0.6027   30.3982 C.2     1  UNL1       -0.0132
      5 C           3.1010   -0.1759   31.4464 C.2     1  UNL1       -0.0255
      6 C           4.0250   -1.1828   32.0647 C.3     1  UNL1        0.0730
      7 C           5.0234   -2.2965   32.1786 C.3     1  UNL1        0.2100
      8 O           5.9757   -3.3827   31.7743 O.3     1  UNL1       -0.4751
      9 C           6.8572   -4.4268   30.5761 C.ar    1  UNL1        0.1386
     10 C           7.7812   -5.4336   31.1944 C.ar    1  UNL1        0.0369
     11 C           8.5724   -6.3613   30.3207 C.ar    1  UNL1        0.0032
     12 C           8.4396   -6.2821   28.8287 C.ar    1  UNL1        0.0017
     13 C           7.5156   -5.2752   28.2104 C.ar    1  UNL1        0.0208
     14 C           6.7244   -4.3476   29.0841 C.ar    1  UNL1        0.0384
     15 C           7.3827   -5.1961   26.7184 C.ar    1  UNL1        0.0858
     16 C           8.0290   -5.9748   25.5553 C.ar    1  UNL1        0.0399
     17 C           7.8962   -5.8956   24.0633 C.ar    1  UNL1        0.1034
     18 N           6.9721   -4.8887   23.4450 N.ar    1  UNL1       -0.2120
     19 C           6.1809   -3.9610   24.3187 C.ar    1  UNL1        0.2207
     20 N           6.9192   -4.7397   25.3668 N.ar    1  UNL1       -0.2135
     21 N           5.2568   -2.9542   23.7003 N.pl3   1  UNL1       -0.2825
     22 C           4.2584   -1.8404   23.5864 C.ar    1  UNL1        0.0502
     23 C           3.5847   -1.1412   22.3890 C.ar    1  UNL1        0.0147
     24 C           2.5863   -0.0274   22.2751 C.ar    1  UNL1        0.0010
     25 C           2.0515    0.6298   23.5129 C.ar    1  UNL1       -0.0028
     26 C           2.5150    0.1734   24.8645 C.ar    1  UNL1       -0.0049
     27 C           3.3062   -0.7542   23.9908 C.ar    1  UNL1        0.0118
     28 C           1.9802    0.8307   26.1022 C.3     1  UNL1        0.0995
     29 H           5.3972   -3.1561   22.7470 H       1  UNL1        0.1551
@<TRIPOS>BOND
     1     1     2    1
     2     2     3    1
     3     3     4    1
     4     4     5    2
     5     5     6    1
     6     6     7    1
     7     7     8    1
     8     8     9    1
     9     9    10   ar
    10    10    11   ar
    11    11    12   ar
    12    12    13   ar
    13    13    14   ar
    14    13    15    1
    15    15    16   ar
    16    16    17   ar
    17    17    18   ar
    18    18    19   ar
    19    19    20   ar
    20    19    21    1
    21    21    22    1
    22    22    23   ar
    23    23    24   ar
    24    24    25   ar
    25    25    26   ar
    26    26    27   ar
    27    26    28    1
    28    28     2    1
    29    14     9   ar
    30    20    15   ar
    31    27    22   ar
    32    21    29    1
@<TRIPOS>MOLECULE
*****
 29 32 0 0 0
SMALL
GASTEIGER

@<TRIPOS>ATOM
      1 C           4.4166   -1.6807   17.8554 C.3     1  UNL1        0.0902
      2 N           3.8154   -1.1741   19.1329 N.3     1  UNL1       -0.2639
      3 C           2.7931   -0.2251   18.5813 C.3     1  UNL1        0.0988
      4 C           1.6853    0.7854   18.5399 C.2     1  UNL1       -0.0132
      5 C           0.6256    1.7355   19.0137 C.2     1  UNL1       -0.0255
      6 C          -0.2581    2.5106   19.9455 C.3     1  UNL1        0.0730
      7 C          -0.8592    3.0172   21.2229 C.3     1  UNL1        0.2100
      8 O          -1.1053    3.1943   22.6921 O.3     1  UNL1       -0.4751
      9 C          -0.8074    2.8664   24.4546 C.ar    1  UNL1        0.1386
     10 C          -1.6911    3.6415   25.3864 C.ar    1  UNL1        0.0369
     11 C          -1.5524    3.4676   26.8698 C.ar    1  UNL1        0.0032
     12 C          -0.5301    2.5186   27.4214 C.ar    1  UNL1        0.0017
     13 C           0.3536    1.7435   26.4896 C.ar    1  UNL1        0.0208
     14 C           0.2149    1.9174   25.0062 C.ar    1  UNL1        0.0384
     15 C           1.3760    0.7945   27.0412 C.ar    1  UNL1        0.0858
     16 C           1.7760    0.3842   28.4725 C.ar    1  UNL1        0.0399
     17 C           2.7984   -0.5648   29.0241 C.ar    1  UNL1        0.1034
     18 N           3.6821   -1.3399   28.0922 N.ar    1  UNL1       -0.2120
     19 C           3.5434   -1.1660   26.6088 C.ar    1  UNL1        0.2207
     20 N           2.4837   -0.2159   27.0826 N.ar    1  UNL1       -0.2135
     21 N           4.4271   -1.9411   25.6770 N.pl3   1  UNL1       -0.2825
     22 C           5.0283   -2.4478   24.3994 C.ar    1  UNL1        0.0502
     23 C           6.1490   -3.4586   24.0848 C.ar    1  UNL1        0.0147
     24 C           6.7501   -3.9652   22.8072 C.ar    1  UNL1        0.0010
     25 C           6.2434   -3.4614   21.4884 C.ar    1  UNL1       -0.0028
     26 C           5.1356   -2.4509   21.4470 C.ar    1  UNL1       -0.0049
     27 C           5.2743   -2.6248   22.9304 C.ar    1  UNL1        0.0118
     28 C           4.6290   -1.9471   20.1281 C.3     1  UNL1        0.0995
     29 H           4.9611   -2.4485   26.3302 H       1  UNL1        0.1551
@<TRIPOS>BOND
     1     1     2    1
     2     2     3    1
     3     3     4    1
     4     4     5    2
     5     5     6    1
     6     6     7    1
     7     7     8    1
     8     8     9    1
     9     9    10   ar
    10    10    11   ar
    11    11    12   ar
    12    12    13   ar
    13    13    14   ar
    14    13    15    1
    15    15    16   ar
    16    16    17   ar
    17    17    18   ar
    18    18    19   ar
    19    19    20   ar
    20    19    21    1
    21    21    22    1
    22    22    23   ar
    23    23    24   ar
    24    24    25   ar
    25    25    26   ar
    26    26    27   ar
    27    26    28    1
    28    28     2    1
    29    14     9   ar
    30    20    15   ar
    31    27    22   ar
    32    21    29    1
@<TRIPOS>MOLECULE
*****
 29 32 0 0 0
SMALL
GASTEIGER

@<TRIPOS>ATOM
      1 C           5.7864   -1.8055   30.1250 C.3     1  UNL1        0.0902
      2 N           5.2797   -1.6628   28.7204 N.3     1  UNL1       -0.2639
      3 C           4.2553   -0.5856   28.9212 C.3     1  UNL1        0.0988
      4 C           3.1785    0.4112   28.6100 C.2     1  UNL1       -0.0132
      5 C           2.1791    1.2074   27.8243 C.2     1  UNL1       -0.0255
      6 C           1.3778    1.7069   26.6589 C.3     1  UNL1        0.0730
      7 C           0.8710    1.8496   25.2543 C.3     1  UNL1        0.2100
      8 O           0.7201    1.6182   23.7799 O.3     1  UNL1       -0.4751
      9 C           1.1142    0.8136   22.1987 C.ar    1  UNL1        0.1386
     10 C           0.3129    1.3132   21.0333 C.ar    1  UNL1        0.0369
     11 C           0.5359    0.7356   19.6671 C.ar    1  UNL1        0.0032
     12 C           1.5603   -0.3416   19.4663 C.ar    1  UNL1        0.0017
     13 C           2.3617   -0.8412   20.6317 C.ar    1  UNL1        0.0208
     14 C           2.1386   -0.2636   21.9979 C.ar    1  UNL1        0.0384
     15 C           3.3860   -1.9183   20.4309 C.ar    1  UNL1        0.0858
     16 C           3.8595   -2.7122   19.1969 C.ar    1  UNL1        0.0399
     17 C           4.8839   -3.7894   18.9961 C.ar    1  UNL1        0.1034
     18 N           5.6853   -4.2889   20.1616 N.ar    1  UNL1       -0.2120
     19 C           5.4622   -3.7113   21.5278 C.ar    1  UNL1        0.2207
     20 N           4.4628   -2.9151   20.7421 N.ar    1  UNL1       -0.2135
     21 N           6.2636   -4.2109   22.6932 N.pl3   1  UNL1       -0.2825
     22 C           6.7703   -4.3536   24.0979 C.ar    1  UNL1        0.0502
     23 C           7.8384   -5.2527   24.7516 C.ar    1  UNL1        0.0147
     24 C           8.3451   -5.3954   26.1563 C.ar    1  UNL1        0.0010
     25 C           7.7750   -4.5413   27.2496 C.ar    1  UNL1       -0.0028
     26 C           6.6982   -3.5445   26.9384 C.ar    1  UNL1       -0.0049
     27 C           6.9213   -4.1221   25.5722 C.ar    1  UNL1        0.0118
     28 C           6.1281   -2.6904   28.0318 C.3     1  UNL1        0.0995
     29 H           6.8204   -4.8853   22.2412 H       1  UNL1        0.1551
@<TRIPOS>BOND
     1     1     2    1
     2     2     3    1
     3     3     4    1
     4     4     5    2
     5     5     6    1
     6     6     7    1
     7     7     8    1
     8     8     9    1
     9     9    10   ar
    10    10    11   ar
    11    11    12   ar
    12    12    13   ar
    13    13    14   ar
    14    13    15    1
    15    15    16   ar
    16    16    17   ar
    17    17    18   ar
    18    18    19   ar
    19    19    20   ar
    20    19    21    1
    21    21    22    1
    22    22    23   ar
    23    23    24   ar
    24    24    25   ar
    25    25    26   ar
    26    26    27   ar
    27    26    28    1
    28    28     2    1
    29    14     9   ar
    30    20    15   ar
    31    27    22   ar
    32    21    29    1
@<TRIPOS>MOLECULE
*****
 29 32 0 0 0
SMALL
GASTEIGER

@<TRIPOS>ATOM
      1 C           3.1630    0.5312   32.8551 C.3     1  UNL1        0.0902
      2 N           3.3799    0.1021   31.4342 N.3     1  UNL1       -0.2639
      3 C           2.3742    0.9738   30.7424 C.3     1  UNL1        0.0988
      4 C           1.5651    1.5913   29.6407 C.2     1  UNL1       -0.0132
      5 C           1.0502    1.8802   28.2617 C.2     1  UNL1       -0.0255
      6 C           0.8917    1.8056   26.7720 C.3     1  UNL1        0.0730
      7 C           1.1085    1.3765   25.3512 C.3     1  UNL1        0.2100
      8 O           1.6748    0.6445   24.1705 O.3     1  UNL1       -0.4751
      9 C           2.7761   -0.5512   23.3580 C.ar    1  UNL1        0.1386
     10 C           2.6176   -0.6258   21.8683 C.ar    1  UNL1        0.0369
     11 C           3.4647   -1.5721   21.0705 C.ar    1  UNL1        0.0032
     12 C           4.4705   -2.4438   21.7623 C.ar    1  UNL1        0.0017
     13 C           4.6290   -2.3692   23.2520 C.ar    1  UNL1        0.0208
     14 C           3.7819   -1.4229   24.0498 C.ar    1  UNL1        0.0384
     15 C           5.6348   -3.2409   23.9438 C.ar    1  UNL1        0.0858
     16 C           6.6417   -4.2966   23.4450 C.ar    1  UNL1        0.0399
     17 C           7.6474   -5.1683   24.1368 C.ar    1  UNL1        0.1034
     18 N           7.8059   -5.0937   25.6266 N.ar    1  UNL1       -0.2120
     19 C           6.9588   -4.1473   26.4245 C.ar    1  UNL1        0.2207
     20 N           6.4439   -3.8584   25.0455 N.ar    1  UNL1       -0.2135
     21 N           7.1173   -4.0727   27.9142 N.pl3   1  UNL1       -0.2825
     22 C           6.9004   -3.6435   29.3351 C.ar    1  UNL1        0.0502
     23 C           7.5390   -4.0587   30.6755 C.ar    1  UNL1        0.0147
     24 C           7.3221   -3.6295   32.0964 C.ar    1  UNL1        0.0010
     25 C           6.2961   -2.5828   32.4153 C.ar    1  UNL1       -0.0028
     26 C           5.4870   -1.9653   31.3136 C.ar    1  UNL1       -0.0049
     27 C           6.3342   -2.9117   30.5157 C.ar    1  UNL1        0.0118
     28 C           4.4610   -0.9186   31.6326 C.3     1  UNL1        0.0995
     29 H           7.8269   -4.7427   28.0444 H       1  UNL1        0.1551
@<TRIPOS>BOND
     1     1     2    1
     2     2     3    1
     3     3     4    1
     4     4     5    2
     5     5     6    1
     6     6     7    1
     7     7     8    1
     8     8     9    1
     9     9    10   ar
    10    10    11   ar
    11    11    12   ar
    12    12    13   ar
    13    13    14   ar
    14    13    15    1
    15    15    16   ar
    16    16    17   ar
    17    17    18   ar
    18    18    19   ar
    19    19    20   ar
    20    19    21    1
    21    21    22    1
    22    22    23   ar
    23    23    24   ar
    24    24    25   ar
    25    25    26   ar
    26    26    27   ar
    27    26    28    1
    28    28     2    1
    29    14     9   ar
    30    20    15   ar
    31    27    22   ar
    32    21    29    1
@<TRIPOS>MOLECULE
*****
 29 32 0 0 0
SMALL
GASTEIGER

@<TRIPOS>ATOM
      1 C           7.6827   -5.3825   23.7319 C.3     1  UNL1        0.0902
      2 N           7.0903   -4.6238   24.8824 N.3     1  UNL1       -0.2639
      3 C           7.8503   -5.2397   26.0195 C.3     1  UNL1        0.0988
      4 C           8.3129   -5.5178   27.4190 C.2     1  UNL1       -0.0132
      5 C           8.4223   -5.4246   28.9121 C.2     1  UNL1       -0.0255
      6 C           8.1652   -4.9714   30.3187 C.3     1  UNL1        0.0730
      7 C           7.5728   -4.2128   31.4691 C.3     1  UNL1        0.2100
      8 O           6.7164   -3.2402   32.2247 O.3     1  UNL1       -0.4751
      9 C           5.4556   -1.9399   32.3751 C.ar    1  UNL1        0.1386
     10 C           5.1986   -1.4867   33.7817 C.ar    1  UNL1        0.0369
     11 C           4.1816   -0.4176   34.0511 C.ar    1  UNL1        0.0032
     12 C           3.4216    0.1983   32.9140 C.ar    1  UNL1        0.0017
     13 C           3.6786   -0.2550   31.5074 C.ar    1  UNL1        0.0208
     14 C           4.6956   -1.3241   31.2380 C.ar    1  UNL1        0.0384
     15 C           2.9186    0.3609   30.3702 C.ar    1  UNL1        0.0858
     16 C           1.8325    1.4524   30.2908 C.ar    1  UNL1        0.0399
     17 C           1.0725    2.0682   29.1537 C.ar    1  UNL1        0.1034
     18 N           1.3296    1.6149   27.7471 N.ar    1  UNL1       -0.2120
     19 C           2.3466    0.5458   27.4776 C.ar    1  UNL1        0.2207
     20 N           2.4560    0.6390   28.9708 N.ar    1  UNL1       -0.2135
     21 N           2.6036    0.0926   26.0711 N.pl3   1  UNL1       -0.2825
     22 C           3.1961   -0.6661   24.9206 C.ar    1  UNL1        0.0502
     23 C           2.9595   -0.6342   23.3975 C.ar    1  UNL1        0.0147
     24 C           3.5519   -1.3929   22.2470 C.ar    1  UNL1        0.0010
     25 C           4.6069   -2.4296   22.4962 C.ar    1  UNL1       -0.0028
     26 C           5.0695   -2.7077   23.8957 C.ar    1  UNL1       -0.0049
     27 C           4.0525   -1.6386   24.1651 C.ar    1  UNL1        0.0118
     28 C           6.1245   -3.7445   24.1448 C.3     1  UNL1        0.0995
     29 H           1.9698    0.6698   25.5870 H       1  UNL1        0.1551
@<TRIPOS>BOND
     1     1     2    1
     2     2     3    1
     3     3     4    1
     4     4     5    2
     5     5     6    1
     6     6     7    1
     7     7     8    1
     8     8     9    1
     9     9    10   ar
    10    10    11   ar
    11    11    12   ar
    12    12    13   ar
    13    13    14   ar
    14    13    15    1
    15    15    16   ar
    16    16    17   ar
    17    17    18   ar
    18    18    19   ar
    19    19    20   ar
    20    19    21    1
    21    21    22    1
    22    22    23   ar
    23    23    24   ar
    24    24    25   ar
    25    25    26   ar
    26    26    27   ar
    27    26    28    1
    28    28     2    1
    29    14     9   ar
    30    20    15   ar
    31    27    22   ar
    32    21    29    1
@<TRIPOS>MOLECULE
*****
 29 32 0 0 0
SMALL
GASTEIGER

@<TRIPOS>ATOM
      1 C           7.8208   -5.1730   31.3349 C.3     1  UNL1        0.0902
      2 N           7.0130   -4.3449   30.3801 N.3     1  UNL1       -0.2639
      3 C           7.4434   -4.9539   29.0786 C.3     1  UNL1        0.0988
      4 C           7.5413   -5.2018   27.6025 C.2     1  UNL1       -0.0132
      5 C           7.2949   -5.0588   26.1297 C.2     1  UNL1       -0.0255
      6 C           6.7340   -4.5421   24.8381 C.3     1  UNL1        0.0730
      7 C           5.9262   -3.7140   23.8833 C.3     1  UNL1        0.2100
      8 O           4.9688   -2.6743   23.3805 O.3     1  UNL1       -0.4751
      9 C           3.7825   -1.3107   23.5702 C.ar    1  UNL1        0.1386
     10 C           3.2216   -0.7940   22.2786 C.ar    1  UNL1        0.0369
     11 C           2.2303    0.3317   22.2885 C.ar    1  UNL1        0.0032
     12 C           1.7999    0.9406   23.5900 C.ar    1  UNL1        0.0017
     13 C           2.3608    0.4239   24.8816 C.ar    1  UNL1        0.0208
     14 C           3.3521   -0.7017   24.8717 C.ar    1  UNL1        0.0384
     15 C           1.9304    1.0329   26.1831 C.ar    1  UNL1        0.0858
     16 C           0.9570    2.1713   26.5487 C.ar    1  UNL1        0.0399
     17 C           0.5266    2.7802   27.8502 C.ar    1  UNL1        0.1034
     18 N           1.0876    2.2635   29.1418 N.ar    1  UNL1       -0.2120
     19 C           2.0789    1.1378   29.1320 C.ar    1  UNL1        0.2207
     20 N           1.8325    1.2808   27.6592 N.ar    1  UNL1       -0.2135
     21 N           2.6398    0.6211   30.4236 N.pl3   1  UNL1       -0.2825
     22 C           3.4477   -0.2071   31.3784 C.ar    1  UNL1        0.0502
     23 C           3.5848   -0.2203   32.9139 C.ar    1  UNL1        0.0147
     24 C           4.3927   -1.0484   33.8688 C.ar    1  UNL1        0.0010
     25 C           5.2984   -2.1244   33.3474 C.ar    1  UNL1       -0.0028
     26 C           5.3963   -2.3723   31.8713 C.ar    1  UNL1       -0.0049
     27 C           4.4050   -1.2467   31.8812 C.ar    1  UNL1        0.0118
     28 C           6.3021   -3.4484   31.3500 C.3     1  UNL1        0.0995
     29 H           2.1732    1.2095   31.0602 H       1  UNL1        0.1551
@<TRIPOS>BOND
     1     1     2    1
     2     2     3    1
     3     3     4    1
     4     4     5    2
     5     5     6    1
     6     6     7    1
     7     7     8    1
     8     8     9    1
     9     9    10   ar
    10    10    11   ar
    11    11    12   ar
    12    12    13   ar
    13    13    14   ar
    14    13    15    1
    15    15    16   ar
    16    16    17   ar
    17    17    18   ar
    18    18    19   ar
    19    19    20   ar
    20    19    21    1
    21    21    22    1
    22    22    23   ar
    23    23    24   ar
    24    24    25   ar
    25    25    26   ar
    26    26    27   ar
    27    26    28    1
    28    28     2    1
    29    14     9   ar
    30    20    15   ar
    31    27    22   ar
    32    21    29    1
