@<TRIPOS>MOLECULE
*****
 32 36 0 0 0
SMALL
GASTEIGER

@<TRIPOS>ATOM
      1 N          -7.9988  -19.6599   19.9329 N.am    1  UNL1       -0.2527
      2 C          -9.1795  -20.0869   19.1121 C.2     1  UNL1        0.2545
      3 O          -8.9697  -20.8328   17.8277 O.2     1  UNL1       -0.2723
      4 C          -8.6283  -17.4223   23.7861 C.ar    1  UNL1        0.0504
      5 C          -8.8465  -18.9055   23.7359 C.ar    1  UNL1        0.0159
      6 C          -8.6367  -19.6514   22.4515 C.ar    1  UNL1        0.0162
      7 C          -8.2087  -18.9141   21.2173 C.ar    1  UNL1        0.0543
      8 C          -7.9904  -17.4309   21.2675 C.ar    1  UNL1        0.0162
      9 C          -8.2003  -16.6850   22.5519 C.ar    1  UNL1        0.0159
     10 O          -6.3522  -15.9221   25.0385 O.2     1  UNL1       -0.2748
     11 C          -7.7001  -15.9263   25.6967 C.2     1  UNL1        0.2256
     12 N          -8.8381  -16.6764   25.0704 N.am    1  UNL1       -0.2839
     13 H          -9.7228  -16.6793   25.5024 H       1  UNL1        0.1549
     14 C          -7.9099  -15.1804   26.9810 C.3     1  UNL1        0.0768
     15 C          -8.8306  -14.6510   28.0403 C.3     1  UNL1        0.0096
     16 C          -7.3526  -14.4180   28.1464 C.3     1  UNL1        0.0096
     17 C          -6.6084  -19.9788   19.4693 C.3     1  UNL1        0.1253
     18 C          -5.4309  -19.6155   20.3245 C.ar    1  UNL1        0.0050
     19 C          -5.2779  -19.9132   21.7867 C.ar    1  UNL1        0.0049
     20 C          -3.9521  -19.3723   22.2336 C.ar    1  UNL1        0.0352
     21 S          -3.2857  -18.7403   21.0476 S.2     1  UNL1       -0.0862
     22 C          -4.1997  -18.8906   19.8678 C.ar    1  UNL1        0.0328
     23 C         -10.5700  -19.7680   19.5757 C.3     1  UNL1        0.2141
     24 N         -10.9209  -18.3690   19.9876 N.ar    1  UNL1       -0.2223
     25 N         -10.6178  -17.1200   19.2143 N.ar    1  UNL1       -0.0634
     26 N         -11.1461  -15.9525   19.9939 N.ar    1  UNL1       -0.1288
     27 C         -11.7758  -16.4800   21.2491 C.ar    1  UNL1        0.1217
     28 C         -12.4578  -15.7933   22.3950 C.ar    1  UNL1        0.0225
     29 C         -13.0007  -16.6001   23.5370 C.ar    1  UNL1        0.0017
     30 C         -12.8615  -18.0936   23.5331 C.ar    1  UNL1        0.0016
     31 C         -12.1795  -18.7803   22.3872 C.ar    1  UNL1        0.0204
     32 C         -11.6366  -17.9735   21.2452 C.ar    1  UNL1        0.0994
@<TRIPOS>BOND
     1    10    11    2
     2    11    12   am
     3    12     4    1
     4     4     5   ar
     5     5     6   ar
     6     6     7   ar
     7     7     1    1
     8     1    17    1
     9    17    18    1
    10    18    19   ar
    11    19    20   ar
    12    20    21   ar
    13    21    22   ar
    14     1     2   am
    15     2     3    2
    16     2    23    1
    17    23    24    1
    18    24    25   ar
    19    25    26   ar
    20    26    27   ar
    21    27    28   ar
    22    28    29   ar
    23    29    30   ar
    24    30    31   ar
    25    31    32   ar
    26     7     8   ar
    27     8     9   ar
    28    11    14    1
    29    14    15    1
    30    15    16    1
    31     9     4   ar
    32    16    14    1
    33    22    18   ar
    34    32    24   ar
    35    32    27   ar
    36    12    13    1
@<TRIPOS>MOLECULE
*****
 32 36 0 0 0
SMALL
GASTEIGER

@<TRIPOS>ATOM
      1 N           4.1183   -0.8767   18.5251 N.am    1  UNL1       -0.2527
      2 C           4.5904   -2.2935   18.6657 C.2     1  UNL1        0.2545
      3 O           5.4958   -2.8889   17.6286 O.2     1  UNL1       -0.2723
      4 C           1.4020    0.9093   21.6366 C.ar    1  UNL1        0.0504
      5 C           2.8567    1.2743   21.6124 C.ar    1  UNL1        0.0159
      6 C           3.7622    0.6789   20.5752 C.ar    1  UNL1        0.0162
      7 C           3.2129   -0.2814   19.5622 C.ar    1  UNL1        0.0543
      8 C           1.7582   -0.6463   19.5864 C.ar    1  UNL1        0.0162
      9 C           0.8527   -0.0509   20.6236 C.ar    1  UNL1        0.0159
     10 O           1.8178    0.2675   24.5374 O.2     1  UNL1       -0.2748
     11 C           0.7045    1.1838   24.1242 C.2     1  UNL1        0.2256
     12 N           0.4966    1.5047   22.6737 N.am    1  UNL1       -0.2839
     13 H          -0.2342    2.1061   22.4025 H       1  UNL1        0.1549
     14 C          -0.2010    1.7791   25.1613 C.3     1  UNL1        0.0768
     15 C          -0.6582    1.8734   26.5868 C.3     1  UNL1        0.0096
     16 C          -1.3121    2.7161   25.5322 C.3     1  UNL1        0.0096
     17 C           4.5517   -0.0553   17.3472 C.3     1  UNL1        0.1253
     18 C           5.9251    0.5471   17.3177 C.ar    1  UNL1        0.0050
     19 C           6.5782    1.1954   16.1331 C.ar    1  UNL1        0.0049
     20 C           7.9433    1.6559   16.5508 C.ar    1  UNL1        0.0352
     21 S           8.1339    1.2924   17.9936 S.2     1  UNL1       -0.0862
     22 C           6.8865    0.6071   18.4674 C.ar    1  UNL1        0.0328
     23 C           4.1569   -3.1150   19.8437 C.3     1  UNL1        0.2141
     24 N           5.1570   -3.5154   20.8875 N.ar    1  UNL1       -0.2223
     25 N           6.3161   -4.4460   20.6871 N.ar    1  UNL1       -0.0634
     26 N           7.0489   -4.5611   21.9908 N.ar    1  UNL1       -0.1288
     27 C           6.3427   -3.7016   22.9970 C.ar    1  UNL1        0.1217
     28 C           6.6133   -3.4239   24.4460 C.ar    1  UNL1        0.0225
     29 C           5.7146   -2.5000   25.2131 C.ar    1  UNL1        0.0017
     30 C           4.5452   -1.8536   24.5313 C.ar    1  UNL1        0.0016
     31 C           4.2746   -2.1313   23.0823 C.ar    1  UNL1        0.0204
     32 C           5.1734   -3.0553   22.3152 C.ar    1  UNL1        0.0994
@<TRIPOS>BOND
     1    10    11    2
     2    11    12   am
     3    12     4    1
     4     4     5   ar
     5     5     6   ar
     6     6     7   ar
     7     7     1    1
     8     1    17    1
     9    17    18    1
    10    18    19   ar
    11    19    20   ar
    12    20    21   ar
    13    21    22   ar
    14     1     2   am
    15     2     3    2
    16     2    23    1
    17    23    24    1
    18    24    25   ar
    19    25    26   ar
    20    26    27   ar
    21    27    28   ar
    22    28    29   ar
    23    29    30   ar
    24    30    31   ar
    25    31    32   ar
    26     7     8   ar
    27     8     9   ar
    28    11    14    1
    29    14    15    1
    30    15    16    1
    31     9     4   ar
    32    16    14    1
    33    22    18   ar
    34    32    24   ar
    35    32    27   ar
    36    12    13    1
@<TRIPOS>MOLECULE
*****
 32 36 0 0 0
SMALL
GASTEIGER

@<TRIPOS>ATOM
      1 N           4.5179   -0.4993   17.8691 N.am    1  UNL1       -0.2527
      2 C           4.6753   -1.9446   18.2383 C.2     1  UNL1        0.2545
      3 O           5.6967   -2.7907   17.5376 O.2     1  UNL1       -0.2723
      4 C           1.4538    2.0391   19.9709 C.ar    1  UNL1        0.0504
      5 C           2.9027    2.1510   20.3424 C.ar    1  UNL1        0.0159
      6 C           3.9241    1.3049   19.6418 C.ar    1  UNL1        0.0162
      7 C           3.4966    0.3469   18.5697 C.ar    1  UNL1        0.0543
      8 C           2.0476    0.2349   18.1982 C.ar    1  UNL1        0.0162
      9 C           1.0262    1.0810   18.8988 C.ar    1  UNL1        0.0159
     10 O           0.4088    1.2115   22.6584 O.2     1  UNL1       -0.2748
     11 C          -0.0901    2.4714   22.0152 C.2     1  UNL1        0.2256
     12 N           0.4324    2.8852   20.6715 N.am    1  UNL1       -0.2839
     13 H           0.1050    3.7121   20.2493 H       1  UNL1        0.1549
     14 C          -1.1115    3.3176   22.7158 C.3     1  UNL1        0.0768
     15 C          -2.4760    3.9392   22.7571 C.3     1  UNL1        0.0096
     16 C          -1.5161    4.1614   23.8881 C.3     1  UNL1        0.0096
     17 C           5.3820    0.0999   16.7993 C.3     1  UNL1        0.1253
     18 C           6.7155    0.6879   17.1542 C.ar    1  UNL1        0.0050
     19 C           7.5295    1.6094   16.2949 C.ar    1  UNL1        0.0049
     20 C           8.7862    1.9487   17.0403 C.ar    1  UNL1        0.0352
     21 S           8.7489    1.2370   18.3602 S.2     1  UNL1       -0.0862
     22 C           7.4691    0.4578   18.4305 C.ar    1  UNL1        0.0328
     23 C           3.8113   -2.5438   19.3081 C.3     1  UNL1        0.2141
     24 N           4.4111   -2.9309   20.6273 N.ar    1  UNL1       -0.2223
     25 N           5.3798   -4.0523   20.8603 N.ar    1  UNL1       -0.0634
     26 N           5.7149   -4.0790   22.3222 N.ar    1  UNL1       -0.1288
     27 C           4.9534   -2.9742   22.9926 C.ar    1  UNL1        0.1217
     28 C           4.8896   -2.5226   24.4216 C.ar    1  UNL1        0.0225
     29 C           4.0200   -1.3614   24.8030 C.ar    1  UNL1        0.0017
     30 C           3.2142   -0.6519   23.7555 C.ar    1  UNL1        0.0016
     31 C           3.2780   -1.1035   22.3266 C.ar    1  UNL1        0.0204
     32 C           4.1476   -2.2646   21.9451 C.ar    1  UNL1        0.0994
@<TRIPOS>BOND
     1    10    11    2
     2    11    12   am
     3    12     4    1
     4     4     5   ar
     5     5     6   ar
     6     6     7   ar
     7     7     1    1
     8     1    17    1
     9    17    18    1
    10    18    19   ar
    11    19    20   ar
    12    20    21   ar
    13    21    22   ar
    14     1     2   am
    15     2     3    2
    16     2    23    1
    17    23    24    1
    18    24    25   ar
    19    25    26   ar
    20    26    27   ar
    21    27    28   ar
    22    28    29   ar
    23    29    30   ar
    24    30    31   ar
    25    31    32   ar
    26     7     8   ar
    27     8     9   ar
    28    11    14    1
    29    14    15    1
    30    15    16    1
    31     9     4   ar
    32    16    14    1
    33    22    18   ar
    34    32    24   ar
    35    32    27   ar
    36    12    13    1
@<TRIPOS>MOLECULE
*****
 32 36 0 0 0
SMALL
GASTEIGER

@<TRIPOS>ATOM
      1 N           2.9658   -0.5947   18.8383 N.am    1  UNL1       -0.2527
      2 C           1.5962   -0.0426   19.1015 C.2     1  UNL1        0.2545
      3 O           0.9150    0.7999   18.0641 O.2     1  UNL1       -0.2723
      4 C           5.0092   -3.1223   21.9505 C.ar    1  UNL1        0.0504
      5 C           4.2616   -3.7758   20.8262 C.ar    1  UNL1        0.0159
      6 C           3.5805   -2.9333   19.7888 C.ar    1  UNL1        0.0162
      7 C           3.6469   -1.4373   19.8757 C.ar    1  UNL1        0.0543
      8 C           4.3945   -0.7838   21.0000 C.ar    1  UNL1        0.0162
      9 C           5.0756   -1.6263   22.0375 C.ar    1  UNL1        0.0159
     10 O           7.8969   -3.8649   21.6204 O.2     1  UNL1       -0.2748
     11 C           7.1341   -4.3361   22.8229 C.2     1  UNL1        0.2256
     12 N           5.6903   -3.9648   22.9880 N.am    1  UNL1       -0.2839
     13 H           5.1896   -4.2741   23.7772 H       1  UNL1        0.1549
     14 C           7.8153   -5.1786   23.8603 C.3     1  UNL1        0.0768
     15 C           7.9747   -6.4919   24.5674 C.3     1  UNL1        0.0096
     16 C           8.8356   -5.3247   24.9501 C.3     1  UNL1        0.0096
     17 C           3.6543   -0.3043   17.5377 C.3     1  UNL1        0.1253
     18 C           4.9425    0.4641   17.5263 C.ar    1  UNL1        0.0050
     19 C           6.2892   -0.0783   17.1490 C.ar    1  UNL1        0.0049
     20 C           7.2892    1.0321   17.2797 C.ar    1  UNL1        0.0352
     21 S           6.5607    2.2606   17.7379 S.2     1  UNL1       -0.0862
     22 C           5.1103    1.9095   17.8903 C.ar    1  UNL1        0.0328
     23 C           0.9076   -0.3331   20.4022 C.3     1  UNL1        0.2141
     24 N           0.4831    0.7955   21.2945 N.ar    1  UNL1       -0.2223
     25 N          -0.5464    1.8369   20.9697 N.ar    1  UNL1       -0.0634
     26 N          -0.6521    2.7658   22.1427 N.ar    1  UNL1       -0.1288
     27 C           0.3122    2.2985   23.1924 C.ar    1  UNL1        0.1217
     28 C           0.6419    2.8245   24.5579 C.ar    1  UNL1        0.0225
     29 C           1.6734    2.1328   25.3991 C.ar    1  UNL1        0.0017
     30 C           2.3750    0.9150   24.8748 C.ar    1  UNL1        0.0016
     31 C           2.0452    0.3890   23.5093 C.ar    1  UNL1        0.0204
     32 C           1.0138    1.0807   22.6682 C.ar    1  UNL1        0.0994
@<TRIPOS>BOND
     1    10    11    2
     2    11    12   am
     3    12     4    1
     4     4     5   ar
     5     5     6   ar
     6     6     7   ar
     7     7     1    1
     8     1    17    1
     9    17    18    1
    10    18    19   ar
    11    19    20   ar
    12    20    21   ar
    13    21    22   ar
    14     1     2   am
    15     2     3    2
    16     2    23    1
    17    23    24    1
    18    24    25   ar
    19    25    26   ar
    20    26    27   ar
    21    27    28   ar
    22    28    29   ar
    23    29    30   ar
    24    30    31   ar
    25    31    32   ar
    26     7     8   ar
    27     8     9   ar
    28    11    14    1
    29    14    15    1
    30    15    16    1
    31     9     4   ar
    32    16    14    1
    33    22    18   ar
    34    32    24   ar
    35    32    27   ar
    36    12    13    1
@<TRIPOS>MOLECULE
*****
 32 36 0 0 0
SMALL
GASTEIGER

@<TRIPOS>ATOM
      1 N           7.3270   -3.0521   22.2733 N.am    1  UNL1       -0.2527
      2 C           7.4271   -3.8715   21.0209 C.2     1  UNL1        0.2545
      3 O           8.6505   -4.7000   20.7625 O.2     1  UNL1       -0.2723
      4 C           3.6568   -0.5665   23.0485 C.ar    1  UNL1        0.0504
      5 C           4.8892    0.0727   22.4806 C.ar    1  UNL1        0.0159
      6 C           6.1126   -0.7559   22.2222 C.ar    1  UNL1        0.0162
      7 C           6.1036   -2.2235   22.5317 C.ar    1  UNL1        0.0543
      8 C           4.8712   -2.8627   23.0997 C.ar    1  UNL1        0.0162
      9 C           3.6477   -2.0341   23.3581 C.ar    1  UNL1        0.0159
     10 O           2.8843    0.1311   25.8621 O.2     1  UNL1       -0.2748
     11 C           2.0471    0.6109   24.7137 C.2     1  UNL1        0.2256
     12 N           2.4334    0.2621   23.3069 N.am    1  UNL1       -0.2839
     13 H           1.8839    0.5770   22.5532 H       1  UNL1        0.1549
     14 C           0.8237    1.4394   24.9721 C.3     1  UNL1        0.0768
     15 C          -0.2404    2.3741   24.4780 C.3     1  UNL1        0.0096
     16 C          -0.2312    1.9398   25.9138 C.3     1  UNL1        0.0096
     17 C           8.4503   -3.0613   23.2673 C.3     1  UNL1        0.1253
     18 C           8.3951   -3.9786   24.4528 C.ar    1  UNL1        0.0050
     19 C           7.6976   -5.3054   24.5092 C.ar    1  UNL1        0.0049
     20 C           7.8992   -5.8771   25.8813 C.ar    1  UNL1        0.0352
     21 S           8.7213   -4.9036   26.6729 S.2     1  UNL1       -0.0862
     22 C           9.0278   -3.7304   25.7900 C.ar    1  UNL1        0.0328
     23 C           6.3037   -3.8623   20.0268 C.3     1  UNL1        0.2141
     24 N           6.1653   -2.7221   19.0620 N.ar    1  UNL1       -0.2223
     25 N           7.2000   -2.2734   18.0730 N.ar    1  UNL1       -0.0634
     26 N           6.6420   -1.1045   17.3167 N.ar    1  UNL1       -0.1288
     27 C           5.2625   -0.8307   17.8382 C.ar    1  UNL1        0.1217
     28 C           4.2365    0.1998   17.4702 C.ar    1  UNL1        0.0225
     29 C           2.9160    0.2305   18.1809 C.ar    1  UNL1        0.0017
     30 C           2.6213   -0.7693   19.2596 C.ar    1  UNL1        0.0016
     31 C           3.6473   -1.7998   19.6276 C.ar    1  UNL1        0.0204
     32 C           4.9678   -1.8305   18.9169 C.ar    1  UNL1        0.0994
@<TRIPOS>BOND
     1    10    11    2
     2    11    12   am
     3    12     4    1
     4     4     5   ar
     5     5     6   ar
     6     6     7   ar
     7     7     1    1
     8     1    17    1
     9    17    18    1
    10    18    19   ar
    11    19    20   ar
    12    20    21   ar
    13    21    22   ar
    14     1     2   am
    15     2     3    2
    16     2    23    1
    17    23    24    1
    18    24    25   ar
    19    25    26   ar
    20    26    27   ar
    21    27    28   ar
    22    28    29   ar
    23    29    30   ar
    24    30    31   ar
    25    31    32   ar
    26     7     8   ar
    27     8     9   ar
    28    11    14    1
    29    14    15    1
    30    15    16    1
    31     9     4   ar
    32    16    14    1
    33    22    18   ar
    34    32    24   ar
    35    32    27   ar
    36    12    13    1
@<TRIPOS>MOLECULE
*****
 32 36 0 0 0
SMALL
GASTEIGER

@<TRIPOS>ATOM
      1 N           6.5465   -0.1156   34.5626 N.am    1  UNL1       -0.2527
      2 C           6.0967   -0.1348   35.9935 C.2     1  UNL1        0.2545
      3 O           7.1085   -0.0651   37.0987 O.2     1  UNL1       -0.2723
      4 C           3.5111   -0.3247   31.2471 C.ar    1  UNL1        0.0504
      5 C           4.2213    0.9651   31.5335 C.ar    1  UNL1        0.0159
      6 C           5.2330    1.0348   32.6387 C.ar    1  UNL1        0.0162
      7 C           5.5347   -0.1853   33.4574 C.ar    1  UNL1        0.0543
      8 C           4.8246   -1.4751   33.1710 C.ar    1  UNL1        0.0162
      9 C           3.8128   -1.5448   32.0658 C.ar    1  UNL1        0.0159
     10 O           0.9996    1.3081   31.4074 O.2     1  UNL1       -0.2748
     11 C           1.2436    0.4219   30.2220 C.2     1  UNL1        0.2256
     12 N           2.4994   -0.3944   30.1419 N.am    1  UNL1       -0.2839
     13 H           2.6596   -0.9761   29.3638 H       1  UNL1        0.1549
     14 C           0.2318    0.3522   29.1168 C.3     1  UNL1        0.0768
     15 C          -1.0208   -0.2354   28.5376 C.3     1  UNL1        0.0096
     16 C          -0.2679    0.8191   27.7818 C.3     1  UNL1        0.0096
     17 C           8.0080   -0.0267   34.2370 C.3     1  UNL1        0.1253
     18 C           8.5463   -0.7064   33.0130 C.ar    1  UNL1        0.0050
     19 C           8.6332   -2.1877   32.7935 C.ar    1  UNL1        0.0049
     20 C           9.2329   -2.4210   31.4385 C.ar    1  UNL1        0.0352
     21 S           9.5165   -1.0839   30.8205 S.2     1  UNL1       -0.0862
     22 C           9.0922   -0.0243   31.7938 C.ar    1  UNL1        0.0328
     23 C           4.6351   -0.2237   36.3192 C.3     1  UNL1        0.2141
     24 N           3.9700    0.8782   37.0896 N.ar    1  UNL1       -0.2223
     25 N           3.9777    1.0404   38.5808 N.ar    1  UNL1       -0.0634
     26 N           3.1929    2.2738   38.9168 N.ar    1  UNL1       -0.1288
     27 C           2.7002    2.8738   37.6333 C.ar    1  UNL1        0.1217
     28 C           1.8763    4.0941   37.3470 C.ar    1  UNL1        0.0225
     29 C           1.5327    4.4518   35.9315 C.ar    1  UNL1        0.0017
     30 C           2.0130    3.5893   34.8022 C.ar    1  UNL1        0.0016
     31 C           2.8369    2.3690   35.0884 C.ar    1  UNL1        0.0204
     32 C           3.1805    2.0112   36.5040 C.ar    1  UNL1        0.0994
@<TRIPOS>BOND
     1    10    11    2
     2    11    12   am
     3    12     4    1
     4     4     5   ar
     5     5     6   ar
     6     6     7   ar
     7     7     1    1
     8     1    17    1
     9    17    18    1
    10    18    19   ar
    11    19    20   ar
    12    20    21   ar
    13    21    22   ar
    14     1     2   am
    15     2     3    2
    16     2    23    1
    17    23    24    1
    18    24    25   ar
    19    25    26   ar
    20    26    27   ar
    21    27    28   ar
    22    28    29   ar
    23    29    30   ar
    24    30    31   ar
    25    31    32   ar
    26     7     8   ar
    27     8     9   ar
    28    11    14    1
    29    14    15    1
    30    15    16    1
    31     9     4   ar
    32    16    14    1
    33    22    18   ar
    34    32    24   ar
    35    32    27   ar
    36    12    13    1
@<TRIPOS>MOLECULE
*****
 32 36 0 0 0
SMALL
GASTEIGER

@<TRIPOS>ATOM
      1 N           3.7091   -2.0054   19.5355 N.am    1  UNL1       -0.2527
      2 C           4.3235   -1.6615   18.2110 C.2     1  UNL1        0.2545
      3 O           5.1955   -2.6586   17.5072 O.2     1  UNL1       -0.2723
      4 C           1.0931    0.9860   21.6469 C.ar    1  UNL1        0.0504
      5 C           0.5094    0.0894   20.5955 C.ar    1  UNL1        0.0159
      6 C           1.3814   -0.9077   19.8917 C.ar    1  UNL1        0.0162
      7 C           2.8371   -1.0083   20.2393 C.ar    1  UNL1        0.0543
      8 C           3.4208   -0.1117   21.2906 C.ar    1  UNL1        0.0162
      9 C           2.5488    0.8855   21.9944 C.ar    1  UNL1        0.0159
     10 O           0.7461    0.8384   24.6230 O.2     1  UNL1       -0.2748
     11 C           0.0476    1.9094   23.8387 C.2     1  UNL1        0.2256
     12 N           0.2212    1.9832   22.3507 N.am    1  UNL1       -0.2839
     13 H          -0.2373    2.6861   21.8359 H       1  UNL1        0.1549
     14 C          -0.8244    2.9065   24.5425 C.3     1  UNL1        0.0768
     15 C          -1.7852    3.2429   25.6442 C.3     1  UNL1        0.0096
     16 C          -1.3739    4.2973   24.6599 C.3     1  UNL1        0.0096
     17 C           3.9666   -3.3465   20.1560 C.3     1  UNL1        0.1253
     18 C           4.9591   -3.4778   21.2731 C.ar    1  UNL1        0.0050
     19 C           4.6441   -3.4557   22.7394 C.ar    1  UNL1        0.0049
     20 C           5.9312   -3.6185   23.4925 C.ar    1  UNL1        0.0352
     21 S           7.0416   -3.7411   22.4915 S.2     1  UNL1       -0.0862
     22 C           6.4408   -3.6541   21.1199 C.ar    1  UNL1        0.0328
     23 C           4.0660   -0.3203   17.5904 C.3     1  UNL1        0.2141
     24 N           4.7037    0.9083   18.1681 N.ar    1  UNL1       -0.2223
     25 N           6.1685    1.1033   18.4258 N.ar    1  UNL1       -0.0634
     26 N           6.3585    2.4732   19.0065 N.ar    1  UNL1       -0.1288
     27 C           5.0113    3.1249   19.1076 C.ar    1  UNL1        0.1217
     28 C           4.5837    4.4740   19.6046 C.ar    1  UNL1        0.0225
     29 C           3.1333    4.8559   19.5834 C.ar    1  UNL1        0.0017
     30 C           2.1105    3.8888   19.0652 C.ar    1  UNL1        0.0016
     31 C           2.5381    2.5397   18.5682 C.ar    1  UNL1        0.0204
     32 C           3.9885    2.1577   18.5894 C.ar    1  UNL1        0.0994
@<TRIPOS>BOND
     1    10    11    2
     2    11    12   am
     3    12     4    1
     4     4     5   ar
     5     5     6   ar
     6     6     7   ar
     7     7     1    1
     8     1    17    1
     9    17    18    1
    10    18    19   ar
    11    19    20   ar
    12    20    21   ar
    13    21    22   ar
    14     1     2   am
    15     2     3    2
    16     2    23    1
    17    23    24    1
    18    24    25   ar
    19    25    26   ar
    20    26    27   ar
    21    27    28   ar
    22    28    29   ar
    23    29    30   ar
    24    30    31   ar
    25    31    32   ar
    26     7     8   ar
    27     8     9   ar
    28    11    14    1
    29    14    15    1
    30    15    16    1
    31     9     4   ar
    32    16    14    1
    33    22    18   ar
    34    32    24   ar
    35    32    27   ar
    36    12    13    1
@<TRIPOS>MOLECULE
*****
 32 36 0 0 0
SMALL
GASTEIGER

@<TRIPOS>ATOM
      1 N           4.7328    0.6533   35.1051 N.am    1  UNL1       -0.2527
      2 C           4.3117    1.9395   34.4583 C.2     1  UNL1        0.2545
      3 O           3.9015    3.1065   35.3068 O.2     1  UNL1       -0.2723
      4 C           5.9635   -2.8477   32.5598 C.ar    1  UNL1        0.0504
      5 C           6.9800   -1.8226   32.9672 C.ar    1  UNL1        0.0159
      6 C           6.5697   -0.6556   33.8157 C.ar    1  UNL1        0.0162
      7 C           5.1430   -0.5137   34.2567 C.ar    1  UNL1        0.0543
      8 C           4.1266   -1.5388   33.8492 C.ar    1  UNL1        0.0162
      9 C           4.5368   -2.7058   33.0008 C.ar    1  UNL1        0.0159
     10 O           6.4527   -2.4695   29.6242 O.2     1  UNL1       -0.2748
     11 C           6.6183   -3.8256   30.2436 C.2     1  UNL1        0.2256
     12 N           6.3737   -4.0146   31.7113 N.am    1  UNL1       -0.2839
     13 H           6.4824   -4.9047   32.1178 H       1  UNL1        0.1549
     14 C           7.0286   -4.9926   29.3951 C.3     1  UNL1        0.0768
     15 C           7.7520   -6.2978   29.2436 C.3     1  UNL1        0.0096
     16 C           7.0157   -5.7086   28.0771 C.3     1  UNL1        0.0096
     17 C           4.7436    0.5341   36.6003 C.3     1  UNL1        0.1253
     18 C           5.8513    1.1605   37.3945 C.ar    1  UNL1        0.0050
     19 C           5.6870    2.1634   38.4978 C.ar    1  UNL1        0.0049
     20 C           7.0518    2.5167   39.0101 C.ar    1  UNL1        0.0352
     21 S           8.0597    1.7321   38.2235 S.2     1  UNL1       -0.0862
     22 C           7.3176    0.8939   37.2250 C.ar    1  UNL1        0.0328
     23 C           4.3009    2.0588   32.9631 C.3     1  UNL1        0.2141
     24 N           3.0586    1.7219   32.1928 N.ar    1  UNL1       -0.2223
     25 N           1.6623    2.1427   32.5437 N.ar    1  UNL1       -0.0634
     26 N           0.7354    1.5859   31.5042 N.ar    1  UNL1       -0.1288
     27 C           1.5588    0.8209   30.5108 C.ar    1  UNL1        0.1217
     28 C           1.1866    0.0586   29.2737 C.ar    1  UNL1        0.0225
     29 C           2.2503   -0.6196   28.4622 C.ar    1  UNL1        0.0017
     30 C           3.6862   -0.5355   28.8879 C.ar    1  UNL1        0.0016
     31 C           4.0584    0.2267   30.1249 C.ar    1  UNL1        0.0204
     32 C           2.9947    0.9049   30.9364 C.ar    1  UNL1        0.0994
@<TRIPOS>BOND
     1    10    11    2
     2    11    12   am
     3    12     4    1
     4     4     5   ar
     5     5     6   ar
     6     6     7   ar
     7     7     1    1
     8     1    17    1
     9    17    18    1
    10    18    19   ar
    11    19    20   ar
    12    20    21   ar
    13    21    22   ar
    14     1     2   am
    15     2     3    2
    16     2    23    1
    17    23    24    1
    18    24    25   ar
    19    25    26   ar
    20    26    27   ar
    21    27    28   ar
    22    28    29   ar
    23    29    30   ar
    24    30    31   ar
    25    31    32   ar
    26     7     8   ar
    27     8     9   ar
    28    11    14    1
    29    14    15    1
    30    15    16    1
    31     9     4   ar
    32    16    14    1
    33    22    18   ar
    34    32    24   ar
    35    32    27   ar
    36    12    13    1
@<TRIPOS>MOLECULE
*****
 32 36 0 0 0
SMALL
GASTEIGER

@<TRIPOS>ATOM
      1 N           5.7940   -2.3900   23.3988 N.am    1  UNL1       -0.2527
      2 C           5.6390   -3.5665   22.4813 C.2     1  UNL1        0.2545
      3 O           6.6085   -4.7086   22.5557 O.2     1  UNL1       -0.2723
      4 C           2.8853    1.0363   23.1755 C.ar    1  UNL1        0.0504
      5 C           2.5809   -0.1508   24.0405 C.ar    1  UNL1        0.0159
      6 C           3.5505   -1.2929   24.1149 C.ar    1  UNL1        0.0162
      7 C           4.8245   -1.2479   23.3244 C.ar    1  UNL1        0.0543
      8 C           5.1289   -0.0609   22.4593 C.ar    1  UNL1        0.0162
      9 C           4.1593    1.0812   22.3849 C.ar    1  UNL1        0.0159
     10 O           0.2631    0.6880   21.7604 O.2     1  UNL1       -0.2748
     11 C           0.6046    2.0043   22.3935 C.2     1  UNL1        0.2256
     12 N           1.9158    2.1783   23.1010 N.am    1  UNL1       -0.2839
     13 H           2.1399    3.0422   23.5166 H       1  UNL1        0.1549
     14 C          -0.3649    3.1464   22.3190 C.3     1  UNL1        0.0768
     15 C          -0.6480    4.6173   22.3980 C.3     1  UNL1        0.0096
     16 C          -1.7612    3.6536   22.1112 C.3     1  UNL1        0.0096
     17 C           6.9187   -2.3557   24.3907 C.3     1  UNL1        0.1253
     18 C           6.7450   -2.9806   25.7433 C.ar    1  UNL1        0.0050
     19 C           6.9678   -4.4246   26.0825 C.ar    1  UNL1        0.0049
     20 C           6.6786   -4.6077   27.5429 C.ar    1  UNL1        0.0352
     21 S           6.2770   -3.2767   28.1063 S.2     1  UNL1       -0.0862
     22 C           6.3181   -2.2712   26.9940 C.ar    1  UNL1        0.0328
     23 C           4.5142   -3.6009   21.4893 C.3     1  UNL1        0.2141
     24 N           4.7136   -3.0463   20.1099 N.ar    1  UNL1       -0.2223
     25 N           5.7512   -3.4911   19.1222 N.ar    1  UNL1       -0.0634
     26 N           5.5892   -2.6692   17.8780 N.ar    1  UNL1       -0.1288
     27 C           4.4515   -1.7164   18.0967 C.ar    1  UNL1        0.1217
     28 C           3.8384   -0.6667   17.2179 C.ar    1  UNL1        0.0225
     29 C           2.6841    0.1499   17.7187 C.ar    1  UNL1        0.0017
     30 C           2.1430   -0.0831   19.0981 C.ar    1  UNL1        0.0016
     31 C           2.7561   -1.1328   19.9768 C.ar    1  UNL1        0.0204
     32 C           3.9103   -1.9494   19.4761 C.ar    1  UNL1        0.0994
@<TRIPOS>BOND
     1    10    11    2
     2    11    12   am
     3    12     4    1
     4     4     5   ar
     5     5     6   ar
     6     6     7   ar
     7     7     1    1
     8     1    17    1
     9    17    18    1
    10    18    19   ar
    11    19    20   ar
    12    20    21   ar
    13    21    22   ar
    14     1     2   am
    15     2     3    2
    16     2    23    1
    17    23    24    1
    18    24    25   ar
    19    25    26   ar
    20    26    27   ar
    21    27    28   ar
    22    28    29   ar
    23    29    30   ar
    24    30    31   ar
    25    31    32   ar
    26     7     8   ar
    27     8     9   ar
    28    11    14    1
    29    14    15    1
    30    15    16    1
    31     9     4   ar
    32    16    14    1
    33    22    18   ar
    34    32    24   ar
    35    32    27   ar
    36    12    13    1
