@<TRIPOS>MOLECULE
*****
 16 17 0 0 0
SMALL
GASTEIGER

@<TRIPOS>ATOM
      1 N         -11.1600  -16.8947   20.5017 N.pl3   1  UNL1       -0.1942
      2 C         -11.1830  -18.2961   19.9672 C.3     1  UNL1        0.1723
      3 C         -10.8799  -19.4504   20.8758 C.3     1  UNL1        0.0666
      4 C         -10.5539  -19.2034   22.3191 C.ar    1  UNL1       -0.0198
      5 C         -10.2509  -20.3578   23.2277 C.ar    1  UNL1       -0.0044
      6 C          -9.9249  -20.1108   24.6708 C.ar    1  UNL1       -0.0003
      7 C          -9.9019  -18.7094   25.2053 C.ar    1  UNL1       -0.0002
      8 C         -10.2049  -17.5551   24.2967 C.ar    1  UNL1       -0.0014
      9 C         -10.5309  -17.8021   22.8536 C.ar    1  UNL1        0.0111
     10 C         -10.8340  -16.6477   21.9449 C.3     1  UNL1        0.1939
     11 N         -10.3698  -14.7954   19.1907 N.2     1  UNL1       -0.1334
     12 C         -11.4630  -15.7404   19.5930 C.cat   1  UNL1        0.3636
     13 N         -12.8594  -15.5310   19.0867 N.pl3   1  UNL1       -0.2517
     14 H         -10.5687  -14.0378   18.5943 H       1  UNL1        0.3058
     15 H         -13.0583  -14.7734   18.4903 H       1  UNL1        0.2412
     16 H         -13.5769  -16.1512   19.3507 H       1  UNL1        0.2412
@<TRIPOS>BOND
     1    11    12    2
     2    12    13    1
     3    12     1    1
     4     1     2    1
     5     2     3    1
     6     3     4    1
     7     4     5   ar
     8     5     6   ar
     9     6     7   ar
    10     7     8   ar
    11     8     9   ar
    12     9    10    1
    13    10     1    1
    14     9     4   ar
    15    11    14    1
    16    13    15    1
    17    13    16    1
@<TRIPOS>MOLECULE
*****
 16 17 0 0 0
SMALL
GASTEIGER

@<TRIPOS>ATOM
      1 N          -8.8888  -16.4813   24.5184 N.pl3   1  UNL1       -0.1942
      2 C          -9.3316  -17.6294   25.3761 C.3     1  UNL1        0.1723
      3 C         -10.0089  -18.8137   24.7528 C.3     1  UNL1        0.0666
      4 C         -10.2435  -18.8499   23.2716 C.ar    1  UNL1       -0.0198
      5 C         -10.9209  -20.0343   22.6483 C.ar    1  UNL1       -0.0044
      6 C         -11.1554  -20.0704   21.1673 C.ar    1  UNL1       -0.0003
      7 C         -10.7127  -18.9223   20.3095 C.ar    1  UNL1       -0.0002
      8 C         -10.0353  -17.7380   20.9328 C.ar    1  UNL1       -0.0014
      9 C          -9.8007  -17.7018   22.4139 C.ar    1  UNL1        0.0111
     10 C          -9.1234  -16.5175   23.0373 C.3     1  UNL1        0.1939
     11 N          -7.5767  -14.2524   24.2723 N.2     1  UNL1       -0.1334
     12 C          -8.2114  -15.2969   25.1417 C.cat   1  UNL1        0.3636
     13 N          -8.1688  -15.1572   26.6346 N.pl3   1  UNL1       -0.2517
     14 H          -7.1322  -13.4751   24.6814 H       1  UNL1        0.3058
     15 H          -7.7242  -14.3799   27.0438 H       1  UNL1        0.2412
     16 H          -8.5853  -15.8428   27.2053 H       1  UNL1        0.2412
@<TRIPOS>BOND
     1    11    12    2
     2    12    13    1
     3    12     1    1
     4     1     2    1
     5     2     3    1
     6     3     4    1
     7     4     5   ar
     8     5     6   ar
     9     6     7   ar
    10     7     8   ar
    11     8     9   ar
    12     9    10    1
    13    10     1    1
    14     9     4   ar
    15    11    14    1
    16    13    15    1
    17    13    16    1
@<TRIPOS>MOLECULE
*****
 16 17 0 0 0
SMALL
GASTEIGER

@<TRIPOS>ATOM
      1 N          -6.1367  -16.2746   23.8549 N.pl3   1  UNL1       -0.1942
      2 C          -7.0774  -17.1862   23.1241 C.3     1  UNL1        0.1723
      3 C          -6.5369  -18.3121   22.2935 C.3     1  UNL1        0.0666
      4 C          -5.0556  -18.5266   22.1936 C.ar    1  UNL1       -0.0198
      5 C          -4.5151  -19.6525   21.3630 C.ar    1  UNL1       -0.0044
      6 C          -3.0339  -19.8669   21.2631 C.ar    1  UNL1       -0.0003
      7 C          -2.0932  -18.9553   21.9939 C.ar    1  UNL1       -0.0002
      8 C          -2.6337  -17.8293   22.8245 C.ar    1  UNL1       -0.0014
      9 C          -4.1149  -17.6150   22.9244 C.ar    1  UNL1        0.0111
     10 C          -4.6555  -16.4889   23.7550 C.3     1  UNL1        0.1939
     11 N          -7.6558  -14.1800   24.0902 N.2     1  UNL1       -0.1334
     12 C          -6.6773  -15.1485   24.6856 C.cat   1  UNL1        0.3636
     13 N          -6.2393  -14.9911   26.1115 N.pl3   1  UNL1       -0.2517
     14 H          -8.0105  -13.4410   24.6354 H       1  UNL1        0.3058
     15 H          -6.5941  -14.2521   26.6567 H       1  UNL1        0.2412
     16 H          -5.5970  -15.6268   26.5022 H       1  UNL1        0.2412
@<TRIPOS>BOND
     1    11    12    2
     2    12    13    1
     3    12     1    1
     4     1     2    1
     5     2     3    1
     6     3     4    1
     7     4     5   ar
     8     5     6   ar
     9     6     7   ar
    10     7     8   ar
    11     8     9   ar
    12     9    10    1
    13    10     1    1
    14     9     4   ar
    15    11    14    1
    16    13    15    1
    17    13    16    1
@<TRIPOS>MOLECULE
*****
 16 17 0 0 0
SMALL
GASTEIGER

@<TRIPOS>ATOM
      1 N          -8.1317  -16.3103   23.6502 N.pl3   1  UNL1       -0.1942
      2 C          -8.8139  -17.1586   24.6822 C.3     1  UNL1        0.1723
      3 C         -10.1852  -17.7053   24.4165 C.3     1  UNL1        0.0666
      4 C         -10.8744  -17.4037   23.1187 C.ar    1  UNL1       -0.0198
      5 C         -12.2456  -17.9504   22.8530 C.ar    1  UNL1       -0.0044
      6 C         -12.9347  -17.6488   21.5553 C.ar    1  UNL1       -0.0003
      7 C         -12.2526  -16.8005   20.5233 C.ar    1  UNL1       -0.0002
      8 C         -10.8813  -16.2538   20.7890 C.ar    1  UNL1       -0.0014
      9 C         -10.1922  -16.5554   22.0867 C.ar    1  UNL1        0.0111
     10 C          -8.8208  -16.0087   22.3525 C.3     1  UNL1        0.1939
     11 N          -6.5976  -14.4946   24.6989 N.2     1  UNL1       -0.1334
     12 C          -6.7604  -15.7636   23.9160 C.cat   1  UNL1        0.3636
     13 N          -5.5518  -16.4860   23.3988 N.pl3   1  UNL1       -0.2517
     14 H          -5.6976  -14.1358   24.8733 H       1  UNL1        0.3058
     15 H          -4.6517  -16.1272   23.5732 H       1  UNL1        0.2412
     16 H          -5.6586  -17.3189   22.8850 H       1  UNL1        0.2412
@<TRIPOS>BOND
     1    11    12    2
     2    12    13    1
     3    12     1    1
     4     1     2    1
     5     2     3    1
     6     3     4    1
     7     4     5   ar
     8     5     6   ar
     9     6     7   ar
    10     7     8   ar
    11     8     9   ar
    12     9    10    1
    13    10     1    1
    14     9     4   ar
    15    11    14    1
    16    13    15    1
    17    13    16    1
@<TRIPOS>MOLECULE
*****
 16 17 0 0 0
SMALL
GASTEIGER

@<TRIPOS>ATOM
      1 N          -8.0476  -19.4016   21.3062 N.pl3   1  UNL1       -0.1942
      2 C          -8.1212  -19.8246   22.7435 C.3     1  UNL1        0.1723
      3 C          -9.3711  -19.5771   23.5351 C.3     1  UNL1        0.0666
      4 C         -10.5474  -18.9067   22.8894 C.ar    1  UNL1       -0.0198
      5 C         -11.7972  -18.6592   23.6810 C.ar    1  UNL1       -0.0044
      6 C         -12.9735  -17.9888   23.0353 C.ar    1  UNL1       -0.0003
      7 C         -12.8999  -17.5658   21.5981 C.ar    1  UNL1       -0.0002
      8 C         -11.6500  -17.8132   20.8065 C.ar    1  UNL1       -0.0014
      9 C         -10.4738  -18.4837   21.4522 C.ar    1  UNL1        0.0111
     10 C          -9.2238  -18.7311   20.6606 C.3     1  UNL1        0.1939
     11 N          -6.1651  -18.5296   19.7423 N.2     1  UNL1       -0.1334
     12 C          -6.7977  -19.6490   20.5147 C.cat   1  UNL1        0.3636
     13 N          -6.1804  -21.0160   20.4956 N.pl3   1  UNL1       -0.2517
     14 H          -5.3448  -18.6920   19.2227 H       1  UNL1        0.3058
     15 H          -5.3600  -21.1784   19.9761 H       1  UNL1        0.2412
     16 H          -6.5955  -21.7507   21.0025 H       1  UNL1        0.2412
@<TRIPOS>BOND
     1    11    12    2
     2    12    13    1
     3    12     1    1
     4     1     2    1
     5     2     3    1
     6     3     4    1
     7     4     5   ar
     8     5     6   ar
     9     6     7   ar
    10     7     8   ar
    11     8     9   ar
    12     9    10    1
    13    10     1    1
    14     9     4   ar
    15    11    14    1
    16    13    15    1
    17    13    16    1
@<TRIPOS>MOLECULE
*****
 16 17 0 0 0
SMALL
GASTEIGER

@<TRIPOS>ATOM
      1 N          -8.6630  -19.0027   21.2952 N.pl3   1  UNL1       -0.1942
      2 C          -9.5464  -18.6046   20.1501 C.3     1  UNL1        0.1723
      3 C         -10.9847  -18.2581   20.3977 C.3     1  UNL1        0.0666
      4 C         -11.5396  -18.3096   21.7903 C.ar    1  UNL1       -0.0198
      5 C         -12.9779  -17.9631   22.0378 C.ar    1  UNL1       -0.0044
      6 C         -13.5328  -18.0147   23.4304 C.ar    1  UNL1       -0.0003
      7 C         -12.6494  -18.4128   24.5755 C.ar    1  UNL1       -0.0002
      8 C         -11.2111  -18.7593   24.3280 C.ar    1  UNL1       -0.0014
      9 C         -10.6563  -18.7077   22.9354 C.ar    1  UNL1        0.0111
     10 C          -9.2179  -19.0542   22.6878 C.3     1  UNL1        0.1939
     11 N          -6.5459  -20.3838   21.8953 N.2     1  UNL1       -0.1334
     12 C          -7.2247  -19.3492   21.0476 C.cat   1  UNL1        0.3636
     13 N          -6.4653  -18.6610   19.9523 N.pl3   1  UNL1       -0.2517
     14 H          -5.6019  -20.6113   21.7328 H       1  UNL1        0.3058
     15 H          -5.5213  -18.8884   19.7898 H       1  UNL1        0.2412
     16 H          -6.9109  -17.9819   19.3960 H       1  UNL1        0.2412
@<TRIPOS>BOND
     1    11    12    2
     2    12    13    1
     3    12     1    1
     4     1     2    1
     5     2     3    1
     6     3     4    1
     7     4     5   ar
     8     5     6   ar
     9     6     7   ar
    10     7     8   ar
    11     8     9   ar
    12     9    10    1
    13    10     1    1
    14     9     4   ar
    15    11    14    1
    16    13    15    1
    17    13    16    1
@<TRIPOS>MOLECULE
*****
 16 17 0 0 0
SMALL
GASTEIGER

@<TRIPOS>ATOM
      1 N          -7.4696  -16.5152   23.1803 N.pl3   1  UNL1       -0.1942
      2 C          -7.1625  -17.8172   22.5018 C.3     1  UNL1        0.1723
      3 C          -8.2709  -18.6291   21.9001 C.3     1  UNL1        0.0666
      4 C          -9.6866  -18.1390   21.9768 C.ar    1  UNL1       -0.0198
      5 C         -10.7950  -18.9509   21.3750 C.ar    1  UNL1       -0.0044
      6 C         -12.2105  -18.4608   21.4518 C.ar    1  UNL1       -0.0003
      7 C         -12.5177  -17.1587   22.1303 C.ar    1  UNL1       -0.0002
      8 C         -11.4093  -16.3468   22.7320 C.ar    1  UNL1       -0.0014
      9 C          -9.9937  -16.8369   22.6553 C.ar    1  UNL1        0.0111
     10 C          -8.8852  -16.0250   23.2571 C.3     1  UNL1        0.1939
     11 N          -6.6819  -14.5383   24.6708 N.2     1  UNL1       -0.1334
     12 C          -6.3611  -15.7032   23.7821 C.cat   1  UNL1        0.3636
     13 N          -4.9318  -16.0564   23.4951 N.pl3   1  UNL1       -0.2517
     14 H          -5.9544  -14.0054   25.0658 H       1  UNL1        0.3058
     15 H          -4.2043  -15.5235   23.8900 H       1  UNL1        0.2412
     16 H          -4.7212  -16.8210   22.9118 H       1  UNL1        0.2412
@<TRIPOS>BOND
     1    11    12    2
     2    12    13    1
     3    12     1    1
     4     1     2    1
     5     2     3    1
     6     3     4    1
     7     4     5   ar
     8     5     6   ar
     9     6     7   ar
    10     7     8   ar
    11     8     9   ar
    12     9    10    1
    13    10     1    1
    14     9     4   ar
    15    11    14    1
    16    13    15    1
    17    13    16    1
@<TRIPOS>MOLECULE
*****
 16 17 0 0 0
SMALL
GASTEIGER

@<TRIPOS>ATOM
      1 N          -7.8384  -19.3864   20.4952 N.pl3   1  UNL1       -0.1942
      2 C          -8.8542  -19.4128   19.3918 C.3     1  UNL1        0.1723
      3 C         -10.2895  -19.0910   19.6858 C.3     1  UNL1        0.0666
      4 C         -10.7090  -18.7427   21.0833 C.ar    1  UNL1       -0.0198
      5 C         -12.1442  -18.4209   21.3773 C.ar    1  UNL1       -0.0044
      6 C         -12.5636  -18.0727   22.7747 C.ar    1  UNL1       -0.0003
      7 C         -11.5478  -18.0464   23.8781 C.ar    1  UNL1       -0.0002
      8 C         -10.1126  -18.3682   23.5841 C.ar    1  UNL1       -0.0014
      9 C          -9.6931  -18.7164   22.1867 C.ar    1  UNL1        0.0111
     10 C          -8.2578  -19.0383   21.8926 C.3     1  UNL1        0.1939
     11 N          -5.9019  -21.1131   20.3595 N.2     1  UNL1       -0.1334
     12 C          -6.4031  -19.7083   20.2011 C.cat   1  UNL1        0.3636
     13 N          -5.4692  -18.6253   19.7485 N.pl3   1  UNL1       -0.2517
     14 H          -4.9599  -21.3244   20.1665 H       1  UNL1        0.3058
     15 H          -4.5272  -18.8365   19.5555 H       1  UNL1        0.2412
     16 H          -5.7982  -17.7032   19.6445 H       1  UNL1        0.2412
@<TRIPOS>BOND
     1    11    12    2
     2    12    13    1
     3    12     1    1
     4     1     2    1
     5     2     3    1
     6     3     4    1
     7     4     5   ar
     8     5     6   ar
     9     6     7   ar
    10     7     8   ar
    11     8     9   ar
    12     9    10    1
    13    10     1    1
    14     9     4   ar
    15    11    14    1
    16    13    15    1
    17    13    16    1
@<TRIPOS>MOLECULE
*****
 16 17 0 0 0
SMALL
GASTEIGER

@<TRIPOS>ATOM
      1 N          -6.6275  -16.6549   23.4838 N.pl3   1  UNL1       -0.1942
      2 C          -5.1958  -16.4425   23.8778 C.3     1  UNL1        0.1723
      3 C          -4.1217  -17.3164   23.3012 C.3     1  UNL1        0.0666
      4 C          -4.4792  -18.4028   22.3306 C.ar    1  UNL1       -0.0198
      5 C          -3.4051  -19.2768   21.7540 C.ar    1  UNL1       -0.0044
      6 C          -3.7627  -20.3631   20.7835 C.ar    1  UNL1       -0.0003
      7 C          -5.1944  -20.5755   20.3895 C.ar    1  UNL1       -0.0002
      8 C          -6.2685  -19.7016   20.9661 C.ar    1  UNL1       -0.0014
      9 C          -5.9109  -18.6152   21.9367 C.ar    1  UNL1        0.0111
     10 C          -6.9850  -17.7412   22.5133 C.3     1  UNL1        0.1939
     11 N          -7.4572  -14.3119   24.2401 N.2     1  UNL1       -0.1334
     12 C          -7.7016  -15.7809   24.0605 C.cat   1  UNL1        0.3636
     13 N          -9.0200  -16.3760   24.4574 N.pl3   1  UNL1       -0.2517
     14 H          -8.1622  -13.7383   24.6186 H       1  UNL1        0.3058
     15 H          -9.7250  -15.8024   24.8359 H       1  UNL1        0.2412
     16 H          -9.1804  -17.3401   24.3395 H       1  UNL1        0.2412
@<TRIPOS>BOND
     1    11    12    2
     2    12    13    1
     3    12     1    1
     4     1     2    1
     5     2     3    1
     6     3     4    1
     7     4     5   ar
     8     5     6   ar
     9     6     7   ar
    10     7     8   ar
    11     8     9   ar
    12     9    10    1
    13    10     1    1
    14     9     4   ar
    15    11    14    1
    16    13    15    1
    17    13    16    1
