@<TRIPOS>MOLECULE
*****
 32 36 0 0 0
SMALL
GASTEIGER

@<TRIPOS>ATOM
      1 C           6.2050   -3.0213   25.3930 C.3     1  UNL1        0.0719
      2 C           7.0659   -3.9482   24.5869 C.3     1  UNL1        0.0197
      3 C           6.7395   -4.2125   23.1469 C.3     1  UNL1        0.0041
      4 C           5.5524   -3.5500   22.5131 C.3     1  UNL1        0.0271
      5 C           4.6915   -2.6232   23.3192 C.3     1  UNL1        0.0041
      6 C           5.0179   -2.3588   24.7592 C.3     1  UNL1        0.0197
      7 O           6.0857   -5.2545   27.3927 O.2     1  UNL1       -0.2701
      8 C           6.4717   -3.8735   27.8329 C.2     1  UNL1        0.2458
      9 N           6.5313   -2.7569   26.8331 N.am    1  UNL1       -0.3025
     10 H           6.7846   -1.8505   27.1220 H       1  UNL1        0.1497
     11 C           6.7979   -3.6090   29.2729 C.ar    1  UNL1        0.0534
     12 C           7.1265   -2.2167   29.7239 C.ar    1  UNL1        0.0045
     13 C           7.4528   -1.9521   31.1639 C.ar    1  UNL1        0.0001
     14 C           7.4505   -3.0800   32.1528 C.ar    1  UNL1        0.0000
     15 C           7.1220   -4.4724   31.7018 C.ar    1  UNL1        0.0001
     16 C           6.7957   -4.7369   30.2618 C.ar    1  UNL1        0.0045
     17 C           5.2260   -3.8143   21.0730 C.3     1  UNL1        0.1127
     18 O           6.1902   -4.5766   20.2132 O.3     1  UNL1       -0.3844
     19 H           5.8289   -4.6586   19.3168 H       1  UNL1        0.2103
     20 C           3.9354   -3.3164   20.4929 C.3     1  UNL1        0.0564
     21 C           3.9227   -2.0808   19.6424 C.3     1  UNL1        0.1119
     22 C           2.8275   -1.0572   19.5909 C.ar    1  UNL1       -0.0002
     23 C           1.5151   -0.9544   20.3098 C.ar    1  UNL1       -0.0024
     24 C           0.6061    0.2098   20.0486 C.ar    1  UNL1       -0.0003
     25 C           1.0094    1.2712   19.0685 C.ar    1  UNL1        0.0000
     26 C           2.3219    1.1685   18.3496 C.ar    1  UNL1        0.0012
     27 C           3.2309    0.0043   18.6108 C.ar    1  UNL1        0.0152
     28 C           4.5754   -0.3634   18.0566 C.ar    1  UNL1        0.0804
     29 C           5.6557    0.0654   17.1082 C.ar    1  UNL1        0.1177
     30 N           6.7509   -0.9583   17.1598 N.ar    1  UNL1       -0.2223
     31 C           6.3475   -2.0198   18.1399 C.ar    1  UNL1        0.1788
     32 N           5.0030   -1.6521   18.6941 N.ar    1  UNL1       -0.3069
@<TRIPOS>BOND
     1     7     8    2
     2     8     9   am
     3     1     9    1
     4     1     2    1
     5     2     3    1
     6     3     4    1
     7     4    17    1
     8    17    18    1
     9    17    20    1
    10    20    21    1
    11    21    22    1
    12    22    23   ar
    13    23    24   ar
    14    24    25   ar
    15    25    26   ar
    16    26    27   ar
    17    27    28    1
    18    28    29   ar
    19    29    30   ar
    20    30    31   ar
    21    31    32   ar
    22     4     5    1
    23     5     6    1
    24     8    11    1
    25    11    12   ar
    26    12    13   ar
    27    13    14   ar
    28    14    15   ar
    29    15    16   ar
    30     6     1    1
    31    16    11   ar
    32    32    21    1
    33    27    22   ar
    34    32    28   ar
    35     9    10    1
    36    18    19    1
@<TRIPOS>MOLECULE
*****
 32 36 0 0 0
SMALL
GASTEIGER

@<TRIPOS>ATOM
      1 C           6.6203   -3.9226   22.6322 C.3     1  UNL1        0.0719
      2 C           7.7476   -3.4175   21.7814 C.3     1  UNL1        0.0197
      3 C           7.4698   -2.8872   20.4060 C.3     1  UNL1        0.0041
      4 C           6.0647   -2.8620   19.8816 C.3     1  UNL1        0.0271
      5 C           4.9374   -3.3670   20.7324 C.3     1  UNL1        0.0041
      6 C           5.2152   -3.8973   22.1078 C.3     1  UNL1        0.0197
      7 O           8.0732   -6.5253   22.9714 O.2     1  UNL1       -0.2701
      8 C           7.6244   -5.7543   24.1772 C.2     1  UNL1        0.2458
      9 N           6.8979   -4.4529   24.0076 N.am    1  UNL1       -0.3025
     10 H           6.6034   -3.9469   24.7990 H       1  UNL1        0.1497
     11 C           7.9020   -6.2845   25.5526 C.ar    1  UNL1        0.0534
     12 C           8.1706   -5.3350   26.6823 C.ar    1  UNL1        0.0045
     13 C           8.4483   -5.8652   28.0578 C.ar    1  UNL1        0.0001
     14 C           8.4573   -7.3449   28.3034 C.ar    1  UNL1        0.0000
     15 C           8.1887   -8.2945   27.1737 C.ar    1  UNL1        0.0001
     16 C           7.9111   -7.7642   25.7983 C.ar    1  UNL1        0.0045
     17 C           5.7870   -2.3317   18.5062 C.3     1  UNL1        0.1127
     18 O           6.8943   -2.2447   17.4981 O.3     1  UNL1       -0.3844
     19 H           6.5476   -1.8832   16.6674 H       1  UNL1        0.2103
     20 C           4.4018   -1.8883   18.1389 C.3     1  UNL1        0.0564
     21 C           3.9724   -0.4751   18.4011 C.3     1  UNL1        0.1119
     22 C           2.7453   -0.0516   19.1526 C.ar    1  UNL1       -0.0002
     23 C           1.6561   -0.8375   19.8204 C.ar    1  UNL1       -0.0024
     24 C           0.5309   -0.1240   20.5094 C.ar    1  UNL1       -0.0003
     25 C           0.4948    1.3754   20.5305 C.ar    1  UNL1        0.0000
     26 C           1.5839    2.1613   19.8627 C.ar    1  UNL1        0.0012
     27 C           2.7092    1.4478   19.1737 C.ar    1  UNL1        0.0152
     28 C           3.9140    1.9509   18.4353 C.ar    1  UNL1        0.0804
     29 C           4.6363    3.1886   17.9919 C.ar    1  UNL1        0.1177
     30 N           5.8634    2.7649   17.2404 N.ar    1  UNL1       -0.2223
     31 C           5.8995    1.2655   17.2192 C.ar    1  UNL1        0.1788
     32 N           4.6947    0.7625   17.9577 N.ar    1  UNL1       -0.3069
@<TRIPOS>BOND
     1     7     8    2
     2     8     9   am
     3     1     9    1
     4     1     2    1
     5     2     3    1
     6     3     4    1
     7     4    17    1
     8    17    18    1
     9    17    20    1
    10    20    21    1
    11    21    22    1
    12    22    23   ar
    13    23    24   ar
    14    24    25   ar
    15    25    26   ar
    16    26    27   ar
    17    27    28    1
    18    28    29   ar
    19    29    30   ar
    20    30    31   ar
    21    31    32   ar
    22     4     5    1
    23     5     6    1
    24     8    11    1
    25    11    12   ar
    26    12    13   ar
    27    13    14   ar
    28    14    15   ar
    29    15    16   ar
    30     6     1    1
    31    16    11   ar
    32    32    21    1
    33    27    22   ar
    34    32    28   ar
    35     9    10    1
    36    18    19    1
@<TRIPOS>MOLECULE
*****
 32 36 0 0 0
SMALL
GASTEIGER

@<TRIPOS>ATOM
      1 C           0.4382    1.8693   23.4205 C.3     1  UNL1        0.0719
      2 C           0.1478    1.2840   24.7707 C.3     1  UNL1        0.0197
      3 C          -0.7845    1.9907   25.7095 C.3     1  UNL1        0.0041
      4 C          -1.4263    3.2825   25.2982 C.3     1  UNL1        0.0271
      5 C          -1.1359    3.8678   23.9480 C.3     1  UNL1        0.0041
      6 C          -0.2036    3.1611   23.0091 C.3     1  UNL1        0.0197
      7 O          -0.5212    1.0257   20.7060 O.2     1  UNL1       -0.2701
      8 C           0.8909    0.7409   21.1243 C.2     1  UNL1        0.2458
      9 N           1.3706    1.1627   22.4815 N.am    1  UNL1       -0.3025
     10 H           2.2973    0.9758   22.7560 H       1  UNL1        0.1497
     11 C           1.8232    0.0344   20.1854 C.ar    1  UNL1        0.0534
     12 C           2.5406   -1.2048   20.6323 C.ar    1  UNL1        0.0045
     13 C           3.4730   -1.9115   19.6935 C.ar    1  UNL1        0.0001
     14 C           3.6880   -1.3788   18.3078 C.ar    1  UNL1        0.0000
     15 C           2.9706   -0.1395   17.8609 C.ar    1  UNL1        0.0001
     16 C           2.0382    0.5671   18.7998 C.ar    1  UNL1        0.0045
     17 C          -2.3586    3.9891   26.2370 C.3     1  UNL1        0.1127
     18 O          -1.8719    5.1613   27.0364 O.3     1  UNL1       -0.3844
     19 H          -2.5947    5.4989   27.5883 H       1  UNL1        0.2103
     20 C          -3.7778    3.5235   26.3766 C.3     1  UNL1        0.0564
     21 C          -4.8698    4.2045   25.6060 C.3     1  UNL1        0.1119
     22 C          -5.1615    4.0261   24.1455 C.ar    1  UNL1       -0.0002
     23 C          -4.5111    3.1849   23.0875 C.ar    1  UNL1       -0.0024
     24 C          -5.0330    3.2124   21.6815 C.ar    1  UNL1       -0.0003
     25 C          -6.2052    4.0811   21.3335 C.ar    1  UNL1        0.0000
     26 C          -6.8556    4.9223   22.3915 C.ar    1  UNL1        0.0012
     27 C          -6.3337    4.8948   23.7975 C.ar    1  UNL1        0.0152
     28 C          -6.7665    5.6101   25.0429 C.ar    1  UNL1        0.0804
     29 C          -7.7586    6.5891   25.5975 C.ar    1  UNL1        0.1177
     30 N          -7.4668    6.7674   27.0581 N.ar    1  UNL1       -0.2223
     31 C          -6.2945    5.8987   27.4061 C.ar    1  UNL1        0.1788
     32 N          -5.8617    5.1835   26.1606 N.ar    1  UNL1       -0.3069
@<TRIPOS>BOND
     1     7     8    2
     2     8     9   am
     3     1     9    1
     4     1     2    1
     5     2     3    1
     6     3     4    1
     7     4    17    1
     8    17    18    1
     9    17    20    1
    10    20    21    1
    11    21    22    1
    12    22    23   ar
    13    23    24   ar
    14    24    25   ar
    15    25    26   ar
    16    26    27   ar
    17    27    28    1
    18    28    29   ar
    19    29    30   ar
    20    30    31   ar
    21    31    32   ar
    22     4     5    1
    23     5     6    1
    24     8    11    1
    25    11    12   ar
    26    12    13   ar
    27    13    14   ar
    28    14    15   ar
    29    15    16   ar
    30     6     1    1
    31    16    11   ar
    32    32    21    1
    33    27    22   ar
    34    32    28   ar
    35     9    10    1
    36    18    19    1
@<TRIPOS>MOLECULE
*****
 32 36 0 0 0
SMALL
GASTEIGER

@<TRIPOS>ATOM
      1 C           6.4382   -3.8685   22.5796 C.3     1  UNL1        0.0719
      2 C           5.0230   -3.8572   22.0824 C.3     1  UNL1        0.0197
      3 C           4.7101   -3.3057   20.7230 C.3     1  UNL1        0.0041
      4 C           5.8123   -2.7656   19.8609 C.3     1  UNL1        0.0271
      5 C           7.2275   -2.7769   20.3580 C.3     1  UNL1        0.0041
      6 C           7.5404   -3.3284   21.7174 C.3     1  UNL1        0.0197
      7 O           8.0980   -6.3535   22.8447 O.2     1  UNL1       -0.2701
      8 C           7.5811   -5.6624   24.0716 C.2     1  UNL1        0.2458
      9 N           6.7512   -4.4200   23.9390 N.am    1  UNL1       -0.3025
     10 H           6.4119   -3.9664   24.7442 H       1  UNL1        0.1497
     11 C           7.8940   -6.2138   25.4310 C.ar    1  UNL1        0.0534
     12 C           8.3631   -5.2976   26.5221 C.ar    1  UNL1        0.0045
     13 C           8.6761   -5.8489   27.8815 C.ar    1  UNL1        0.0001
     14 C           8.5200   -7.3164   28.1498 C.ar    1  UNL1        0.0000
     15 C           8.0508   -8.2327   27.0587 C.ar    1  UNL1        0.0001
     16 C           7.7379   -7.6813   25.6993 C.ar    1  UNL1        0.0045
     17 C           5.4994   -2.2141   18.5014 C.3     1  UNL1        0.1127
     18 O           6.5926   -2.0550   17.4868 O.3     1  UNL1       -0.3844
     19 H           6.2232   -1.6884   16.6682 H       1  UNL1        0.2103
     20 C           4.0932   -1.8218   18.1567 C.3     1  UNL1        0.0564
     21 C           3.5768   -0.4671   18.5414 C.3     1  UNL1        0.1119
     22 C           4.2086    0.8484   18.1945 C.ar    1  UNL1       -0.0002
     23 C           5.4467    1.1945   17.4218 C.ar    1  UNL1       -0.0024
     24 C           5.8365    2.6307   17.2338 C.ar    1  UNL1       -0.0003
     25 C           4.9882    3.7208   17.8185 C.ar    1  UNL1        0.0000
     26 C           3.7500    3.3747   18.5912 C.ar    1  UNL1        0.0012
     27 C           3.3602    1.9386   18.7792 C.ar    1  UNL1        0.0152
     28 C           2.2041    1.2968   19.4875 C.ar    1  UNL1        0.0804
     29 C           0.9653    1.5739   20.2866 C.ar    1  UNL1        0.1177
     30 N           0.3335    0.2583   20.6335 N.ar    1  UNL1       -0.2223
     31 C           1.1819   -0.8318   20.0487 C.ar    1  UNL1        0.1788
     32 N           2.3380   -0.1900   19.3405 N.ar    1  UNL1       -0.3069
@<TRIPOS>BOND
     1     7     8    2
     2     8     9   am
     3     1     9    1
     4     1     2    1
     5     2     3    1
     6     3     4    1
     7     4    17    1
     8    17    18    1
     9    17    20    1
    10    20    21    1
    11    21    22    1
    12    22    23   ar
    13    23    24   ar
    14    24    25   ar
    15    25    26   ar
    16    26    27   ar
    17    27    28    1
    18    28    29   ar
    19    29    30   ar
    20    30    31   ar
    21    31    32   ar
    22     4     5    1
    23     5     6    1
    24     8    11    1
    25    11    12   ar
    26    12    13   ar
    27    13    14   ar
    28    14    15   ar
    29    15    16   ar
    30     6     1    1
    31    16    11   ar
    32    32    21    1
    33    27    22   ar
    34    32    28   ar
    35     9    10    1
    36    18    19    1
@<TRIPOS>MOLECULE
*****
 32 36 0 0 0
SMALL
GASTEIGER

@<TRIPOS>ATOM
      1 C         -13.2543   -1.8196   19.1721 C.3     1  UNL1        0.0719
      2 C         -14.6241   -1.9393   19.7713 C.3     1  UNL1        0.0197
      3 C         -15.5816   -0.7875   19.6899 C.3     1  UNL1        0.0041
      4 C         -15.1691    0.4840   19.0093 C.3     1  UNL1        0.0271
      5 C         -13.7993    0.6037   18.4101 C.3     1  UNL1        0.0041
      6 C         -12.8418   -0.5481   18.4915 C.3     1  UNL1        0.0197
      7 O         -13.4610   -4.0835   17.2144 O.2     1  UNL1       -0.2701
      8 C         -12.4001   -4.1033   18.2746 C.2     1  UNL1        0.2458
      9 N         -12.2967   -2.9714   19.2534 N.am    1  UNL1       -0.3025
     10 H         -11.6004   -2.9844   19.9493 H       1  UNL1        0.1497
     11 C         -11.4425   -5.2550   18.3561 C.ar    1  UNL1        0.0534
     12 C         -11.7260   -6.5206   17.6026 C.ar    1  UNL1        0.0045
     13 C         -10.7684   -7.6724   17.6839 C.ar    1  UNL1        0.0001
     14 C          -9.5275   -7.5585   18.5189 C.ar    1  UNL1        0.0000
     15 C          -9.2440   -6.2928   19.2724 C.ar    1  UNL1        0.0001
     16 C         -10.2016   -5.1411   19.1910 C.ar    1  UNL1        0.0045
     17 C         -16.1266    1.6358   18.9279 C.3     1  UNL1        0.1127
     18 O         -17.3800    1.5130   18.1131 O.3     1  UNL1       -0.3844
     19 H         -17.8830    2.3407   18.1670 H       1  UNL1        0.2103
     20 C         -15.8306    2.9104   19.6613 C.3     1  UNL1        0.0564
     21 C         -16.3069    3.0920   21.0720 C.3     1  UNL1        0.1119
     22 C         -15.6597    3.9512   22.1174 C.ar    1  UNL1       -0.0002
     23 C         -14.4397    4.8233   22.0855 C.ar    1  UNL1       -0.0024
     24 C         -14.0268    5.5806   23.3127 C.ar    1  UNL1       -0.0003
     25 C         -14.8340    5.4658   24.5718 C.ar    1  UNL1        0.0000
     26 C         -16.0540    4.5938   24.6037 C.ar    1  UNL1        0.0012
     27 C         -16.4669    3.8365   23.3765 C.ar    1  UNL1        0.0152
     28 C         -17.6129    2.9063   23.1092 C.ar    1  UNL1        0.0804
     29 C         -18.8201    2.2605   23.7223 C.ar    1  UNL1        0.1177
     30 N         -19.4672    1.4013   22.6768 N.ar    1  UNL1       -0.2223
     31 C         -18.6601    1.5160   21.4177 C.ar    1  UNL1        0.1788
     32 N         -17.5141    2.4462   21.6850 N.ar    1  UNL1       -0.3069
@<TRIPOS>BOND
     1     7     8    2
     2     8     9   am
     3     1     9    1
     4     1     2    1
     5     2     3    1
     6     3     4    1
     7     4    17    1
     8    17    18    1
     9    17    20    1
    10    20    21    1
    11    21    22    1
    12    22    23   ar
    13    23    24   ar
    14    24    25   ar
    15    25    26   ar
    16    26    27   ar
    17    27    28    1
    18    28    29   ar
    19    29    30   ar
    20    30    31   ar
    21    31    32   ar
    22     4     5    1
    23     5     6    1
    24     8    11    1
    25    11    12   ar
    26    12    13   ar
    27    13    14   ar
    28    14    15   ar
    29    15    16   ar
    30     6     1    1
    31    16    11   ar
    32    32    21    1
    33    27    22   ar
    34    32    28   ar
    35     9    10    1
    36    18    19    1
@<TRIPOS>MOLECULE
*****
 32 36 0 0 0
SMALL
GASTEIGER

@<TRIPOS>ATOM
      1 C           1.5505    0.7514   20.7116 C.3     1  UNL1        0.0719
      2 C           2.5383    1.5559   19.9197 C.3     1  UNL1        0.0197
      3 C           3.4044    0.8833   18.8962 C.3     1  UNL1        0.0041
      4 C           3.2828   -0.5937   18.6647 C.3     1  UNL1        0.0271
      5 C           2.2950   -1.3982   19.4566 C.3     1  UNL1        0.0041
      6 C           1.4289   -0.7256   20.4801 C.3     1  UNL1        0.0197
      7 O           2.0179    0.2536   23.6329 O.2     1  UNL1       -0.2701
      8 C           0.9180    1.1751   23.1957 C.2     1  UNL1        0.2458
      9 N           0.6843    1.4239   21.7350 N.am    1  UNL1       -0.3025
     10 H          -0.0376    2.0287   21.4481 H       1  UNL1        0.1497
     11 C           0.0518    1.8476   24.2191 C.ar    1  UNL1        0.0534
     12 C          -0.8245    2.9980   23.8205 C.ar    1  UNL1        0.0045
     13 C          -1.6908    3.6706   24.8439 C.ar    1  UNL1        0.0001
     14 C          -1.6807    3.1928   26.2657 C.ar    1  UNL1        0.0000
     15 C          -0.8044    2.0424   26.6643 C.ar    1  UNL1        0.0001
     16 C           0.0618    1.3698   25.6409 C.ar    1  UNL1        0.0045
     17 C           4.1489   -1.2663   17.6413 C.3     1  UNL1        0.1127
     18 O           3.7333   -1.2812   16.2001 O.3     1  UNL1       -0.3844
     19 H           4.3998   -1.7527   15.6763 H       1  UNL1        0.2103
     20 C           5.4307   -1.9241   18.0591 C.3     1  UNL1        0.0564
     21 C           6.0413   -1.5993   19.3902 C.3     1  UNL1        0.1119
     22 C           5.7162   -2.2639   20.6950 C.ar    1  UNL1       -0.0002
     23 C           4.7623   -3.3658   21.0499 C.ar    1  UNL1       -0.0024
     24 C           4.6504   -3.8320   22.4712 C.ar    1  UNL1       -0.0003
     25 C           5.4922   -3.1963   23.5376 C.ar    1  UNL1        0.0000
     26 C           6.4461   -2.0944   23.1827 C.ar    1  UNL1        0.0012
     27 C           6.5580   -1.6282   21.7614 C.ar    1  UNL1        0.0152
     28 C           7.4034   -0.5707   21.1156 C.ar    1  UNL1        0.0804
     29 C           8.4463    0.4758   21.3755 C.ar    1  UNL1        0.1177
     30 N           8.7713    1.1403   20.0706 N.ar    1  UNL1       -0.2223
     31 C           7.9294    0.5047   19.0043 C.ar    1  UNL1        0.1788
     32 N           7.0840   -0.5528   19.6501 N.ar    1  UNL1       -0.3069
@<TRIPOS>BOND
     1     7     8    2
     2     8     9   am
     3     1     9    1
     4     1     2    1
     5     2     3    1
     6     3     4    1
     7     4    17    1
     8    17    18    1
     9    17    20    1
    10    20    21    1
    11    21    22    1
    12    22    23   ar
    13    23    24   ar
    14    24    25   ar
    15    25    26   ar
    16    26    27   ar
    17    27    28    1
    18    28    29   ar
    19    29    30   ar
    20    30    31   ar
    21    31    32   ar
    22     4     5    1
    23     5     6    1
    24     8    11    1
    25    11    12   ar
    26    12    13   ar
    27    13    14   ar
    28    14    15   ar
    29    15    16   ar
    30     6     1    1
    31    16    11   ar
    32    32    21    1
    33    27    22   ar
    34    32    28   ar
    35     9    10    1
    36    18    19    1
@<TRIPOS>MOLECULE
*****
 32 36 0 0 0
SMALL
GASTEIGER

@<TRIPOS>ATOM
      1 C           6.9265   -3.6757   20.2407 C.3     1  UNL1        0.0719
      2 C           5.5520   -3.9750   19.7202 C.3     1  UNL1        0.0197
      3 C           4.8689   -3.0031   18.8043 C.3     1  UNL1        0.0041
      4 C           5.5603   -1.7321   18.4090 C.3     1  UNL1        0.0271
      5 C           6.9349   -1.4328   18.9295 C.3     1  UNL1        0.0041
      6 C           7.6180   -2.4047   19.8453 C.3     1  UNL1        0.0197
      7 O           6.2840   -3.6812   23.1711 O.2     1  UNL1       -0.2701
      8 C           7.2885   -4.6503   22.6218 C.2     1  UNL1        0.2458
      9 N           7.6097   -4.6476   21.1566 N.am    1  UNL1       -0.3025
     10 H           8.2690   -5.2836   20.7960 H       1  UNL1        0.1497
     11 C           7.9717   -5.6221   23.5376 C.ar    1  UNL1        0.0534
     12 C           7.7747   -5.5202   25.0210 C.ar    1  UNL1        0.0045
     13 C           8.4579   -6.4920   25.9370 C.ar    1  UNL1        0.0001
     14 C           9.3381   -7.5657   25.3693 C.ar    1  UNL1        0.0000
     15 C           9.5352   -7.6678   23.8857 C.ar    1  UNL1        0.0001
     16 C           8.8519   -6.6959   22.9699 C.ar    1  UNL1        0.0045
     17 C           4.8772   -0.7602   17.4931 C.3     1  UNL1        0.1127
     18 O           4.0441   -1.2637   16.3518 O.3     1  UNL1       -0.3844
     19 H           3.6769   -0.5108   15.8628 H       1  UNL1        0.2103
     20 C           5.0272    0.7152   17.7184 C.3     1  UNL1        0.0564
     21 C           3.8683    1.5171   18.2322 C.3     1  UNL1        0.1119
     22 C           2.6937    0.9800   18.9949 C.ar    1  UNL1       -0.0002
     23 C           2.3381   -0.4059   19.4452 C.ar    1  UNL1       -0.0024
     24 C           1.0687   -0.6441   20.2081 C.ar    1  UNL1       -0.0003
     25 C           0.1550    0.5037   20.5207 C.ar    1  UNL1        0.0000
     26 C           0.5106    1.8896   20.0704 C.ar    1  UNL1        0.0012
     27 C           1.7799    2.1277   19.3075 C.ar    1  UNL1        0.0152
     28 C           2.3899    3.3742   18.7380 C.ar    1  UNL1        0.0804
     29 C           2.2020    4.8539   18.5792 C.ar    1  UNL1        0.1177
     30 N           3.3767    5.3910   17.8164 N.ar    1  UNL1       -0.2223
     31 C           4.2905    4.2432   17.5038 C.ar    1  UNL1        0.1788
     32 N           3.6805    2.9968   18.0734 N.ar    1  UNL1       -0.3069
@<TRIPOS>BOND
     1     7     8    2
     2     8     9   am
     3     1     9    1
     4     1     2    1
     5     2     3    1
     6     3     4    1
     7     4    17    1
     8    17    18    1
     9    17    20    1
    10    20    21    1
    11    21    22    1
    12    22    23   ar
    13    23    24   ar
    14    24    25   ar
    15    25    26   ar
    16    26    27   ar
    17    27    28    1
    18    28    29   ar
    19    29    30   ar
    20    30    31   ar
    21    31    32   ar
    22     4     5    1
    23     5     6    1
    24     8    11    1
    25    11    12   ar
    26    12    13   ar
    27    13    14   ar
    28    14    15   ar
    29    15    16   ar
    30     6     1    1
    31    16    11   ar
    32    32    21    1
    33    27    22   ar
    34    32    28   ar
    35     9    10    1
    36    18    19    1
@<TRIPOS>MOLECULE
*****
 32 36 0 0 0
SMALL
GASTEIGER

@<TRIPOS>ATOM
      1 C          -9.3300  -16.3809   23.7364 C.3     1  UNL1        0.0719
      2 C          -8.5490  -15.8405   24.8974 C.3     1  UNL1        0.0197
      3 C          -7.0716  -15.6158   24.7679 C.3     1  UNL1        0.0041
      4 C          -6.3753  -15.9315   23.4774 C.3     1  UNL1        0.0271
      5 C          -7.1562  -16.4719   22.3164 C.3     1  UNL1        0.0041
      6 C          -8.6336  -16.6965   22.4459 C.3     1  UNL1        0.0197
      7 O         -10.4257  -19.1735   23.7670 O.2     1  UNL1       -0.2701
      8 C         -11.3553  -18.0019   23.8811 C.2     1  UNL1        0.2458
      9 N         -10.8074  -16.6056   23.8658 N.am    1  UNL1       -0.3025
     10 H         -11.4176  -15.8366   23.9407 H       1  UNL1        0.1497
     11 C         -12.8327  -18.2265   24.0106 C.ar    1  UNL1        0.0534
     12 C         -13.4432  -18.4386   25.3641 C.ar    1  UNL1        0.0045
     13 C         -14.9207  -18.6633   25.4936 C.ar    1  UNL1        0.0001
     14 C         -15.7875  -18.6758   24.2695 C.ar    1  UNL1        0.0000
     15 C         -15.1769  -18.4636   22.9159 C.ar    1  UNL1        0.0001
     16 C         -13.6995  -18.2390   22.7864 C.ar    1  UNL1        0.0045
     17 C          -4.8978  -15.7068   23.3479 C.3     1  UNL1        0.1127
     18 O          -4.3695  -14.3288   23.0795 O.3     1  UNL1       -0.3844
     19 H          -3.4014  -14.3587   23.0250 H       1  UNL1        0.2103
     20 C          -3.9488  -16.8601   23.4868 C.3     1  UNL1        0.0564
     21 C          -3.5897  -17.6847   22.2863 C.3     1  UNL1        0.1119
     22 C          -4.3632  -18.8564   21.7582 C.ar    1  UNL1       -0.0002
     23 C          -5.6282  -19.5155   22.2224 C.ar    1  UNL1       -0.0024
     24 C          -6.1756  -20.6964   21.4770 C.ar    1  UNL1       -0.0003
     25 C          -5.4581  -21.2183   20.2675 C.ar    1  UNL1        0.0000
     26 C          -4.1932  -20.5592   19.8034 C.ar    1  UNL1        0.0012
     27 C          -3.6457  -19.3782   20.5487 C.ar    1  UNL1        0.0152
     28 C          -2.4288  -18.5291   20.3294 C.ar    1  UNL1        0.0804
     29 C          -1.2333  -18.3268   19.4462 C.ar    1  UNL1        0.1177
     30 N          -0.4598  -17.1551   19.9745 N.ar    1  UNL1       -0.2223
     31 C          -1.1773  -16.6333   21.1840 C.ar    1  UNL1        0.1788
     32 N          -2.3942  -17.4824   21.4033 N.ar    1  UNL1       -0.3069
@<TRIPOS>BOND
     1     7     8    2
     2     8     9   am
     3     1     9    1
     4     1     2    1
     5     2     3    1
     6     3     4    1
     7     4    17    1
     8    17    18    1
     9    17    20    1
    10    20    21    1
    11    21    22    1
    12    22    23   ar
    13    23    24   ar
    14    24    25   ar
    15    25    26   ar
    16    26    27   ar
    17    27    28    1
    18    28    29   ar
    19    29    30   ar
    20    30    31   ar
    21    31    32   ar
    22     4     5    1
    23     5     6    1
    24     8    11    1
    25    11    12   ar
    26    12    13   ar
    27    13    14   ar
    28    14    15   ar
    29    15    16   ar
    30     6     1    1
    31    16    11   ar
    32    32    21    1
    33    27    22   ar
    34    32    28   ar
    35     9    10    1
    36    18    19    1
@<TRIPOS>MOLECULE
*****
 32 36 0 0 0
SMALL
GASTEIGER

@<TRIPOS>ATOM
      1 C           6.7760   -3.6542   20.3162 C.3     1  UNL1        0.0719
      2 C           5.4148   -4.0518   19.8274 C.3     1  UNL1        0.0197
      3 C           4.6415   -3.1310   18.9307 C.3     1  UNL1        0.0041
      4 C           5.2294   -1.8127   18.5228 C.3     1  UNL1        0.0271
      5 C           6.5906   -1.4151   19.0116 C.3     1  UNL1        0.0041
      6 C           7.3639   -2.3359   19.9083 C.3     1  UNL1        0.0197
      7 O           6.1085   -3.8145   23.2367 O.2     1  UNL1       -0.2701
      8 C           7.2157   -4.6551   22.6732 C.2     1  UNL1        0.2458
      9 N           7.5494   -4.5749   21.2130 N.am    1  UNL1       -0.3025
     10 H           8.2761   -5.1266   20.8431 H       1  UNL1        0.1497
     11 C           7.9892   -5.5758   23.5698 C.ar    1  UNL1        0.0534
     12 C           7.9894   -5.3528   25.0531 C.ar    1  UNL1        0.0045
     13 C           8.7629   -6.2735   25.9499 C.ar    1  UNL1        0.0001
     14 C           9.5360   -7.4172   25.3632 C.ar    1  UNL1        0.0000
     15 C           9.5357   -7.6403   23.8799 C.ar    1  UNL1        0.0001
     16 C           8.7623   -6.7195   22.9832 C.ar    1  UNL1        0.0045
     17 C           4.4560   -0.8919   17.6260 C.3     1  UNL1        0.1127
     18 O           3.9103   -1.3971   16.3234 O.3     1  UNL1       -0.3844
     19 H           3.4404   -0.6799   15.8698 H       1  UNL1        0.2103
     20 C           4.2284    0.5341   18.0320 C.3     1  UNL1        0.0564
     21 C           3.6810    0.8483   19.3928 C.3     1  UNL1        0.1119
     22 C           4.4626    1.3848   20.5552 C.ar    1  UNL1       -0.0002
     23 C           5.9104    1.7448   20.7107 C.ar    1  UNL1       -0.0024
     24 C           6.4162    2.2692   22.0218 C.ar    1  UNL1       -0.0003
     25 C           5.4741    2.4337   23.1775 C.ar    1  UNL1        0.0000
     26 C           4.0264    2.0737   23.0220 C.ar    1  UNL1        0.0012
     27 C           3.5206    1.5492   21.7109 C.ar    1  UNL1        0.0152
     28 C           2.1568    1.1144   21.2626 C.ar    1  UNL1        0.0804
     29 C           0.7316    0.9472   21.6999 C.ar    1  UNL1        0.1177
     30 N          -0.0500    0.4108   20.5373 N.ar    1  UNL1       -0.2223
     31 C           0.8921    0.2463   19.3817 C.ar    1  UNL1        0.1788
     32 N           2.2559    0.6812   19.8299 N.ar    1  UNL1       -0.3069
@<TRIPOS>BOND
     1     7     8    2
     2     8     9   am
     3     1     9    1
     4     1     2    1
     5     2     3    1
     6     3     4    1
     7     4    17    1
     8    17    18    1
     9    17    20    1
    10    20    21    1
    11    21    22    1
    12    22    23   ar
    13    23    24   ar
    14    24    25   ar
    15    25    26   ar
    16    26    27   ar
    17    27    28    1
    18    28    29   ar
    19    29    30   ar
    20    30    31   ar
    21    31    32   ar
    22     4     5    1
    23     5     6    1
    24     8    11    1
    25    11    12   ar
    26    12    13   ar
    27    13    14   ar
    28    14    15   ar
    29    15    16   ar
    30     6     1    1
    31    16    11   ar
    32    32    21    1
    33    27    22   ar
    34    32    28   ar
    35     9    10    1
    36    18    19    1
