@<TRIPOS>MOLECULE
*****
 30 33 0 0 0
SMALL
GASTEIGER

@<TRIPOS>ATOM
      1 C           7.6002   -4.6752   26.9697 C.ar    1  UNL1        0.1739
      2 C           6.8695   -3.9050   25.9101 C.ar    1  UNL1        0.0593
      3 C           7.1028   -4.2161   24.4613 C.ar    1  UNL1        0.0901
      4 N           6.3720   -3.4458   23.4017 N.ar    1  UNL1       -0.2134
      5 C           6.6053   -3.7569   21.9530 C.ar    1  UNL1        0.2214
      6 N           7.5694   -4.8382   21.5639 N.ar    1  UNL1       -0.1991
      7 C           8.3002   -5.6084   22.6235 C.ar    1  UNL1        0.1298
      8 N           9.2642   -6.6896   22.2344 N.pl3   1  UNL1       -0.3425
      9 C           8.0668   -5.2973   24.0722 C.ar    1  UNL1        0.0522
     10 C           8.7975   -6.0675   25.1318 C.ar    1  UNL1        0.0443
     11 C           8.5642   -5.7565   26.5805 C.ar    1  UNL1        0.1726
     12 H           9.4173   -6.8938   21.2835 H       1  UNL1        0.1437
     13 H           9.7438   -7.1952   22.9298 H       1  UNL1        0.1437
     14 N           5.8746   -2.9867   20.8934 N.pl3   1  UNL1       -0.2747
     15 C           4.9606   -1.8618   21.2796 C.3     1  UNL1        0.1151
     16 C           4.2299   -1.0916   20.2199 C.3     1  UNL1        0.1153
     17 N           4.4132   -1.4463   18.7741 N.am    1  UNL1       -0.2701
     18 C           3.6825   -0.6761   17.7145 C.2     1  UNL1        0.2839
     19 O           3.8657   -1.0307   16.2685 O.2     1  UNL1       -0.2666
     20 C           5.3272   -2.5711   18.3878 C.3     1  UNL1        0.1153
     21 C           6.0579   -3.3413   19.4474 C.3     1  UNL1        0.1151
     22 C           2.7684    0.4488   18.1007 C.ar    1  UNL1        0.1987
     23 C           3.1795    1.8661   18.3699 C.ar    1  UNL1        0.0455
     24 C           1.9479    2.6471   18.7211 C.ar    1  UNL1        0.0440
     25 C           0.7758    1.7126   18.6691 C.ar    1  UNL1        0.1798
     26 O           1.2829    0.3540   18.2857 O.2     1  UNL1       -0.4458
     27 C           6.5631   -5.3040   29.2673 C.3     1  UNL1        0.2526
     28 O           7.3669   -4.3641   28.4184 O.3     1  UNL1       -0.4683
     29 O           9.2950   -6.5267   27.6402 O.3     1  UNL1       -0.4684
     30 C           8.8902   -7.9360   27.9566 C.3     1  UNL1        0.2526
@<TRIPOS>BOND
     1    27    28    1
     2    28     1    1
     3     1     2   ar
     4     2     3   ar
     5     3     4   ar
     6     4     5   ar
     7     5    14    1
     8    14    15    1
     9    15    16    1
    10    16    17    1
    11    17    18   am
    12    18    19    2
    13    18    22    1
    14    22    23   ar
    15    23    24   ar
    16    24    25   ar
    17    25    26   ar
    18    17    20    1
    19    20    21    1
    20     5     6   ar
    21     6     7   ar
    22     7     8    1
    23     7     9   ar
    24     9    10   ar
    25    10    11   ar
    26    11    29    1
    27    29    30    1
    28    11     1   ar
    29     9     3   ar
    30    21    14    1
    31    26    22   ar
    32     8    12    1
    33     8    13    1
@<TRIPOS>MOLECULE
*****
 30 33 0 0 0
SMALL
GASTEIGER

@<TRIPOS>ATOM
      1 C           4.3317   -2.6000   20.5971 C.ar    1  UNL1        0.1739
      2 C           4.3550   -2.7374   22.0906 C.ar    1  UNL1        0.0593
      3 C           5.5273   -3.3851   22.7659 C.ar    1  UNL1        0.0901
      4 N           5.5505   -3.5225   24.2595 N.ar    1  UNL1       -0.2134
      5 C           6.7228   -4.1703   24.9349 C.ar    1  UNL1        0.2214
      6 N           7.8718   -4.6807   24.1167 N.ar    1  UNL1       -0.1991
      7 C           7.8485   -4.5433   22.6232 C.ar    1  UNL1        0.1298
      8 N           8.9975   -5.0537   21.8051 N.pl3   1  UNL1       -0.3425
      9 C           6.6762   -3.8955   21.9478 C.ar    1  UNL1        0.0522
     10 C           6.6529   -3.7581   20.4544 C.ar    1  UNL1        0.0443
     11 C           5.4806   -3.1104   19.7790 C.ar    1  UNL1        0.1726
     12 H           9.7669   -5.4788   22.2484 H       1  UNL1        0.1437
     13 H           8.9822   -4.9635   20.8249 H       1  UNL1        0.1437
     14 N           6.7462   -4.3077   26.4284 N.pl3   1  UNL1       -0.2747
     15 C           6.6760   -3.0855   27.2952 C.3     1  UNL1        0.1151
     16 C           6.6993   -3.2229   28.7887 C.3     1  UNL1        0.1153
     17 N           6.7928   -4.5825   29.4154 N.am    1  UNL1       -0.2701
     18 C           6.8161   -4.7199   30.9089 C.2     1  UNL1        0.2839
     19 O           6.9096   -6.0795   31.5356 O.2     1  UNL1       -0.2666
     20 C           6.8630   -5.8047   28.5486 C.3     1  UNL1        0.1153
     21 C           6.8396   -5.6673   27.0551 C.3     1  UNL1        0.1151
     22 C           6.7460   -3.4977   31.7757 C.ar    1  UNL1        0.1987
     23 C           7.9169   -2.7244   32.3058 C.ar    1  UNL1        0.0455
     24 C           7.3871   -1.5830   33.1223 C.ar    1  UNL1        0.0440
     25 C           5.8889   -1.6509   33.0968 C.ar    1  UNL1        0.1798
     26 O           5.4926   -2.8343   32.2645 O.2     1  UNL1       -0.4458
     27 C           2.3461   -0.9254   20.6525 C.3     1  UNL1        0.2526
     28 O           3.1594   -1.9522   19.9217 O.3     1  UNL1       -0.4683
     29 O           5.4573   -2.9730   18.2854 O.3     1  UNL1       -0.4684
     30 C           5.8832   -1.6857   17.6440 C.3     1  UNL1        0.2526
@<TRIPOS>BOND
     1    27    28    1
     2    28     1    1
     3     1     2   ar
     4     2     3   ar
     5     3     4   ar
     6     4     5   ar
     7     5    14    1
     8    14    15    1
     9    15    16    1
    10    16    17    1
    11    17    18   am
    12    18    19    2
    13    18    22    1
    14    22    23   ar
    15    23    24   ar
    16    24    25   ar
    17    25    26   ar
    18    17    20    1
    19    20    21    1
    20     5     6   ar
    21     6     7   ar
    22     7     8    1
    23     7     9   ar
    24     9    10   ar
    25    10    11   ar
    26    11    29    1
    27    29    30    1
    28    11     1   ar
    29     9     3   ar
    30    21    14    1
    31    26    22   ar
    32     8    12    1
    33     8    13    1
@<TRIPOS>MOLECULE
*****
 30 33 0 0 0
SMALL
GASTEIGER

@<TRIPOS>ATOM
      1 C           4.2967   -2.1085   19.4202 C.ar    1  UNL1        0.1739
      2 C           4.5089   -2.8192   20.7240 C.ar    1  UNL1        0.0593
      3 C           5.8715   -3.3311   21.0861 C.ar    1  UNL1        0.0901
      4 N           6.0837   -4.0419   22.3899 N.ar    1  UNL1       -0.2134
      5 C           7.4463   -4.5537   22.7520 C.ar    1  UNL1        0.2214
      6 N           8.5969   -4.3548   21.8103 N.ar    1  UNL1       -0.1991
      7 C           8.3847   -3.6441   20.5065 C.ar    1  UNL1        0.1298
      8 N           9.5352   -3.4452   19.5649 N.pl3   1  UNL1       -0.3425
      9 C           7.0221   -3.1322   20.1444 C.ar    1  UNL1        0.0522
     10 C           6.8099   -2.4215   18.8407 C.ar    1  UNL1        0.0443
     11 C           5.4472   -1.9096   18.4786 C.ar    1  UNL1        0.1726
     12 H          10.4296   -3.7812   19.8026 H       1  UNL1        0.1437
     13 H           9.3960   -2.9788   18.7092 H       1  UNL1        0.1437
     14 N           7.6585   -5.2645   24.0557 N.pl3   1  UNL1       -0.2747
     15 C           7.5234   -4.5161   25.3486 C.3     1  UNL1        0.1151
     16 C           7.7355   -5.2269   26.6524 C.3     1  UNL1        0.1153
     17 N           8.0828   -6.6860   26.6633 N.am    1  UNL1       -0.2701
     18 C           8.2950   -7.3968   27.9670 C.2     1  UNL1        0.2839
     19 O           8.6422   -8.8560   27.9779 O.2     1  UNL1       -0.2666
     20 C           8.2179   -7.4345   25.3704 C.3     1  UNL1        0.1153
     21 C           8.0058   -6.7237   24.0666 C.3     1  UNL1        0.1151
     22 C           8.1598   -6.6484   29.2599 C.ar    1  UNL1        0.1987
     23 C           9.2336   -6.4707   30.2922 C.ar    1  UNL1        0.0455
     24 C           8.6646   -5.6587   31.4178 C.ar    1  UNL1        0.0440
     25 C           7.2392   -5.3345   31.0812 C.ar    1  UNL1        0.1798
     26 O           6.9273   -5.9462   29.7475 O.2     1  UNL1       -0.4458
     27 C           2.0617   -0.9773   20.1095 C.3     1  UNL1        0.2526
     28 O           2.9341   -1.5966   19.0581 O.3     1  UNL1       -0.4683
     29 O           5.2351   -1.1988   17.1748 O.3     1  UNL1       -0.4684
     30 C           5.4623    0.2809   17.0816 C.3     1  UNL1        0.2526
@<TRIPOS>BOND
     1    27    28    1
     2    28     1    1
     3     1     2   ar
     4     2     3   ar
     5     3     4   ar
     6     4     5   ar
     7     5    14    1
     8    14    15    1
     9    15    16    1
    10    16    17    1
    11    17    18   am
    12    18    19    2
    13    18    22    1
    14    22    23   ar
    15    23    24   ar
    16    24    25   ar
    17    25    26   ar
    18    17    20    1
    19    20    21    1
    20     5     6   ar
    21     6     7   ar
    22     7     8    1
    23     7     9   ar
    24     9    10   ar
    25    10    11   ar
    26    11    29    1
    27    29    30    1
    28    11     1   ar
    29     9     3   ar
    30    21    14    1
    31    26    22   ar
    32     8    12    1
    33     8    13    1
@<TRIPOS>MOLECULE
*****
 30 33 0 0 0
SMALL
GASTEIGER

@<TRIPOS>ATOM
      1 C           6.8952   -4.5803   28.6666 C.ar    1  UNL1        0.1739
      2 C           6.5783   -3.8271   27.4088 C.ar    1  UNL1        0.0593
      3 C           6.9392   -4.4097   26.0745 C.ar    1  UNL1        0.0901
      4 N           6.6222   -3.6563   24.8167 N.ar    1  UNL1       -0.2134
      5 C           6.9831   -4.2389   23.4824 C.ar    1  UNL1        0.2214
      6 N           7.6610   -5.5749   23.4059 N.ar    1  UNL1       -0.1991
      7 C           7.9779   -6.3281   24.6637 C.ar    1  UNL1        0.1298
      8 N           8.6558   -7.6640   24.5872 N.pl3   1  UNL1       -0.3425
      9 C           7.6170   -5.7455   25.9980 C.ar    1  UNL1        0.0522
     10 C           7.9340   -6.4988   27.2558 C.ar    1  UNL1        0.0443
     11 C           7.5731   -5.9162   28.5901 C.ar    1  UNL1        0.1726
     12 H           8.8927   -8.0464   23.7115 H       1  UNL1        0.1437
     13 H           8.8638   -8.1584   25.4127 H       1  UNL1        0.1437
     14 N           6.6661   -3.4856   22.2246 N.pl3   1  UNL1       -0.2747
     15 C           5.5514   -2.4820   22.2121 C.3     1  UNL1        0.1151
     16 C           5.2345   -1.7287   20.9543 C.3     1  UNL1        0.1153
     17 N           6.0323   -1.9791   19.7089 N.am    1  UNL1       -0.2701
     18 C           5.7153   -1.2258   18.4511 C.2     1  UNL1        0.2839
     19 O           6.5131   -1.4761   17.2057 O.2     1  UNL1       -0.2666
     20 C           7.1469   -2.9827   19.7214 C.3     1  UNL1        0.1153
     21 C           7.4639   -3.7360   20.9792 C.3     1  UNL1        0.1151
     22 C           4.6006   -0.2221   18.4387 C.ar    1  UNL1        0.1987
     23 C           3.1610   -0.5071   18.1280 C.ar    1  UNL1        0.0455
     24 C           2.4005    0.7816   18.2320 C.ar    1  UNL1        0.0440
     25 C           3.3700    1.8630   18.6070 C.ar    1  UNL1        0.1798
     26 O           4.7297    1.2427   18.7347 O.2     1  UNL1       -0.4458
     27 C           6.5371   -2.5104   30.1954 C.3     1  UNL1        0.2526
     28 O           6.5343   -3.9977   30.0009 O.3     1  UNL1       -0.4683
     29 O           7.8901   -6.6696   29.8479 O.3     1  UNL1       -0.4684
     30 C           9.3161   -6.8400   30.2808 C.3     1  UNL1        0.2526
@<TRIPOS>BOND
     1    27    28    1
     2    28     1    1
     3     1     2   ar
     4     2     3   ar
     5     3     4   ar
     6     4     5   ar
     7     5    14    1
     8    14    15    1
     9    15    16    1
    10    16    17    1
    11    17    18   am
    12    18    19    2
    13    18    22    1
    14    22    23   ar
    15    23    24   ar
    16    24    25   ar
    17    25    26   ar
    18    17    20    1
    19    20    21    1
    20     5     6   ar
    21     6     7   ar
    22     7     8    1
    23     7     9   ar
    24     9    10   ar
    25    10    11   ar
    26    11    29    1
    27    29    30    1
    28    11     1   ar
    29     9     3   ar
    30    21    14    1
    31    26    22   ar
    32     8    12    1
    33     8    13    1
@<TRIPOS>MOLECULE
*****
 30 33 0 0 0
SMALL
GASTEIGER

@<TRIPOS>ATOM
      1 C           2.4187    0.6084   31.2268 C.ar    1  UNL1        0.1739
      2 C           2.2012    0.5373   29.7444 C.ar    1  UNL1        0.0593
      3 C           3.1739   -0.2072   28.8786 C.ar    1  UNL1        0.0901
      4 N           2.9564   -0.2782   27.3961 N.ar    1  UNL1       -0.2134
      5 C           3.9290   -1.0227   26.5302 C.ar    1  UNL1        0.2214
      6 N           5.1192   -1.6962   27.1469 N.ar    1  UNL1       -0.1991
      7 C           5.3366   -1.6251   28.6293 C.ar    1  UNL1        0.1298
      8 N           6.5267   -2.2984   29.2459 N.pl3   1  UNL1       -0.3425
      9 C           4.3640   -0.8806   29.4951 C.ar    1  UNL1        0.0522
     10 C           4.5814   -0.8095   30.9776 C.ar    1  UNL1        0.0443
     11 C           3.6087   -0.0650   31.8434 C.ar    1  UNL1        0.1726
     12 H           7.1651   -2.7871   28.6776 H       1  UNL1        0.1437
     13 H           6.6694   -2.2518   30.2188 H       1  UNL1        0.1437
     14 N           3.7116   -1.0938   25.0478 N.pl3   1  UNL1       -0.2747
     15 C           4.4902   -2.0744   24.2217 C.3     1  UNL1        0.1151
     16 C           4.2727   -2.1454   22.7392 C.3     1  UNL1        0.1153
     17 N           3.2767   -1.2360   22.0829 N.am    1  UNL1       -0.2701
     18 C           3.0593   -1.3071   20.6004 C.2     1  UNL1        0.2839
     19 O           2.0632   -0.3976   19.9440 O.2     1  UNL1       -0.2666
     20 C           2.4981   -0.2555   22.9089 C.3     1  UNL1        0.1153
     21 C           2.7156   -0.1844   24.3914 C.3     1  UNL1        0.1151
     22 C           3.8379   -2.2876   19.7744 C.ar    1  UNL1        0.1987
     23 C           3.4250   -3.6935   19.4530 C.ar    1  UNL1        0.0455
     24 C           4.4980   -4.3092   18.6046 C.ar    1  UNL1        0.0440
     25 C           5.5740   -3.2839   18.4017 C.ar    1  UNL1        0.1798
     26 O           5.1660   -2.0345   19.1247 O.2     1  UNL1       -0.4458
     27 C           1.7270    2.7726   32.4869 C.3     1  UNL1        0.2526
     28 O           1.4460    1.3529   32.0927 O.3     1  UNL1       -0.4683
     29 O           3.8262    0.0061   33.3259 O.3     1  UNL1       -0.4684
     30 C           4.2906   -1.2078   34.0748 C.3     1  UNL1        0.2526
@<TRIPOS>BOND
     1    27    28    1
     2    28     1    1
     3     1     2   ar
     4     2     3   ar
     5     3     4   ar
     6     4     5   ar
     7     5    14    1
     8    14    15    1
     9    15    16    1
    10    16    17    1
    11    17    18   am
    12    18    19    2
    13    18    22    1
    14    22    23   ar
    15    23    24   ar
    16    24    25   ar
    17    25    26   ar
    18    17    20    1
    19    20    21    1
    20     5     6   ar
    21     6     7   ar
    22     7     8    1
    23     7     9   ar
    24     9    10   ar
    25    10    11   ar
    26    11    29    1
    27    29    30    1
    28    11     1   ar
    29     9     3   ar
    30    21    14    1
    31    26    22   ar
    32     8    12    1
    33     8    13    1
@<TRIPOS>MOLECULE
*****
 30 33 0 0 0
SMALL
GASTEIGER

@<TRIPOS>ATOM
      1 C          -5.4248    4.3479   21.0841 C.ar    1  UNL1        0.1739
      2 C          -4.3687    3.5355   20.3952 C.ar    1  UNL1        0.0593
      3 C          -3.0460    3.3033   21.0636 C.ar    1  UNL1        0.0901
      4 N          -1.9899    2.4909   20.3746 N.ar    1  UNL1       -0.2134
      5 C          -0.6673    2.2587   21.0429 C.ar    1  UNL1        0.2214
      6 N          -0.4008    2.8389   22.4003 N.ar    1  UNL1       -0.1991
      7 C          -1.4568    3.6513   23.0892 C.ar    1  UNL1        0.1298
      8 N          -1.1903    4.2315   24.4465 N.pl3   1  UNL1       -0.3425
      9 C          -2.7795    3.8835   22.4209 C.ar    1  UNL1        0.0522
     10 C          -3.8356    4.6959   23.1098 C.ar    1  UNL1        0.0443
     11 C          -5.1582    4.9281   22.4414 C.ar    1  UNL1        0.1726
     12 H          -0.3222    4.0791   24.8852 H       1  UNL1        0.1437
     13 H          -1.8834    4.7647   24.8987 H       1  UNL1        0.1437
     14 N           0.3888    1.4463   20.3540 N.pl3   1  UNL1       -0.2747
     15 C           0.9959    0.2627   21.0473 C.3     1  UNL1        0.1151
     16 C           2.0520   -0.5497   20.3583 C.3     1  UNL1        0.1153
     17 N           2.5010   -0.1786   18.9761 N.am    1  UNL1       -0.2701
     18 C           3.5571   -0.9910   18.2872 C.2     1  UNL1        0.2839
     19 O           4.0061   -0.6199   16.9048 O.2     1  UNL1       -0.2666
     20 C           1.8939    1.0050   18.2828 C.3     1  UNL1        0.1153
     21 C           0.8378    1.8174   18.9717 C.3     1  UNL1        0.1151
     22 C           4.1642   -2.1745   18.9805 C.ar    1  UNL1        0.1987
     23 C           3.6121   -3.5692   18.9907 C.ar    1  UNL1        0.0455
     24 C           4.5367   -4.4278   19.8019 C.ar    1  UNL1        0.0440
     25 C           5.6602   -3.5637   20.2930 C.ar    1  UNL1        0.1798
     26 O           5.4300   -2.1711   19.7854 O.2     1  UNL1       -0.4458
     27 C          -6.9785    4.0865   19.0183 C.3     1  UNL1        0.2526
     28 O          -6.7474    4.5801   20.4158 O.3     1  UNL1       -0.4683
     29 O          -6.2143    5.7406   23.1304 O.3     1  UNL1       -0.4684
     30 C          -7.2961    5.0561   23.9122 C.3     1  UNL1        0.2526
@<TRIPOS>BOND
     1    27    28    1
     2    28     1    1
     3     1     2   ar
     4     2     3   ar
     5     3     4   ar
     6     4     5   ar
     7     5    14    1
     8    14    15    1
     9    15    16    1
    10    16    17    1
    11    17    18   am
    12    18    19    2
    13    18    22    1
    14    22    23   ar
    15    23    24   ar
    16    24    25   ar
    17    25    26   ar
    18    17    20    1
    19    20    21    1
    20     5     6   ar
    21     6     7   ar
    22     7     8    1
    23     7     9   ar
    24     9    10   ar
    25    10    11   ar
    26    11    29    1
    27    29    30    1
    28    11     1   ar
    29     9     3   ar
    30    21    14    1
    31    26    22   ar
    32     8    12    1
    33     8    13    1
@<TRIPOS>MOLECULE
*****
 30 33 0 0 0
SMALL
GASTEIGER

@<TRIPOS>ATOM
      1 C           2.4240   -0.5860   20.1601 C.ar    1  UNL1        0.1739
      2 C           2.1880   -0.2786   21.6091 C.ar    1  UNL1        0.0593
      3 C           3.0873   -0.8654   22.6565 C.ar    1  UNL1        0.0901
      4 N           2.8513   -0.5580   24.1056 N.ar    1  UNL1       -0.2134
      5 C           3.7506   -1.1448   25.1529 C.ar    1  UNL1        0.2214
      6 N           4.8860   -2.0390   24.7511 N.ar    1  UNL1       -0.1991
      7 C           5.1220   -2.3464   23.3021 C.ar    1  UNL1        0.1298
      8 N           6.2573   -3.2406   22.9004 N.pl3   1  UNL1       -0.3425
      9 C           4.2227   -1.7596   22.2548 C.ar    1  UNL1        0.0522
     10 C           4.4587   -2.0670   20.8057 C.ar    1  UNL1        0.0443
     11 C           3.5594   -1.4802   19.7584 C.ar    1  UNL1        0.1726
     12 H           6.8476   -3.6257   23.5878 H       1  UNL1        0.1437
     13 H           6.4123   -3.4423   21.9493 H       1  UNL1        0.1437
     14 N           3.5146   -0.8374   26.6020 N.pl3   1  UNL1       -0.2747
     15 C           4.3877   -1.4577   27.6521 C.3     1  UNL1        0.1151
     16 C           4.1516   -1.1503   29.1012 C.3     1  UNL1        0.1153
     17 N           3.0425   -0.2227   29.5001 N.am    1  UNL1       -0.2701
     18 C           2.8064    0.0847   30.9492 C.2     1  UNL1        0.2839
     19 O           1.6972    1.0124   31.3481 O.2     1  UNL1       -0.2666
     20 C           2.1693    0.3976   28.4499 C.3     1  UNL1        0.1153
     21 C           2.4053    0.0902   27.0009 C.3     1  UNL1        0.1151
     22 C           3.6796   -0.5356   31.9993 C.ar    1  UNL1        0.1987
     23 C           4.7857    0.1510   32.7446 C.ar    1  UNL1        0.0455
     24 C           5.3896   -0.8404   33.6945 C.ar    1  UNL1        0.0440
     25 C           4.6569   -2.1397   33.5363 C.ar    1  UNL1        0.1798
     26 O           3.6001   -1.9513   32.4887 O.2     1  UNL1       -0.4458
     27 C           1.7885    1.3797   18.5847 C.3     1  UNL1        0.2526
     28 O           1.5247    0.0008   19.1128 O.3     1  UNL1       -0.4683
     29 O           3.7955   -1.7876   18.3093 O.3     1  UNL1       -0.4684
     30 C           4.6289   -0.8628   17.4725 C.3     1  UNL1        0.2526
@<TRIPOS>BOND
     1    27    28    1
     2    28     1    1
     3     1     2   ar
     4     2     3   ar
     5     3     4   ar
     6     4     5   ar
     7     5    14    1
     8    14    15    1
     9    15    16    1
    10    16    17    1
    11    17    18   am
    12    18    19    2
    13    18    22    1
    14    22    23   ar
    15    23    24   ar
    16    24    25   ar
    17    25    26   ar
    18    17    20    1
    19    20    21    1
    20     5     6   ar
    21     6     7   ar
    22     7     8    1
    23     7     9   ar
    24     9    10   ar
    25    10    11   ar
    26    11    29    1
    27    29    30    1
    28    11     1   ar
    29     9     3   ar
    30    21    14    1
    31    26    22   ar
    32     8    12    1
    33     8    13    1
@<TRIPOS>MOLECULE
*****
 30 33 0 0 0
SMALL
GASTEIGER

@<TRIPOS>ATOM
      1 C           4.3198   -2.5387   20.6007 C.ar    1  UNL1        0.1739
      2 C           4.3184   -2.4650   22.0989 C.ar    1  UNL1        0.0593
      3 C           3.5802   -1.3601   22.7947 C.ar    1  UNL1        0.0901
      4 N           3.5788   -1.2863   24.2929 N.ar    1  UNL1       -0.2134
      5 C           2.8405   -0.1815   24.9888 C.ar    1  UNL1        0.2214
      6 N           2.1036    0.8497   24.1864 N.ar    1  UNL1       -0.1991
      7 C           2.1050    0.7759   22.6882 C.ar    1  UNL1        0.1298
      8 N           1.3681    1.8070   21.8859 N.pl3   1  UNL1       -0.3425
      9 C           2.8433   -0.3290   21.9924 C.ar    1  UNL1        0.0522
     10 C           2.8447   -0.4027   20.4942 C.ar    1  UNL1        0.0443
     11 C           3.5829   -1.5076   19.7984 C.ar    1  UNL1        0.1726
     12 H           0.8836    2.5322   22.3426 H       1  UNL1        0.1437
     13 H           1.3690    1.7586   20.9026 H       1  UNL1        0.1437
     14 N           2.8391   -0.1077   26.4869 N.pl3   1  UNL1       -0.2747
     15 C           3.8111   -0.9308   27.2793 C.3     1  UNL1        0.1151
     16 C           3.8096   -0.8570   28.7775 C.3     1  UNL1        0.1153
     17 N           2.8363    0.0399   29.4833 N.am    1  UNL1       -0.2701
     18 C           2.8349    0.1137   30.9815 C.2     1  UNL1        0.2839
     19 O           1.8616    1.0106   31.6873 O.2     1  UNL1       -0.2666
     20 C           1.8644    0.8630   28.6910 C.3     1  UNL1        0.1153
     21 C           1.8658    0.7893   27.1928 C.3     1  UNL1        0.1151
     22 C           3.8068   -0.7094   31.7738 C.ar    1  UNL1        0.1987
     23 C           5.2138   -0.3213   32.1205 C.ar    1  UNL1        0.0455
     24 C           5.8189   -1.4372   32.9196 C.ar    1  UNL1        0.0440
     25 C           4.7861   -2.5150   33.0668 C.ar    1  UNL1        0.1798
     26 O           3.5426   -2.0652   32.3587 O.2     1  UNL1       -0.4458
     27 C           4.2966   -4.7488   19.2351 C.3     1  UNL1        0.2526
     28 O           5.0581   -3.6436   19.9049 O.3     1  UNL1       -0.4683
     29 O           3.5843   -1.5814   18.3002 O.3     1  UNL1       -0.4684
     30 C           4.0419   -0.4036   17.4917 C.3     1  UNL1        0.2526
@<TRIPOS>BOND
     1    27    28    1
     2    28     1    1
     3     1     2   ar
     4     2     3   ar
     5     3     4   ar
     6     4     5   ar
     7     5    14    1
     8    14    15    1
     9    15    16    1
    10    16    17    1
    11    17    18   am
    12    18    19    2
    13    18    22    1
    14    22    23   ar
    15    23    24   ar
    16    24    25   ar
    17    25    26   ar
    18    17    20    1
    19    20    21    1
    20     5     6   ar
    21     6     7   ar
    22     7     8    1
    23     7     9   ar
    24     9    10   ar
    25    10    11   ar
    26    11    29    1
    27    29    30    1
    28    11     1   ar
    29     9     3   ar
    30    21    14    1
    31    26    22   ar
    32     8    12    1
    33     8    13    1
@<TRIPOS>MOLECULE
*****
 30 33 0 0 0
SMALL
GASTEIGER

@<TRIPOS>ATOM
      1 C           6.0009   -1.8918   30.7635 C.ar    1  UNL1        0.1739
      2 C           5.8558   -2.0383   29.2778 C.ar    1  UNL1        0.0593
      3 C           4.7839   -1.2818   28.5506 C.ar    1  UNL1        0.0901
      4 N           4.6389   -1.4284   27.0648 N.ar    1  UNL1       -0.2134
      5 C           3.5669   -0.6719   26.3377 C.ar    1  UNL1        0.2214
      6 N           2.6400    0.2311   27.0964 N.ar    1  UNL1       -0.1991
      7 C           2.7850    0.3776   28.5821 C.ar    1  UNL1        0.1298
      8 N           1.8581    1.2805   29.3407 N.pl3   1  UNL1       -0.3425
      9 C           3.8570   -0.3789   29.3092 C.ar    1  UNL1        0.0522
     10 C           4.0020   -0.2324   30.7950 C.ar    1  UNL1        0.0443
     11 C           5.0740   -0.9888   31.5221 C.ar    1  UNL1        0.1726
     12 H           1.1546    1.7770   28.8634 H       1  UNL1        0.1437
     13 H           1.9533    1.3767   30.3158 H       1  UNL1        0.1437
     14 N           3.4219   -0.8184   24.8519 N.pl3   1  UNL1       -0.2747
     15 C           4.2397   -1.8375   24.1154 C.3     1  UNL1        0.1151
     16 C           4.0947   -1.9840   22.6296 C.3     1  UNL1        0.1153
     17 N           3.1317   -1.1114   21.8804 N.am    1  UNL1       -0.2701
     18 C           2.9867   -1.2579   20.3947 C.2     1  UNL1        0.2839
     19 O           2.0237   -0.3852   19.6454 O.2     1  UNL1       -0.2666
     20 C           2.3138   -0.0923   22.6170 C.3     1  UNL1        0.1153
     21 C           2.4589    0.0542   24.1027 C.3     1  UNL1        0.1151
     22 C           3.8046   -2.2769   19.6581 C.ar    1  UNL1        0.1987
     23 C           3.4290   -3.7112   19.4299 C.ar    1  UNL1        0.0455
     24 C           4.5340   -4.3614   18.6511 C.ar    1  UNL1        0.0440
     25 C           5.5924   -3.3290   18.3981 C.ar    1  UNL1        0.1798
     26 O           5.1416   -2.0408   19.0204 O.2     1  UNL1       -0.4458
     27 C           6.7627   -3.9780   32.1115 C.3     1  UNL1        0.2526
     28 O           7.0728   -2.6482   31.4906 O.3     1  UNL1       -0.4683
     29 O           5.2190   -0.8423   33.0079 O.3     1  UNL1       -0.4684
     30 C           4.3725   -1.6697   33.9293 C.3     1  UNL1        0.2526
@<TRIPOS>BOND
     1    27    28    1
     2    28     1    1
     3     1     2   ar
     4     2     3   ar
     5     3     4   ar
     6     4     5   ar
     7     5    14    1
     8    14    15    1
     9    15    16    1
    10    16    17    1
    11    17    18   am
    12    18    19    2
    13    18    22    1
    14    22    23   ar
    15    23    24   ar
    16    24    25   ar
    17    25    26   ar
    18    17    20    1
    19    20    21    1
    20     5     6   ar
    21     6     7   ar
    22     7     8    1
    23     7     9   ar
    24     9    10   ar
    25    10    11   ar
    26    11    29    1
    27    29    30    1
    28    11     1   ar
    29     9     3   ar
    30    21    14    1
    31    26    22   ar
    32     8    12    1
    33     8    13    1
