@<TRIPOS>MOLECULE
*****
 34 37 0 0 0
SMALL
GASTEIGER

@<TRIPOS>ATOM
      1 C           7.6609   -4.2161   22.8545 C.ar    1  UNL1        0.0503
      2 C           6.8927   -3.9346   24.1118 C.ar    1  UNL1        0.0143
      3 C           6.8909   -4.9351   25.2294 C.ar    1  UNL1       -0.0029
      4 C           7.6574   -6.2170   25.0898 C.ar    1  UNL1       -0.0208
      5 C           8.4255   -6.4984   23.8326 C.ar    1  UNL1       -0.0029
      6 C           8.4273   -5.4979   22.7149 C.ar    1  UNL1        0.0143
      7 O           5.9386   -4.6625   20.4390 O.2     1  UNL1       -0.2726
      8 C           6.8016   -3.4388   20.5291 C.2     1  UNL1        0.2511
      9 N           7.6627   -3.2157   21.7368 N.am    1  UNL1       -0.2823
     10 H           8.2291   -2.4126   21.7960 H       1  UNL1        0.1549
     11 C           6.8033   -2.4384   19.4115 C.3     1  UNL1        0.2154
     12 N           5.5407   -1.7123   19.0529 N.ar    1  UNL1       -0.2071
     13 N           4.3326   -1.8285   19.9343 N.ar    1  UNL1       -0.1648
     14 C           3.0700   -1.1023   19.5757 C.ar    1  UNL1        0.1204
     15 C           3.0156   -0.2600   18.3357 C.ar    1  UNL1        0.0274
     16 C           4.2238   -0.1438   17.4543 C.ar    1  UNL1        0.0639
     17 C           5.4863   -0.8699   17.8130 C.ar    1  UNL1        0.2769
     18 O           6.6945   -0.7537   16.9316 O.2     1  UNL1       -0.2655
     19 C           7.6556   -7.2174   26.2075 C.3     1  UNL1        0.0420
     20 C           7.9136   -6.7693   27.6156 C.3     1  UNL1        0.0585
     21 C           9.2431   -6.7660   28.3101 C.3     1  UNL1        0.0175
     22 C           9.0386   -6.2405   29.7001 C.3     1  UNL1        0.0199
     23 C           7.5826   -5.9189   29.8645 C.3     1  UNL1        0.0855
     24 N           6.8874   -6.2457   28.5762 N.3     1  UNL1       -0.2971
     25 H           6.4528   -5.4056   28.1946 H       1  UNL1        0.1233
     26 C           6.9357   -5.3674   31.1003 C.3     1  UNL1        0.1470
     27 O           6.5636   -6.2863   32.2260 O.3     1  UNL1       -0.3787
     28 H           6.1589   -5.7727   32.9424 H       1  UNL1        0.2108
     29 C           6.6606   -3.8970   31.2105 C.ar    1  UNL1        0.0055
     30 C           6.8982   -2.9993   30.0325 C.ar    1  UNL1       -0.0019
     31 C           6.6231   -1.5288   30.1426 C.ar    1  UNL1       -0.0002
     32 C           6.1105   -0.9561   31.4307 C.ar    1  UNL1       -0.0000
     33 C           5.8730   -1.8538   32.6086 C.ar    1  UNL1       -0.0002
     34 C           6.1480   -3.3242   32.4985 C.ar    1  UNL1       -0.0019
@<TRIPOS>BOND
     1     7     8    2
     2     8    11    1
     3    11    12    1
     4    12    13   ar
     5    13    14   ar
     6    14    15   ar
     7    15    16   ar
     8    16    17   ar
     9    17    18    2
    10     8     9   am
    11     9     1    1
    12     1     2   ar
    13     2     3   ar
    14     3     4   ar
    15     4    19    1
    16    20    19    1
    17    20    21    1
    18    21    22    1
    19    23    22    1
    20    23    26    1
    21    26    27    1
    22    26    29    1
    23    29    30   ar
    24    30    31   ar
    25    31    32   ar
    26    32    33   ar
    27    33    34   ar
    28    23    24    1
    29     4     5   ar
    30     5     6   ar
    31    17    12   ar
    32     6     1   ar
    33    24    20    1
    34    34    29   ar
    35     9    10    1
    36    27    28    1
    37    24    25    1
@<TRIPOS>MOLECULE
*****
 34 37 0 0 0
SMALL
GASTEIGER

@<TRIPOS>ATOM
      1 C           7.5284   -4.4292   25.0564 C.ar    1  UNL1        0.0503
      2 C           6.3446   -3.7754   24.4073 C.ar    1  UNL1        0.0143
      3 C           6.2782   -3.6583   22.9134 C.ar    1  UNL1       -0.0029
      4 C           7.3955   -4.1948   22.0686 C.ar    1  UNL1       -0.0208
      5 C           8.5793   -4.8485   22.7177 C.ar    1  UNL1       -0.0029
      6 C           8.6457   -4.9657   24.2116 C.ar    1  UNL1        0.0143
      7 O           6.6312   -6.9547   26.4043 O.2     1  UNL1       -0.2726
      8 C           7.1463   -5.8091   27.2243 C.2     1  UNL1        0.2511
      9 N           7.5949   -4.5464   26.5504 N.am    1  UNL1       -0.2823
     10 H           7.9329   -3.7945   27.0886 H       1  UNL1        0.1549
     11 C           7.2127   -5.9263   28.7183 C.3     1  UNL1        0.2154
     12 N           6.8528   -4.7519   29.5794 N.ar    1  UNL1       -0.2071
     13 N           6.5267   -3.4309   28.9482 N.ar    1  UNL1       -0.1648
     14 C           6.1669   -2.2567   29.8093 C.ar    1  UNL1        0.1204
     15 C           6.1330   -2.4035   31.3017 C.ar    1  UNL1        0.0274
     16 C           6.4591   -3.7245   31.9330 C.ar    1  UNL1        0.0639
     17 C           6.8190   -4.8987   31.0718 C.ar    1  UNL1        0.2769
     18 O           7.1451   -6.2198   31.7031 O.2     1  UNL1       -0.2655
     19 C           7.3291   -4.0776   20.5746 C.3     1  UNL1        0.0420
     20 C           6.0384   -3.7029   19.9084 C.3     1  UNL1        0.0585
     21 C           4.8114   -4.5610   19.8178 C.3     1  UNL1        0.0175
     22 C           3.7628   -3.7927   19.0692 C.3     1  UNL1        0.0199
     23 C           4.3419   -2.4599   18.6971 C.3     1  UNL1        0.0855
     24 N           5.7482   -2.4044   19.2158 N.3     1  UNL1       -0.2971
     25 H           5.8440   -1.6317   19.8747 H       1  UNL1        0.1233
     26 C           3.6381   -1.3734   17.9395 C.3     1  UNL1        0.1470
     27 O           3.8192   -1.2558   16.4551 O.3     1  UNL1       -0.3787
     28 H           3.2990   -0.5069   16.1243 H       1  UNL1        0.2108
     29 C           2.7531   -0.4044   18.6661 C.ar    1  UNL1        0.0055
     30 C           1.9168   -0.8726   19.8200 C.ar    1  UNL1       -0.0019
     31 C           1.0318    0.0962   20.5466 C.ar    1  UNL1       -0.0002
     32 C           0.9831    1.5333   20.1194 C.ar    1  UNL1       -0.0000
     33 C           1.8194    2.0014   18.9655 C.ar    1  UNL1       -0.0002
     34 C           2.7044    1.0325   18.2389 C.ar    1  UNL1       -0.0019
@<TRIPOS>BOND
     1     7     8    2
     2     8    11    1
     3    11    12    1
     4    12    13   ar
     5    13    14   ar
     6    14    15   ar
     7    15    16   ar
     8    16    17   ar
     9    17    18    2
    10     8     9   am
    11     9     1    1
    12     1     2   ar
    13     2     3   ar
    14     3     4   ar
    15     4    19    1
    16    20    19    1
    17    20    21    1
    18    21    22    1
    19    23    22    1
    20    23    26    1
    21    26    27    1
    22    26    29    1
    23    29    30   ar
    24    30    31   ar
    25    31    32   ar
    26    32    33   ar
    27    33    34   ar
    28    23    24    1
    29     4     5   ar
    30     5     6   ar
    31    17    12   ar
    32     6     1   ar
    33    24    20    1
    34    34    29   ar
    35     9    10    1
    36    27    28    1
    37    24    25    1
@<TRIPOS>MOLECULE
*****
 34 37 0 0 0
SMALL
GASTEIGER

@<TRIPOS>ATOM
      1 C           6.0888   -2.3338   25.5436 C.ar    1  UNL1        0.0503
      2 C           6.8494   -3.4245   24.8493 C.ar    1  UNL1        0.0143
      3 C           6.3332   -3.9967   23.5624 C.ar    1  UNL1       -0.0029
      4 C           5.0565   -3.4781   22.9697 C.ar    1  UNL1       -0.0208
      5 C           4.2960   -2.3875   23.6640 C.ar    1  UNL1       -0.0029
      6 C           4.8121   -1.8153   24.9510 C.ar    1  UNL1        0.0143
      7 O           5.9387   -3.9462   28.0690 O.2     1  UNL1       -0.2726
      8 C           6.5299   -2.5678   28.0932 C.2     1  UNL1        0.2511
      9 N           6.6050   -1.7616   26.8305 N.am    1  UNL1       -0.2823
     10 H           6.9930   -0.8570   26.8464 H       1  UNL1        0.1549
     11 C           7.0461   -1.9956   29.3802 C.3     1  UNL1        0.2154
     12 N           6.1417   -1.8961   30.5728 N.ar    1  UNL1       -0.2071
     13 N           5.1602   -0.7667   30.6775 N.ar    1  UNL1       -0.1648
     14 C           4.2559   -0.6672   31.8701 C.ar    1  UNL1        0.1204
     15 C           4.3331   -1.6971   32.9580 C.ar    1  UNL1        0.0274
     16 C           5.3147   -2.8264   32.8532 C.ar    1  UNL1        0.0639
     17 C           6.2190   -2.9259   31.6606 C.ar    1  UNL1        0.2769
     18 O           7.2006   -4.0553   31.5559 O.2     1  UNL1       -0.2655
     19 C           4.5403   -4.0503   21.6828 C.3     1  UNL1        0.0420
     20 C           4.7481   -3.3086   20.3956 C.3     1  UNL1        0.0585
     21 C           5.9883   -3.3365   19.5524 C.3     1  UNL1        0.0175
     22 C           5.7589   -2.4540   18.3612 C.3     1  UNL1        0.0199
     23 C           4.3768   -1.8809   18.4684 C.3     1  UNL1        0.0855
     24 N           3.7521   -2.4090   19.7256 N.3     1  UNL1       -0.2971
     25 H           2.9084   -2.9352   19.4983 H       1  UNL1        0.1233
     26 C           3.7326   -0.9441   17.4900 C.3     1  UNL1        0.1470
     27 O           3.6549   -1.3129   16.0382 O.3     1  UNL1       -0.3787
     28 H           3.2119   -0.6030   15.5475 H       1  UNL1        0.2108
     29 C           3.1661    0.3617   17.9634 C.ar    1  UNL1        0.0055
     30 C           1.6925    0.4942   18.2105 C.ar    1  UNL1       -0.0019
     31 C           1.1259    1.7999   18.6838 C.ar    1  UNL1       -0.0002
     32 C           2.0328    2.9731   18.9101 C.ar    1  UNL1       -0.0000
     33 C           3.5063    2.8405   18.6631 C.ar    1  UNL1       -0.0002
     34 C           4.0729    1.5348   18.1897 C.ar    1  UNL1       -0.0019
@<TRIPOS>BOND
     1     7     8    2
     2     8    11    1
     3    11    12    1
     4    12    13   ar
     5    13    14   ar
     6    14    15   ar
     7    15    16   ar
     8    16    17   ar
     9    17    18    2
    10     8     9   am
    11     9     1    1
    12     1     2   ar
    13     2     3   ar
    14     3     4   ar
    15     4    19    1
    16    20    19    1
    17    20    21    1
    18    21    22    1
    19    23    22    1
    20    23    26    1
    21    26    27    1
    22    26    29    1
    23    29    30   ar
    24    30    31   ar
    25    31    32   ar
    26    32    33   ar
    27    33    34   ar
    28    23    24    1
    29     4     5   ar
    30     5     6   ar
    31    17    12   ar
    32     6     1   ar
    33    24    20    1
    34    34    29   ar
    35     9    10    1
    36    27    28    1
    37    24    25    1
@<TRIPOS>MOLECULE
*****
 34 37 0 0 0
SMALL
GASTEIGER

@<TRIPOS>ATOM
      1 C          -2.1158    3.8364   22.3394 C.ar    1  UNL1        0.0503
      2 C          -2.6532    4.4069   21.0603 C.ar    1  UNL1        0.0143
      3 C          -1.9869    4.0826   19.7562 C.ar    1  UNL1       -0.0029
      4 C          -0.7832    3.1878   19.7310 C.ar    1  UNL1       -0.0208
      5 C          -0.2459    2.6173   21.0100 C.ar    1  UNL1       -0.0029
      6 C          -0.9122    2.9416   22.3142 C.ar    1  UNL1        0.0143
      7 O          -4.6869    2.4834   23.0875 O.2     1  UNL1       -0.2726
      8 C          -4.0676    3.4842   24.0176 C.2     1  UNL1        0.2511
      9 N          -2.7822    4.1606   23.6435 N.am    1  UNL1       -0.2823
     10 H          -2.3758    4.8175   24.2540 H       1  UNL1        0.1549
     11 C          -4.7339    3.8085   25.3218 C.3     1  UNL1        0.2154
     12 N          -5.9526    4.6829   25.3443 N.ar    1  UNL1       -0.2071
     13 N          -6.9221    4.6479   24.2004 N.ar    1  UNL1       -0.1648
     14 C          -8.1407    5.5223   24.2230 C.ar    1  UNL1        0.1204
     15 C          -8.3897    6.4317   25.3896 C.ar    1  UNL1        0.0274
     16 C          -7.4202    6.4667   26.5336 C.ar    1  UNL1        0.0639
     17 C          -6.2016    5.5923   26.5109 C.ar    1  UNL1        0.2769
     18 O          -5.2320    5.6274   27.6550 O.2     1  UNL1       -0.2655
     19 C          -0.1169    2.8635   18.4269 C.3     1  UNL1        0.0420
     20 C           1.1938    2.1341   18.4153 C.3     1  UNL1        0.0585
     21 C           2.5422    2.7400   18.6701 C.3     1  UNL1        0.0175
     22 C           3.5680    1.6512   18.5592 C.3     1  UNL1        0.0199
     23 C           2.8536    0.3724   18.2358 C.3     1  UNL1        0.0855
     24 N           1.3863    0.6709   18.1469 N.3     1  UNL1       -0.2971
     25 H           0.8787    0.1220   18.8408 H       1  UNL1        0.1233
     26 C           3.4940   -0.9692   18.0364 C.3     1  UNL1        0.1470
     27 O           3.8753   -1.4208   16.6577 O.3     1  UNL1       -0.3787
     28 H           4.2741   -2.3037   16.7054 H       1  UNL1        0.2108
     29 C           3.7533   -1.8593   19.2156 C.ar    1  UNL1        0.0055
     30 C           3.9422   -3.3338   19.0149 C.ar    1  UNL1       -0.0019
     31 C           4.2015   -4.2240   20.1940 C.ar    1  UNL1       -0.0002
     32 C           4.2719   -3.6397   21.5738 C.ar    1  UNL1       -0.0000
     33 C           4.0831   -2.1653   21.7743 C.ar    1  UNL1       -0.0002
     34 C           3.8238   -1.2751   20.5952 C.ar    1  UNL1       -0.0019
@<TRIPOS>BOND
     1     7     8    2
     2     8    11    1
     3    11    12    1
     4    12    13   ar
     5    13    14   ar
     6    14    15   ar
     7    15    16   ar
     8    16    17   ar
     9    17    18    2
    10     8     9   am
    11     9     1    1
    12     1     2   ar
    13     2     3   ar
    14     3     4   ar
    15     4    19    1
    16    20    19    1
    17    20    21    1
    18    21    22    1
    19    23    22    1
    20    23    26    1
    21    26    27    1
    22    26    29    1
    23    29    30   ar
    24    30    31   ar
    25    31    32   ar
    26    32    33   ar
    27    33    34   ar
    28    23    24    1
    29     4     5   ar
    30     5     6   ar
    31    17    12   ar
    32     6     1   ar
    33    24    20    1
    34    34    29   ar
    35     9    10    1
    36    27    28    1
    37    24    25    1
@<TRIPOS>MOLECULE
*****
 34 37 0 0 0
SMALL
GASTEIGER

@<TRIPOS>ATOM
      1 C           4.6230   -3.0451   21.7717 C.ar    1  UNL1        0.0503
      2 C           4.2067   -3.2726   20.3487 C.ar    1  UNL1        0.0143
      3 C           3.1754   -2.3845   19.7179 C.ar    1  UNL1       -0.0029
      4 C           2.5605   -1.2690   20.5101 C.ar    1  UNL1       -0.0208
      5 C           2.9768   -1.0416   21.9331 C.ar    1  UNL1       -0.0029
      6 C           4.0081   -1.9296   22.5639 C.ar    1  UNL1        0.0143
      7 O           7.5327   -2.6235   21.1751 O.2     1  UNL1       -0.2726
      8 C           7.1091   -3.7223   22.1042 C.2     1  UNL1        0.2511
      9 N           5.6543   -3.9331   22.4025 N.am    1  UNL1       -0.2823
     10 H           5.3763   -4.6543   23.0123 H       1  UNL1        0.1549
     11 C           8.1404   -4.6104   22.7350 C.3     1  UNL1        0.2154
     12 N           7.8066   -5.3827   23.9769 N.ar    1  UNL1       -0.2071
     13 N           7.1630   -4.6894   25.1410 N.ar    1  UNL1       -0.1648
     14 C           6.8293   -5.4617   26.3828 C.ar    1  UNL1        0.1204
     15 C           7.1391   -6.9272   26.4605 C.ar    1  UNL1        0.0274
     16 C           7.7827   -7.6205   25.2965 C.ar    1  UNL1        0.0639
     17 C           8.1164   -6.8482   24.0547 C.ar    1  UNL1        0.2769
     18 O           8.7601   -7.5415   22.8905 O.2     1  UNL1       -0.2655
     19 C           1.5292   -0.3810   19.8793 C.3     1  UNL1        0.0420
     20 C           1.1680    0.9244   20.5240 C.3     1  UNL1        0.0585
     21 C           1.8718    2.2332   20.3194 C.3     1  UNL1        0.0175
     22 C           1.1785    3.2679   21.1554 C.3     1  UNL1        0.0199
     23 C           0.0462    2.5985   21.8766 C.3     1  UNL1        0.0855
     24 N           0.0398    1.1501   21.4864 N.3     1  UNL1       -0.2971
     25 H          -0.8473    0.9156   21.0409 H       1  UNL1        0.1233
     26 C          -0.9114    3.2610   22.8220 C.3     1  UNL1        0.1470
     27 O          -1.8460    4.3222   22.3216 O.3     1  UNL1       -0.3787
     28 H          -2.3926    4.6439   23.0554 H       1  UNL1        0.2108
     29 C          -0.9345    2.8626   24.2679 C.ar    1  UNL1        0.0055
     30 C          -1.9780    3.4282   25.1851 C.ar    1  UNL1       -0.0019
     31 C          -2.0012    3.0297   26.6310 C.ar    1  UNL1       -0.0002
     32 C          -0.9809    2.0657   27.1598 C.ar    1  UNL1       -0.0000
     33 C           0.0626    1.5002   26.2426 C.ar    1  UNL1       -0.0002
     34 C           0.0858    1.8986   24.7967 C.ar    1  UNL1       -0.0019
@<TRIPOS>BOND
     1     7     8    2
     2     8    11    1
     3    11    12    1
     4    12    13   ar
     5    13    14   ar
     6    14    15   ar
     7    15    16   ar
     8    16    17   ar
     9    17    18    2
    10     8     9   am
    11     9     1    1
    12     1     2   ar
    13     2     3   ar
    14     3     4   ar
    15     4    19    1
    16    20    19    1
    17    20    21    1
    18    21    22    1
    19    23    22    1
    20    23    26    1
    21    26    27    1
    22    26    29    1
    23    29    30   ar
    24    30    31   ar
    25    31    32   ar
    26    32    33   ar
    27    33    34   ar
    28    23    24    1
    29     4     5   ar
    30     5     6   ar
    31    17    12   ar
    32     6     1   ar
    33    24    20    1
    34    34    29   ar
    35     9    10    1
    36    27    28    1
    37    24    25    1
@<TRIPOS>MOLECULE
*****
 34 37 0 0 0
SMALL
GASTEIGER

@<TRIPOS>ATOM
      1 C           0.6583    0.7063   19.7163 C.ar    1  UNL1        0.0503
      2 C           1.0796   -0.5214   20.4683 C.ar    1  UNL1        0.0143
      3 C           2.3477   -1.2308   20.0958 C.ar    1  UNL1       -0.0029
      4 C           3.1945   -0.7125   18.9713 C.ar    1  UNL1       -0.0208
      5 C           2.7732    0.5151   18.2194 C.ar    1  UNL1       -0.0029
      6 C           1.5051    1.2245   18.5919 C.ar    1  UNL1        0.0143
      7 O           0.7174    2.9221   21.7380 O.2     1  UNL1       -0.2726
      8 C          -0.5802    2.5235   21.0996 C.2     1  UNL1        0.2511
      9 N          -0.6097    1.4157   20.0888 N.am    1  UNL1       -0.2823
     10 H          -1.4614    1.1542   19.6699 H       1  UNL1        0.1549
     11 C          -1.8483    3.2329   21.4721 C.3     1  UNL1        0.2154
     12 N          -2.9264    3.4295   20.4478 N.ar    1  UNL1       -0.2071
     13 N          -2.5744    3.9100   19.0712 N.ar    1  UNL1       -0.1648
     14 C          -3.6524    4.1066   18.0469 C.ar    1  UNL1        0.1204
     15 C          -5.0825    3.8226   18.3993 C.ar    1  UNL1        0.0274
     16 C          -5.4346    3.3421   19.7760 C.ar    1  UNL1        0.0639
     17 C          -4.3565    3.1456   20.8002 C.ar    1  UNL1        0.2769
     18 O          -4.7085    2.6651   22.1769 O.2     1  UNL1       -0.2655
     19 C           4.4626   -1.4219   18.5988 C.3     1  UNL1        0.0420
     20 C           5.1128   -2.3576   19.5744 C.3     1  UNL1        0.0585
     21 C           4.5087   -3.6144   20.1271 C.3     1  UNL1        0.0175
     22 C           5.5038   -4.2345   21.0628 C.3     1  UNL1        0.0199
     23 C           6.7229   -3.3608   21.0882 C.3     1  UNL1        0.0855
     24 N           6.4812   -2.2009   20.1684 N.3     1  UNL1       -0.2971
     25 H           7.1818   -2.1952   19.4270 H       1  UNL1        0.1233
     26 C           7.9654   -3.6043   21.8924 C.3     1  UNL1        0.1470
     27 O           9.1022   -2.6277   21.8305 O.3     1  UNL1       -0.3787
     28 H           9.8219   -2.9324   22.4051 H       1  UNL1        0.2108
     29 C           8.0712   -4.8244   22.7585 C.ar    1  UNL1        0.0055
     30 C           8.8410   -6.0195   22.2796 C.ar    1  UNL1       -0.0019
     31 C           8.9468   -7.2396   23.1456 C.ar    1  UNL1       -0.0002
     32 C           8.2830   -7.2647   24.4905 C.ar    1  UNL1       -0.0000
     33 C           7.5133   -6.0696   24.9693 C.ar    1  UNL1       -0.0002
     34 C           7.4074   -4.8495   24.1033 C.ar    1  UNL1       -0.0019
@<TRIPOS>BOND
     1     7     8    2
     2     8    11    1
     3    11    12    1
     4    12    13   ar
     5    13    14   ar
     6    14    15   ar
     7    15    16   ar
     8    16    17   ar
     9    17    18    2
    10     8     9   am
    11     9     1    1
    12     1     2   ar
    13     2     3   ar
    14     3     4   ar
    15     4    19    1
    16    20    19    1
    17    20    21    1
    18    21    22    1
    19    23    22    1
    20    23    26    1
    21    26    27    1
    22    26    29    1
    23    29    30   ar
    24    30    31   ar
    25    31    32   ar
    26    32    33   ar
    27    33    34   ar
    28    23    24    1
    29     4     5   ar
    30     5     6   ar
    31    17    12   ar
    32     6     1   ar
    33    24    20    1
    34    34    29   ar
    35     9    10    1
    36    27    28    1
    37    24    25    1
@<TRIPOS>MOLECULE
*****
 34 37 0 0 0
SMALL
GASTEIGER

@<TRIPOS>ATOM
      1 C           0.7109    2.4115   18.7096 C.ar    1  UNL1        0.0503
      2 C           0.3273    3.5154   17.7692 C.ar    1  UNL1        0.0143
      3 C          -0.8002    4.4407   18.1190 C.ar    1  UNL1       -0.0029
      4 C          -1.5442    4.2621   19.4092 C.ar    1  UNL1       -0.0208
      5 C          -1.1607    3.1583   20.3496 C.ar    1  UNL1       -0.0029
      6 C          -0.0331    2.2329   19.9998 C.ar    1  UNL1        0.0143
      7 O           3.5519    3.3170   19.0397 O.2     1  UNL1       -0.2726
      8 C           3.2589    1.9389   18.5249 C.2     1  UNL1        0.2511
      9 N           1.8385    1.4861   18.3598 N.am    1  UNL1       -0.2823
     10 H           1.6462    0.5817   18.0219 H       1  UNL1        0.1549
     11 C           4.3865    1.0136   18.1751 C.3     1  UNL1        0.2154
     12 N           4.2927   -0.4447   18.5140 N.ar    1  UNL1       -0.2071
     13 N           3.2089   -0.9339   19.4283 N.ar    1  UNL1       -0.1648
     14 C           3.1151   -2.3921   19.7671 C.ar    1  UNL1        0.1204
     15 C           4.1051   -3.3610   19.1917 C.ar    1  UNL1        0.0274
     16 C           5.1889   -2.8718   18.2775 C.ar    1  UNL1        0.0639
     17 C           5.2827   -1.4136   17.9386 C.ar    1  UNL1        0.2769
     18 O           6.3665   -0.9242   17.0243 O.2     1  UNL1       -0.2655
     19 C          -2.6718    5.1874   19.7590 C.3     1  UNL1        0.0420
     20 C          -3.9375    4.6383   20.3478 C.3     1  UNL1        0.0585
     21 C          -4.8987    3.7120   19.6636 C.3     1  UNL1        0.0175
     22 C          -6.0195    3.4203   20.6171 C.3     1  UNL1        0.0199
     23 C          -5.7508    4.1663   21.8904 C.3     1  UNL1        0.0855
     24 N          -4.4641    4.9191   21.7240 N.3     1  UNL1       -0.2971
     25 H          -3.7888    4.6092   22.4228 H       1  UNL1        0.1233
     26 C          -6.6167    4.1606   23.1151 C.3     1  UNL1        0.1470
     27 O          -8.0838    3.8722   22.9950 O.3     1  UNL1       -0.3787
     28 H          -8.4933    3.9075   23.8736 H       1  UNL1        0.2108
     29 C          -6.0157    4.4432   24.4601 C.ar    1  UNL1        0.0055
     30 C          -4.8595    3.6240   24.9519 C.ar    1  UNL1       -0.0019
     31 C          -4.2585    3.9065   26.2969 C.ar    1  UNL1       -0.0002
     32 C          -4.8136    5.0084   27.1499 C.ar    1  UNL1       -0.0000
     33 C          -5.9698    5.8276   26.6580 C.ar    1  UNL1       -0.0002
     34 C          -6.5709    5.5450   25.3131 C.ar    1  UNL1       -0.0019
@<TRIPOS>BOND
     1     7     8    2
     2     8    11    1
     3    11    12    1
     4    12    13   ar
     5    13    14   ar
     6    14    15   ar
     7    15    16   ar
     8    16    17   ar
     9    17    18    2
    10     8     9   am
    11     9     1    1
    12     1     2   ar
    13     2     3   ar
    14     3     4   ar
    15     4    19    1
    16    20    19    1
    17    20    21    1
    18    21    22    1
    19    23    22    1
    20    23    26    1
    21    26    27    1
    22    26    29    1
    23    29    30   ar
    24    30    31   ar
    25    31    32   ar
    26    32    33   ar
    27    33    34   ar
    28    23    24    1
    29     4     5   ar
    30     5     6   ar
    31    17    12   ar
    32     6     1   ar
    33    24    20    1
    34    34    29   ar
    35     9    10    1
    36    27    28    1
    37    24    25    1
@<TRIPOS>MOLECULE
*****
 34 37 0 0 0
SMALL
GASTEIGER

@<TRIPOS>ATOM
      1 C           4.5959   -2.9846   21.7745 C.ar    1  UNL1        0.0503
      2 C           4.1897   -3.2934   20.3639 C.ar    1  UNL1        0.0143
      3 C           3.1477   -2.4562   19.6832 C.ar    1  UNL1       -0.0029
      4 C           2.5119   -1.3103   20.4130 C.ar    1  UNL1       -0.0208
      5 C           2.9182   -1.0016   21.8236 C.ar    1  UNL1       -0.0029
      6 C           3.9602   -1.8387   22.5043 C.ar    1  UNL1        0.0143
      7 O           7.4992   -2.5749   21.1395 O.2     1  UNL1       -0.2726
      8 C           7.0896   -3.6169   22.1377 C.2     1  UNL1        0.2511
      9 N           5.6379   -3.8218   22.4552 N.am    1  UNL1       -0.2823
     10 H           5.3691   -4.5057   23.1104 H       1  UNL1        0.1549
     11 C           8.1316   -4.4541   22.8185 C.3     1  UNL1        0.2154
     12 N           7.7760   -5.2454   24.0422 N.ar    1  UNL1       -0.2071
     13 N           7.1496   -4.5620   25.2214 N.ar    1  UNL1       -0.1648
     14 C           6.7941   -5.3532   26.4451 C.ar    1  UNL1        0.1204
     15 C           7.0650   -6.8279   26.4896 C.ar    1  UNL1        0.0274
     16 C           7.6915   -7.5113   25.3105 C.ar    1  UNL1        0.0639
     17 C           8.0470   -6.7200   24.0868 C.ar    1  UNL1        0.2769
     18 O           8.6735   -7.4034   22.9075 O.2     1  UNL1       -0.2655
     19 C           1.4699   -0.4731   19.7323 C.3     1  UNL1        0.0420
     20 C           1.0759    0.8526   20.3132 C.3     1  UNL1        0.0585
     21 C           1.8415    2.1357   20.1805 C.3     1  UNL1        0.0175
     22 C           1.0860    3.2041   20.9140 C.3     1  UNL1        0.0199
     23 C          -0.1465    2.5812   21.4998 C.3     1  UNL1        0.0855
     24 N          -0.1526    1.1279   21.1285 N.3     1  UNL1       -0.2971
     25 H          -0.9864    0.9141   20.5812 H       1  UNL1        0.1233
     26 C          -1.1895    3.2876   22.3140 C.3     1  UNL1        0.1470
     27 O          -0.8396    3.8418   23.6632 O.3     1  UNL1       -0.3787
     28 H          -1.6217    4.2634   24.0523 H       1  UNL1        0.2108
     29 C          -2.5826    3.4399   21.7791 C.ar    1  UNL1        0.0055
     30 C          -3.7316    3.6332   22.7237 C.ar    1  UNL1       -0.0019
     31 C          -5.1247    3.7854   22.1889 C.ar    1  UNL1       -0.0002
     32 C          -5.3688    3.7444   20.7094 C.ar    1  UNL1       -0.0000
     33 C          -4.2197    3.5511   19.7649 C.ar    1  UNL1       -0.0002
     34 C          -2.8266    3.3988   20.2997 C.ar    1  UNL1       -0.0019
@<TRIPOS>BOND
     1     7     8    2
     2     8    11    1
     3    11    12    1
     4    12    13   ar
     5    13    14   ar
     6    14    15   ar
     7    15    16   ar
     8    16    17   ar
     9    17    18    2
    10     8     9   am
    11     9     1    1
    12     1     2   ar
    13     2     3   ar
    14     3     4   ar
    15     4    19    1
    16    20    19    1
    17    20    21    1
    18    21    22    1
    19    23    22    1
    20    23    26    1
    21    26    27    1
    22    26    29    1
    23    29    30   ar
    24    30    31   ar
    25    31    32   ar
    26    32    33   ar
    27    33    34   ar
    28    23    24    1
    29     4     5   ar
    30     5     6   ar
    31    17    12   ar
    32     6     1   ar
    33    24    20    1
    34    34    29   ar
    35     9    10    1
    36    27    28    1
    37    24    25    1
@<TRIPOS>MOLECULE
*****
 34 37 0 0 0
SMALL
GASTEIGER

@<TRIPOS>ATOM
      1 C           7.9920   -4.5484   28.0168 C.ar    1  UNL1        0.0503
      2 C           8.7262   -3.5469   27.1754 C.ar    1  UNL1        0.0143
      3 C           8.5846   -3.5743   25.6823 C.ar    1  UNL1       -0.0029
      4 C           7.7089   -4.6032   25.0307 C.ar    1  UNL1       -0.0208
      5 C           6.9748   -5.6047   25.8722 C.ar    1  UNL1       -0.0029
      6 C           7.1163   -5.5773   27.3653 C.ar    1  UNL1        0.0143
      7 O           6.3424   -2.6439   29.6453 O.2     1  UNL1       -0.2726
      8 C           7.3088   -3.5688   30.3241 C.2     1  UNL1        0.2511
      9 N           8.1335   -4.5210   29.5099 N.am    1  UNL1       -0.2823
     10 H           8.7678   -5.1281   29.9554 H       1  UNL1        0.1549
     11 C           7.4504   -3.5414   31.8172 C.3     1  UNL1        0.2154
     12 N           6.6227   -2.5918   32.6317 N.ar    1  UNL1       -0.2071
     13 N           5.1974   -2.9279   32.9564 N.ar    1  UNL1       -0.1648
     14 C           4.3698   -1.9784   33.7708 C.ar    1  UNL1        0.1204
     15 C           4.9675   -0.6928   34.2607 C.ar    1  UNL1        0.0274
     16 C           6.3928   -0.3567   33.9360 C.ar    1  UNL1        0.0639
     17 C           7.2204   -1.3062   33.1215 C.ar    1  UNL1        0.2769
     18 O           8.6458   -0.9702   32.7968 O.2     1  UNL1       -0.2655
     19 C           7.5673   -4.6306   23.5377 C.3     1  UNL1        0.0420
     20 C           6.3416   -4.0579   22.8899 C.3     1  UNL1        0.0585
     21 C           5.3590   -3.1245   23.5329 C.3     1  UNL1        0.0175
     22 C           4.2933   -2.8077   22.5258 C.3     1  UNL1        0.0199
     23 C           4.6174   -3.5453   21.2605 C.3     1  UNL1        0.0855
     24 N           5.8833   -4.3179   21.4855 N.3     1  UNL1       -0.2971
     25 H           6.5980   -4.0110   20.8257 H       1  UNL1        0.1233
     26 C           3.8163   -3.5154   19.9928 C.3     1  UNL1        0.1470
     27 O           3.3632   -4.7985   19.3615 O.3     1  UNL1       -0.3787
     28 H           2.8610   -4.6024   18.5551 H       1  UNL1        0.2108
     29 C           3.4681   -2.2026   19.3562 C.ar    1  UNL1        0.0055
     30 C           2.3841   -1.3484   19.9437 C.ar    1  UNL1       -0.0019
     31 C           2.0359   -0.0355   19.3072 C.ar    1  UNL1       -0.0002
     32 C           2.7717    0.4231   18.0832 C.ar    1  UNL1       -0.0000
     33 C           3.8556   -0.4311   17.4957 C.ar    1  UNL1       -0.0002
     34 C           4.2038   -1.7440   18.1322 C.ar    1  UNL1       -0.0019
@<TRIPOS>BOND
     1     7     8    2
     2     8    11    1
     3    11    12    1
     4    12    13   ar
     5    13    14   ar
     6    14    15   ar
     7    15    16   ar
     8    16    17   ar
     9    17    18    2
    10     8     9   am
    11     9     1    1
    12     1     2   ar
    13     2     3   ar
    14     3     4   ar
    15     4    19    1
    16    20    19    1
    17    20    21    1
    18    21    22    1
    19    23    22    1
    20    23    26    1
    21    26    27    1
    22    26    29    1
    23    29    30   ar
    24    30    31   ar
    25    31    32   ar
    26    32    33   ar
    27    33    34   ar
    28    23    24    1
    29     4     5   ar
    30     5     6   ar
    31    17    12   ar
    32     6     1   ar
    33    24    20    1
    34    34    29   ar
    35     9    10    1
    36    27    28    1
    37    24    25    1
