@<TRIPOS>MOLECULE
*****
 35 40 0 0 0
SMALL
GASTEIGER

@<TRIPOS>ATOM
      1 C          -0.3126    2.5880   21.3716 C.3     1  UNL1        0.0770
      2 N           0.7072    1.5320   21.0636 N.3     1  UNL1       -0.2695
      3 C           2.1684    1.8315   21.2225 C.3     1  UNL1        0.0938
      4 C           3.1882    0.7755   20.9145 C.3     1  UNL1        0.1081
      5 N           2.7468   -0.5800   20.4476 N.pl3   1  UNL1       -0.3046
      6 C           1.2856   -0.8794   20.2888 C.3     1  UNL1        0.1081
      7 C           0.2658    0.1766   20.5968 C.3     1  UNL1        0.0938
      8 C           3.7665   -1.6360   20.1396 C.ar    1  UNL1        0.0493
      9 C           4.0790   -1.9839   18.7143 C.ar    1  UNL1        0.0146
     10 C           5.0988   -3.0399   18.4063 C.ar    1  UNL1        0.0028
     11 C           5.8061   -3.7480   19.5236 C.ar    1  UNL1        0.0192
     12 C           5.4937   -3.4002   20.9488 C.ar    1  UNL1        0.0821
     13 N           6.2010   -4.1083   22.0660 N.ar    1  UNL1       -0.2496
     14 C           5.8885   -3.7604   23.4913 C.ar    1  UNL1        0.0593
     15 C           6.5958   -4.4686   24.6086 C.3     1  UNL1        0.0521
     16 C           4.8687   -2.7044   23.7993 C.ar    1  UNL1        0.0148
     17 C           4.1614   -1.9963   22.6821 C.ar    1  UNL1        0.0039
     18 C           4.4739   -2.3441   21.2569 C.ar    1  UNL1        0.0310
     19 C          -0.0901    3.5353   22.5131 C.3     1  UNL1        0.0468
     20 C           1.5756    0.1146   28.2785 C.ar    1  UNL1        0.1331
     21 N           0.4617    0.2414   29.2751 N.ar    1  UNL1       -0.2209
     22 C          -0.6222    1.0726   28.6554 C.ar    1  UNL1        0.1828
     23 N          -0.1783    1.4596   27.2759 N.ar    1  UNL1       -0.2851
     24 C           1.1800    0.8674   27.0430 C.ar    1  UNL1        0.1070
     25 C           1.8813    1.0903   25.7358 C.3     1  UNL1        0.2509
     26 O           1.2242    1.9053   24.6616 O.3     1  UNL1       -0.4678
     27 C          -0.1342    2.4975   24.8945 C.ar    1  UNL1        0.1511
     28 C          -0.7913    3.3125   23.8203 C.ar    1  UNL1        0.0146
     29 C          -2.1497    3.9046   24.0532 C.ar    1  UNL1       -0.0011
     30 C          -2.8509    3.6817   25.3603 C.ar    1  UNL1        0.0014
     31 C          -2.1937    2.8667   26.4346 C.ar    1  UNL1        0.0206
     32 C          -0.8354    2.2746   26.2017 C.ar    1  UNL1        0.0989
     33 C           3.7121   -0.3480   29.6825 C.3     1  UNL1        0.0790
     34 C           2.8596   -0.6338   28.4818 C.2     1  UNL1        0.1922
     35 O           3.2911   -1.6678   27.4846 O.2     1  UNL1       -0.2897
@<TRIPOS>BOND
     1    33    34    1
     2    34    35    2
     3    34    20    1
     4    20    21   ar
     5    21    22   ar
     6    22    23   ar
     7    23    24   ar
     8    24    25    1
     9    25    26    1
    10    26    27    1
    11    27    28   ar
    12    28    19    1
    13    19     1    1
    14     1     2    1
    15     2     3    1
    16     3     4    1
    17     4     5    1
    18     5     8    1
    19     8     9   ar
    20     9    10   ar
    21    10    11   ar
    22    11    12   ar
    23    12    13   ar
    24    13    14   ar
    25    14    15    1
    26    14    16   ar
    27    16    17   ar
    28    17    18   ar
    29     5     6    1
    30     6     7    1
    31    28    29   ar
    32    29    30   ar
    33    30    31   ar
    34    31    32   ar
    35    24    20   ar
    36    32    27   ar
    37    32    23    1
    38     7     2    1
    39    18     8   ar
    40    18    12   ar
@<TRIPOS>MOLECULE
*****
 35 40 0 0 0
SMALL
GASTEIGER

@<TRIPOS>ATOM
      1 C           0.4916    1.5028   24.1418 C.3     1  UNL1        0.0770
      2 N           1.2908    0.7377   23.1290 N.3     1  UNL1       -0.2695
      3 C           0.8270    0.6689   21.7041 C.3     1  UNL1        0.0938
      4 C           1.6262   -0.0963   20.6914 C.3     1  UNL1        0.1081
      5 N           2.8893   -0.7926   21.1034 N.pl3   1  UNL1       -0.3046
      6 C           3.3531   -0.7239   22.5282 C.3     1  UNL1        0.1081
      7 C           2.5538    0.0413   23.5411 C.3     1  UNL1        0.0938
      8 C           3.6885   -1.5578   20.0907 C.ar    1  UNL1        0.0493
      9 C           3.5735   -3.0516   20.0176 C.ar    1  UNL1        0.0146
     10 C           4.3727   -3.8168   19.0049 C.ar    1  UNL1        0.0028
     11 C           5.2870   -3.0882   18.0651 C.ar    1  UNL1        0.0192
     12 C           5.4021   -1.5944   18.1381 C.ar    1  UNL1        0.0821
     13 N           6.3164   -0.8658   17.1983 N.ar    1  UNL1       -0.2496
     14 C           6.4314    0.6281   17.2714 C.ar    1  UNL1        0.0593
     15 C           7.3457    1.3567   16.3316 C.3     1  UNL1        0.0521
     16 C           5.6322    1.3932   18.2841 C.ar    1  UNL1        0.0148
     17 C           4.7179    0.6646   19.2239 C.ar    1  UNL1        0.0039
     18 C           4.6028   -0.8292   19.1509 C.ar    1  UNL1        0.0310
     19 C          -0.1670    2.7944   23.7570 C.3     1  UNL1        0.0468
     20 C          -6.4030    4.1781   21.1275 C.ar    1  UNL1        0.1331
     21 N          -7.3539    4.5056   22.2405 N.ar    1  UNL1       -0.2209
     22 C          -6.6016    4.4139   23.5349 C.ar    1  UNL1        0.1828
     23 N          -5.1858    4.0297   23.2221 N.ar    1  UNL1       -0.2851
     24 C          -5.0631    3.8840   21.7342 C.ar    1  UNL1        0.1070
     25 C          -3.7470    3.5023   21.1240 C.3     1  UNL1        0.2509
     26 O          -2.5537    3.2664   22.0017 O.3     1  UNL1       -0.4678
     27 C          -2.6764    3.4121   23.4896 C.ar    1  UNL1        0.1511
     28 C          -1.4831    3.1761   24.3673 C.ar    1  UNL1        0.0146
     29 C          -1.6059    3.3218   25.8551 C.ar    1  UNL1       -0.0011
     30 C          -2.9219    3.7035   26.4652 C.ar    1  UNL1        0.0014
     31 C          -4.1152    3.9395   25.5876 C.ar    1  UNL1        0.0206
     32 C          -3.9925    3.7938   24.0997 C.ar    1  UNL1        0.0989
     33 C          -7.4988    5.2825   19.0468 C.3     1  UNL1        0.0790
     34 C          -6.7339    4.1497   19.6648 C.2     1  UNL1        0.1922
     35 O          -6.3000    2.9887   18.8200 O.2     1  UNL1       -0.2897
@<TRIPOS>BOND
     1    33    34    1
     2    34    35    2
     3    34    20    1
     4    20    21   ar
     5    21    22   ar
     6    22    23   ar
     7    23    24   ar
     8    24    25    1
     9    25    26    1
    10    26    27    1
    11    27    28   ar
    12    28    19    1
    13    19     1    1
    14     1     2    1
    15     2     3    1
    16     3     4    1
    17     4     5    1
    18     5     8    1
    19     8     9   ar
    20     9    10   ar
    21    10    11   ar
    22    11    12   ar
    23    12    13   ar
    24    13    14   ar
    25    14    15    1
    26    14    16   ar
    27    16    17   ar
    28    17    18   ar
    29     5     6    1
    30     6     7    1
    31    28    29   ar
    32    29    30   ar
    33    30    31   ar
    34    31    32   ar
    35    24    20   ar
    36    32    27   ar
    37    32    23    1
    38     7     2    1
    39    18     8   ar
    40    18    12   ar
@<TRIPOS>MOLECULE
*****
 35 40 0 0 0
SMALL
GASTEIGER

@<TRIPOS>ATOM
      1 C           0.1309    3.0869   18.1986 C.3     1  UNL1        0.0770
      2 N           0.8774    1.9181   18.7700 N.3     1  UNL1       -0.2695
      3 C           2.3151    1.6953   18.4048 C.3     1  UNL1        0.0938
      4 C           3.0616    0.5265   18.9762 C.3     1  UNL1        0.1081
      5 N           2.3705   -0.4195   19.9130 N.pl3   1  UNL1       -0.3046
      6 C           0.9328   -0.1967   20.2782 C.3     1  UNL1        0.1081
      7 C           0.1862    0.9721   19.7068 C.3     1  UNL1        0.0938
      8 C           3.1170   -1.5883   20.4844 C.ar    1  UNL1        0.0493
      9 C           3.4311   -2.7731   19.6197 C.ar    1  UNL1        0.0146
     10 C           4.1776   -3.9418   20.1911 C.ar    1  UNL1        0.0028
     11 C           4.6101   -3.9259   21.6273 C.ar    1  UNL1        0.0192
     12 C           4.2960   -2.7412   22.4921 C.ar    1  UNL1        0.0821
     13 N           4.7285   -2.7253   23.9283 N.ar    1  UNL1       -0.2496
     14 C           4.4144   -1.5406   24.7931 C.ar    1  UNL1        0.0593
     15 C           4.8468   -1.5247   26.2293 C.3     1  UNL1        0.0521
     16 C           3.6679   -0.3718   24.2216 C.ar    1  UNL1        0.0148
     17 C           3.2354   -0.3877   22.7854 C.ar    1  UNL1        0.0039
     18 C           3.5495   -1.5724   21.9206 C.ar    1  UNL1        0.0310
     19 C          -0.6882    3.9655   19.0969 C.3     1  UNL1        0.0468
     20 C          -5.9620    4.5150   23.5243 C.ar    1  UNL1        0.1331
     21 N          -7.2543    4.5358   22.7631 N.ar    1  UNL1       -0.2209
     22 C          -6.9332    4.4289   21.3018 C.ar    1  UNL1        0.1828
     23 N          -5.4425    4.3420   21.1599 N.ar    1  UNL1       -0.2851
     24 C          -4.8423    4.3952   22.5335 C.ar    1  UNL1        0.1070
     25 C          -3.3535    4.3277   22.7046 C.3     1  UNL1        0.2509
     26 O          -2.4651    4.2070   21.5020 O.3     1  UNL1       -0.4678
     27 C          -3.0654    4.1537   20.1284 C.ar    1  UNL1        0.1511
     28 C          -2.1770    4.0330   18.9258 C.ar    1  UNL1        0.0146
     29 C          -2.7772    3.9798   17.5522 C.ar    1  UNL1       -0.0011
     30 C          -4.2659    4.0473   17.3812 C.ar    1  UNL1        0.0014
     31 C          -5.1543    4.1680   18.5837 C.ar    1  UNL1        0.0206
     32 C          -4.5541    4.2212   19.9573 C.ar    1  UNL1        0.0989
     33 C          -6.4162    5.7516   25.7636 C.3     1  UNL1        0.0790
     34 C          -5.8152    4.5992   25.0147 C.2     1  UNL1        0.1922
     35 O          -5.0675    3.5310   25.7563 O.2     1  UNL1       -0.2897
@<TRIPOS>BOND
     1    33    34    1
     2    34    35    2
     3    34    20    1
     4    20    21   ar
     5    21    22   ar
     6    22    23   ar
     7    23    24   ar
     8    24    25    1
     9    25    26    1
    10    26    27    1
    11    27    28   ar
    12    28    19    1
    13    19     1    1
    14     1     2    1
    15     2     3    1
    16     3     4    1
    17     4     5    1
    18     5     8    1
    19     8     9   ar
    20     9    10   ar
    21    10    11   ar
    22    11    12   ar
    23    12    13   ar
    24    13    14   ar
    25    14    15    1
    26    14    16   ar
    27    16    17   ar
    28    17    18   ar
    29     5     6    1
    30     6     7    1
    31    28    29   ar
    32    29    30   ar
    33    30    31   ar
    34    31    32   ar
    35    24    20   ar
    36    32    27   ar
    37    32    23    1
    38     7     2    1
    39    18     8   ar
    40    18    12   ar
@<TRIPOS>MOLECULE
*****
 35 40 0 0 0
SMALL
GASTEIGER

@<TRIPOS>ATOM
      1 C           0.1421    2.9555   20.0441 C.3     1  UNL1        0.0770
      2 N           1.0255    1.7439   20.0068 N.3     1  UNL1       -0.2695
      3 C           0.4331    0.3778   20.1883 C.3     1  UNL1        0.0938
      4 C           1.3165   -0.8338   20.1511 C.3     1  UNL1        0.1081
      5 N           2.7924   -0.6795   19.9323 N.pl3   1  UNL1       -0.3046
      6 C           3.3849    0.6865   19.7508 C.3     1  UNL1        0.1081
      7 C           2.5014    1.8982   19.7881 C.3     1  UNL1        0.0938
      8 C           3.6759   -1.8911   19.8951 C.ar    1  UNL1        0.0493
      9 C           3.9170   -2.6039   18.5974 C.ar    1  UNL1        0.0146
     10 C           4.8004   -3.8155   18.5601 C.ar    1  UNL1        0.0028
     11 C           5.4428   -4.3144   19.8205 C.ar    1  UNL1        0.0192
     12 C           5.2017   -3.6017   21.1181 C.ar    1  UNL1        0.0821
     13 N           5.8440   -4.1006   22.3785 N.ar    1  UNL1       -0.2496
     14 C           5.6029   -3.3878   23.6761 C.ar    1  UNL1        0.0593
     15 C           6.2452   -3.8867   24.9365 C.3     1  UNL1        0.0521
     16 C           4.7195   -2.1762   23.7134 C.ar    1  UNL1        0.0148
     17 C           4.0771   -1.6773   22.4530 C.ar    1  UNL1        0.0039
     18 C           4.3182   -2.3900   21.1554 C.ar    1  UNL1        0.0310
     19 C          -1.2176    2.8733   20.6723 C.3     1  UNL1        0.0468
     20 C          -6.5155    5.0180   24.5515 C.ar    1  UNL1        0.1331
     21 N          -6.0852    5.0974   25.9863 N.ar    1  UNL1       -0.2209
     22 C          -4.6468    4.6789   26.0626 C.ar    1  UNL1        0.1828
     23 N          -4.1881    4.3408   24.6751 N.ar    1  UNL1       -0.2851
     24 C          -5.3430    4.5503   23.7412 C.ar    1  UNL1        0.1070
     25 C          -5.1779    4.2882   22.2735 C.3     1  UNL1        0.2509
     26 O          -3.8578    3.8166   21.7398 O.3     1  UNL1       -0.4678
     27 C          -2.7028    3.6071   22.6737 C.ar    1  UNL1        0.1511
     28 C          -1.3827    3.1354   22.1400 C.ar    1  UNL1        0.0146
     29 C          -0.2278    2.9259   23.0739 C.ar    1  UNL1       -0.0011
     30 C          -0.3930    3.1879   24.5415 C.ar    1  UNL1        0.0014
     31 C          -1.7131    3.6596   25.0753 C.ar    1  UNL1        0.0206
     32 C          -2.8680    3.8691   24.1414 C.ar    1  UNL1        0.0989
     33 C          -8.2351    6.7698   23.7007 C.3     1  UNL1        0.0790
     34 C          -7.8789    5.3482   24.0204 C.2     1  UNL1        0.1922
     35 O          -8.8860    4.2569   23.8089 O.2     1  UNL1       -0.2897
@<TRIPOS>BOND
     1    33    34    1
     2    34    35    2
     3    34    20    1
     4    20    21   ar
     5    21    22   ar
     6    22    23   ar
     7    23    24   ar
     8    24    25    1
     9    25    26    1
    10    26    27    1
    11    27    28   ar
    12    28    19    1
    13    19     1    1
    14     1     2    1
    15     2     3    1
    16     3     4    1
    17     4     5    1
    18     5     8    1
    19     8     9   ar
    20     9    10   ar
    21    10    11   ar
    22    11    12   ar
    23    12    13   ar
    24    13    14   ar
    25    14    15    1
    26    14    16   ar
    27    16    17   ar
    28    17    18   ar
    29     5     6    1
    30     6     7    1
    31    28    29   ar
    32    29    30   ar
    33    30    31   ar
    34    31    32   ar
    35    24    20   ar
    36    32    27   ar
    37    32    23    1
    38     7     2    1
    39    18     8   ar
    40    18    12   ar
@<TRIPOS>MOLECULE
*****
 35 40 0 0 0
SMALL
GASTEIGER

@<TRIPOS>ATOM
      1 C          -0.6953    1.7198   25.6027 C.3     1  UNL1        0.0770
      2 N          -0.1706    1.8166   27.0045 N.3     1  UNL1       -0.2695
      3 C          -0.7825    0.9861   28.0935 C.3     1  UNL1        0.0938
      4 C          -0.2578    1.0829   29.4954 C.3     1  UNL1        0.1081
      5 N           0.8789    2.0102   29.8083 N.pl3   1  UNL1       -0.3046
      6 C           1.4909    2.8407   28.7194 C.3     1  UNL1        0.1081
      7 C           0.9661    2.7440   27.3175 C.3     1  UNL1        0.0938
      8 C           1.4037    2.1070   31.2102 C.ar    1  UNL1        0.0493
      9 C           0.9807    3.2440   32.0925 C.ar    1  UNL1        0.0146
     10 C           1.5055    3.3408   33.4944 C.ar    1  UNL1        0.0028
     11 C           2.4532    2.3007   34.0139 C.ar    1  UNL1        0.0192
     12 C           2.8763    1.1638   33.1316 C.ar    1  UNL1        0.0821
     13 N           3.8240    0.1237   33.6512 N.ar    1  UNL1       -0.2496
     14 C           4.2471   -1.0132   32.7688 C.ar    1  UNL1        0.0593
     15 C           5.1948   -2.0533   33.2884 C.3     1  UNL1        0.0521
     16 C           3.7223   -1.1100   31.3670 C.ar    1  UNL1        0.0148
     17 C           2.7745   -0.0699   30.8474 C.ar    1  UNL1        0.0039
     18 C           2.3515    1.0670   31.7297 C.ar    1  UNL1        0.0310
     19 C          -1.1563    2.9551   24.8874 C.3     1  UNL1        0.0468
     20 C          -6.4846    4.5171   20.7783 C.ar    1  UNL1        0.1331
     21 N          -7.6216    5.0350   21.6083 N.ar    1  UNL1       -0.2209
     22 C          -7.1883    5.0272   23.0444 C.ar    1  UNL1        0.1828
     23 N          -5.7835    4.5044   23.1018 N.ar    1  UNL1       -0.2851
     24 C          -5.3486    4.1892   21.7013 C.ar    1  UNL1        0.1070
     25 C          -3.9743    3.6442   21.4474 C.3     1  UNL1        0.2509
     26 O          -3.0350    3.4145   22.5941 O.3     1  UNL1       -0.4678
     27 C          -3.4699    3.7298   23.9947 C.ar    1  UNL1        0.1511
     28 C          -2.5306    3.5001   25.1413 C.ar    1  UNL1        0.0146
     29 C          -2.9654    3.8153   26.5418 C.ar    1  UNL1       -0.0011
     30 C          -4.3397    4.3602   26.7957 C.ar    1  UNL1        0.0014
     31 C          -5.2790    4.5899   25.6490 C.ar    1  UNL1        0.0206
     32 C          -4.8442    4.2747   24.2485 C.ar    1  UNL1        0.0989
     33 C          -6.9461    5.4815   18.4104 C.3     1  UNL1        0.0790
     34 C          -6.4837    4.3555   19.2870 C.2     1  UNL1        0.1922
     35 O          -6.0205    3.0680   18.6724 O.2     1  UNL1       -0.2897
@<TRIPOS>BOND
     1    33    34    1
     2    34    35    2
     3    34    20    1
     4    20    21   ar
     5    21    22   ar
     6    22    23   ar
     7    23    24   ar
     8    24    25    1
     9    25    26    1
    10    26    27    1
    11    27    28   ar
    12    28    19    1
    13    19     1    1
    14     1     2    1
    15     2     3    1
    16     3     4    1
    17     4     5    1
    18     5     8    1
    19     8     9   ar
    20     9    10   ar
    21    10    11   ar
    22    11    12   ar
    23    12    13   ar
    24    13    14   ar
    25    14    15    1
    26    14    16   ar
    27    16    17   ar
    28    17    18   ar
    29     5     6    1
    30     6     7    1
    31    28    29   ar
    32    29    30   ar
    33    30    31   ar
    34    31    32   ar
    35    24    20   ar
    36    32    27   ar
    37    32    23    1
    38     7     2    1
    39    18     8   ar
    40    18    12   ar
@<TRIPOS>MOLECULE
*****
 35 40 0 0 0
SMALL
GASTEIGER

@<TRIPOS>ATOM
      1 C           7.3652   -2.1348   31.7253 C.3     1  UNL1        0.0770
      2 N           7.5520   -3.0256   30.5330 N.3     1  UNL1       -0.2695
      3 C           8.7991   -2.9203   29.7061 C.3     1  UNL1        0.0938
      4 C           8.9859   -3.8111   28.5138 C.3     1  UNL1        0.1081
      5 N           7.9257   -4.8073   28.1485 N.pl3   1  UNL1       -0.3046
      6 C           6.6787   -4.9127   28.9754 C.3     1  UNL1        0.1081
      7 C           6.4918   -4.0219   30.1677 C.3     1  UNL1        0.0938
      8 C           8.1125   -5.6982   26.9562 C.ar    1  UNL1        0.0493
      9 C           8.6702   -7.0795   27.1321 C.ar    1  UNL1        0.0146
     10 C           8.8570   -7.9704   25.9399 C.ar    1  UNL1        0.0028
     11 C           8.4861   -7.4799   24.5717 C.ar    1  UNL1        0.0192
     12 C           7.9284   -6.0986   24.3958 C.ar    1  UNL1        0.0821
     13 N           7.5576   -5.6082   23.0276 N.ar    1  UNL1       -0.2496
     14 C           6.9999   -4.2268   22.8517 C.ar    1  UNL1        0.0593
     15 C           6.6290   -3.7364   21.4835 C.3     1  UNL1        0.0521
     16 C           6.8131   -3.3360   24.0439 C.ar    1  UNL1        0.0148
     17 C           7.1839   -3.8264   25.4121 C.ar    1  UNL1        0.0039
     18 C           7.7416   -5.2077   25.5881 C.ar    1  UNL1        0.0310
     19 C           6.2349   -2.3854   32.6790 C.3     1  UNL1        0.0468
     20 C           0.9174    1.3210   30.2909 C.ar    1  UNL1        0.1331
     21 N           0.5445    2.3677   31.2985 N.ar    1  UNL1       -0.2209
     22 C           1.4686    2.2314   32.4722 C.ar    1  UNL1        0.1828
     23 N           2.4127    1.1005   32.1899 N.ar    1  UNL1       -0.2851
     24 C           2.0720    0.5379   30.8418 C.ar    1  UNL1        0.1070
     25 C           2.8573   -0.6149   30.2900 C.3     1  UNL1        0.2509
     26 O           3.9832   -1.2051   31.0863 O.3     1  UNL1       -0.4678
     27 C           4.3238   -0.6424   32.4345 C.ar    1  UNL1        0.1511
     28 C           5.4496   -1.2325   33.2308 C.ar    1  UNL1        0.0146
     29 C           5.7903   -0.6699   34.5789 C.ar    1  UNL1       -0.0011
     30 C           5.0050    0.4829   35.1306 C.ar    1  UNL1        0.0014
     31 C           3.8792    1.0730   34.3343 C.ar    1  UNL1        0.0206
     32 C           3.5385    0.5104   32.9862 C.ar    1  UNL1        0.0989
     33 C          -0.5750   -0.1338   28.7397 C.3     1  UNL1        0.0790
     34 C           0.2525    1.0969   28.9651 C.2     1  UNL1        0.1922
     35 O           0.4151    2.1032   27.8648 O.2     1  UNL1       -0.2897
@<TRIPOS>BOND
     1    33    34    1
     2    34    35    2
     3    34    20    1
     4    20    21   ar
     5    21    22   ar
     6    22    23   ar
     7    23    24   ar
     8    24    25    1
     9    25    26    1
    10    26    27    1
    11    27    28   ar
    12    28    19    1
    13    19     1    1
    14     1     2    1
    15     2     3    1
    16     3     4    1
    17     4     5    1
    18     5     8    1
    19     8     9   ar
    20     9    10   ar
    21    10    11   ar
    22    11    12   ar
    23    12    13   ar
    24    13    14   ar
    25    14    15    1
    26    14    16   ar
    27    16    17   ar
    28    17    18   ar
    29     5     6    1
    30     6     7    1
    31    28    29   ar
    32    29    30   ar
    33    30    31   ar
    34    31    32   ar
    35    24    20   ar
    36    32    27   ar
    37    32    23    1
    38     7     2    1
    39    18     8   ar
    40    18    12   ar
@<TRIPOS>MOLECULE
*****
 35 40 0 0 0
SMALL
GASTEIGER

@<TRIPOS>ATOM
      1 C          -0.8377    3.0460   21.4059 C.3     1  UNL1        0.0770
      2 N           0.3642    2.4582   20.7278 N.3     1  UNL1       -0.2695
      3 C           1.6316    2.2438   21.5011 C.3     1  UNL1        0.0938
      4 C           2.8335    1.6560   20.8230 C.3     1  UNL1        0.1081
      5 N           2.7681    1.2825   19.3717 N.pl3   1  UNL1       -0.3046
      6 C           1.5008    1.4969   18.5985 C.3     1  UNL1        0.1081
      7 C           0.2988    2.0847   19.2766 C.3     1  UNL1        0.0938
      8 C           3.9700    0.6947   18.6936 C.ar    1  UNL1        0.0493
      9 C           4.9577    1.5914   18.0078 C.ar    1  UNL1        0.0146
     10 C           6.1596    1.0036   17.3298 C.ar    1  UNL1        0.0028
     11 C           6.3739   -0.4810   17.3375 C.ar    1  UNL1        0.0192
     12 C           5.3863   -1.3777   18.0232 C.ar    1  UNL1        0.0821
     13 N           5.6005   -2.8623   18.0309 N.ar    1  UNL1       -0.2496
     14 C           4.6128   -3.7591   18.7168 C.ar    1  UNL1        0.0593
     15 C           4.8271   -5.2437   18.7245 C.3     1  UNL1        0.0521
     16 C           3.4109   -3.1713   19.3948 C.ar    1  UNL1        0.0148
     17 C           3.1966   -1.6867   19.3871 C.ar    1  UNL1        0.0039
     18 C           4.1843   -0.7899   18.7014 C.ar    1  UNL1        0.0310
     19 C          -1.6195    4.1360   20.7345 C.3     1  UNL1        0.0468
     20 C          -6.4824    5.5614   25.4287 C.ar    1  UNL1        0.1331
     21 N          -7.8381    5.3181   24.8345 N.ar    1  UNL1       -0.2209
     22 C          -7.6479    4.8487   23.4226 C.ar    1  UNL1        0.1828
     23 N          -6.1747    4.8020   23.1441 N.ar    1  UNL1       -0.2851
     24 C          -5.4544    5.2424   24.3840 C.ar    1  UNL1        0.1070
     25 C          -3.9555    5.2962   24.4015 C.3     1  UNL1        0.2509
     26 O          -3.1768    4.9094   23.1791 O.3     1  UNL1       -0.4678
     27 C          -3.8971    4.4690   21.9393 C.ar    1  UNL1        0.1511
     28 C          -3.1184    4.0823   20.7169 C.ar    1  UNL1        0.0146
     29 C          -3.8387    3.6418   19.4771 C.ar    1  UNL1       -0.0011
     30 C          -5.3376    3.5881   19.4596 C.ar    1  UNL1        0.0014
     31 C          -6.1163    3.9748   20.6820 C.ar    1  UNL1        0.0206
     32 C          -5.3960    4.4153   21.9218 C.ar    1  UNL1        0.0989
     33 C          -6.8946    7.2631   27.3481 C.3     1  UNL1        0.0790
     34 C          -6.2037    6.0397   26.8228 C.2     1  UNL1        0.1922
     35 O          -5.2342    5.2946   27.6916 O.2     1  UNL1       -0.2897
@<TRIPOS>BOND
     1    33    34    1
     2    34    35    2
     3    34    20    1
     4    20    21   ar
     5    21    22   ar
     6    22    23   ar
     7    23    24   ar
     8    24    25    1
     9    25    26    1
    10    26    27    1
    11    27    28   ar
    12    28    19    1
    13    19     1    1
    14     1     2    1
    15     2     3    1
    16     3     4    1
    17     4     5    1
    18     5     8    1
    19     8     9   ar
    20     9    10   ar
    21    10    11   ar
    22    11    12   ar
    23    12    13   ar
    24    13    14   ar
    25    14    15    1
    26    14    16   ar
    27    16    17   ar
    28    17    18   ar
    29     5     6    1
    30     6     7    1
    31    28    29   ar
    32    29    30   ar
    33    30    31   ar
    34    31    32   ar
    35    24    20   ar
    36    32    27   ar
    37    32    23    1
    38     7     2    1
    39    18     8   ar
    40    18    12   ar
@<TRIPOS>MOLECULE
*****
 35 40 0 0 0
SMALL
GASTEIGER

@<TRIPOS>ATOM
      1 C           0.1943    3.5898   23.7817 C.3     1  UNL1        0.0770
      2 N           1.0746    3.0247   22.7067 N.3     1  UNL1       -0.2695
      3 C           0.5476    2.8676   21.3111 C.3     1  UNL1        0.0938
      4 C           1.4280    2.3026   20.2361 C.3     1  UNL1        0.1081
      5 N           2.8354    1.8947   20.5566 N.pl3   1  UNL1       -0.3046
      6 C           3.3625    2.0518   21.9521 C.3     1  UNL1        0.1081
      7 C           2.4821    2.6168   23.0272 C.3     1  UNL1        0.0938
      8 C           3.7158    1.3296   19.4816 C.ar    1  UNL1        0.0493
      9 C           4.4580    2.2505   18.5590 C.ar    1  UNL1        0.0146
     10 C           5.3384    1.6854   17.4840 C.ar    1  UNL1        0.0028
     11 C           5.4766    0.1996   17.3316 C.ar    1  UNL1        0.0192
     12 C           4.7344   -0.7212   18.2542 C.ar    1  UNL1        0.0821
     13 N           4.8725   -2.2070   18.1018 N.ar    1  UNL1       -0.2496
     14 C           4.1303   -3.1278   19.0244 C.ar    1  UNL1        0.0593
     15 C           4.2684   -4.6137   18.8720 C.3     1  UNL1        0.0521
     16 C           3.2499   -2.5628   20.0994 C.ar    1  UNL1        0.0148
     17 C           3.1117   -1.0770   20.2518 C.ar    1  UNL1        0.0039
     18 C           3.8539   -0.1562   19.3292 C.ar    1  UNL1        0.0310
     19 C          -0.7613    2.6961   24.5153 C.3     1  UNL1        0.0468
     20 C          -6.4937    4.5530   21.1377 C.ar    1  UNL1        0.1331
     21 N          -7.5275    5.0136   22.1222 N.ar    1  UNL1       -0.2209
     22 C          -6.9390    4.9042   23.4976 C.ar    1  UNL1        0.1828
     23 N          -5.5416    4.3759   23.3632 N.ar    1  UNL1       -0.2851
     24 C          -5.2664    4.1589   21.9048 C.ar    1  UNL1        0.1070
     25 C          -3.9336    3.6305   21.4635 C.3     1  UNL1        0.2509
     26 O          -2.8762    3.3190   22.4808 O.3     1  UNL1       -0.4678
     27 C          -3.1515    3.5360   23.9393 C.ar    1  UNL1        0.1511
     28 C          -2.0941    3.2246   24.9566 C.ar    1  UNL1        0.0146
     29 C          -2.3693    3.4416   26.4150 C.ar    1  UNL1       -0.0011
     30 C          -3.7019    3.9700   26.8562 C.ar    1  UNL1        0.0014
     31 C          -4.7594    4.2815   25.8389 C.ar    1  UNL1        0.0206
     32 C          -4.4842    4.0645   24.3805 C.ar    1  UNL1        0.0989
     33 C          -6.4142    3.2108   18.9147 C.3     1  UNL1        0.0790
     34 C          -6.6583    4.4965   19.6479 C.2     1  UNL1        0.1922
     35 O          -7.0670    5.7255   18.8913 O.2     1  UNL1       -0.2897
@<TRIPOS>BOND
     1    33    34    1
     2    34    35    2
     3    34    20    1
     4    20    21   ar
     5    21    22   ar
     6    22    23   ar
     7    23    24   ar
     8    24    25    1
     9    25    26    1
    10    26    27    1
    11    27    28   ar
    12    28    19    1
    13    19     1    1
    14     1     2    1
    15     2     3    1
    16     3     4    1
    17     4     5    1
    18     5     8    1
    19     8     9   ar
    20     9    10   ar
    21    10    11   ar
    22    11    12   ar
    23    12    13   ar
    24    13    14   ar
    25    14    15    1
    26    14    16   ar
    27    16    17   ar
    28    17    18   ar
    29     5     6    1
    30     6     7    1
    31    28    29   ar
    32    29    30   ar
    33    30    31   ar
    34    31    32   ar
    35    24    20   ar
    36    32    27   ar
    37    32    23    1
    38     7     2    1
    39    18     8   ar
    40    18    12   ar
@<TRIPOS>MOLECULE
*****
 35 40 0 0 0
SMALL
GASTEIGER

@<TRIPOS>ATOM
      1 C           7.5075   -2.6930   31.9484 C.3     1  UNL1        0.0770
      2 N           7.6875   -3.4779   30.6830 N.3     1  UNL1       -0.2695
      3 C           8.9295   -3.3006   29.8607 C.3     1  UNL1        0.0938
      4 C           9.1096   -4.0855   28.5952 C.3     1  UNL1        0.1081
      5 N           8.0477   -5.0478   28.1520 N.pl3   1  UNL1       -0.3046
      6 C           6.8057   -5.2251   28.9742 C.3     1  UNL1        0.1081
      7 C           6.6256   -4.4402   30.2398 C.3     1  UNL1        0.0938
      8 C           8.2277   -5.8327   26.8865 C.ar    1  UNL1        0.0493
      9 C           8.9183   -7.1639   26.9215 C.ar    1  UNL1        0.0146
     10 C           9.0983   -7.9488   25.6560 C.ar    1  UNL1        0.0028
     11 C           8.5878   -7.4027   24.3556 C.ar    1  UNL1        0.0192
     12 C           7.8973   -6.0716   24.3206 C.ar    1  UNL1        0.0821
     13 N           7.3868   -5.5254   23.0202 N.ar    1  UNL1       -0.2496
     14 C           6.6962   -4.1942   22.9853 C.ar    1  UNL1        0.0593
     15 C           6.1858   -3.6480   21.6849 C.3     1  UNL1        0.0521
     16 C           6.5162   -3.4093   24.2507 C.ar    1  UNL1        0.0148
     17 C           7.0267   -3.9554   25.5512 C.ar    1  UNL1        0.0039
     18 C           7.7172   -5.2865   25.5861 C.ar    1  UNL1        0.0310
     19 C           6.1750   -2.6755   32.6370 C.3     1  UNL1        0.0468
     20 C           3.0876    2.0533   36.6147 C.ar    1  UNL1        0.1331
     21 N           2.1983    2.9154   35.7686 N.ar    1  UNL1       -0.2209
     22 C           2.3005    2.4359   34.3510 C.ar    1  UNL1        0.1828
     23 N           3.2531    1.2776   34.3210 N.ar    1  UNL1       -0.2851
     24 C           3.7395    1.0412   35.7200 C.ar    1  UNL1        0.1070
     25 C           4.7132   -0.0654   35.9986 C.3     1  UNL1        0.2509
     26 O           5.2005   -0.9354   34.8781 O.3     1  UNL1       -0.4678
     27 C           4.7140   -0.6989   33.4790 C.ar    1  UNL1        0.1511
     28 C           5.2013   -1.5690   32.3584 C.ar    1  UNL1        0.0146
     29 C           4.7148   -1.3325   30.9594 C.ar    1  UNL1       -0.0011
     30 C           3.7412   -0.2261   30.6808 C.ar    1  UNL1        0.0014
     31 C           3.2539    0.6440   31.8014 C.ar    1  UNL1        0.0206
     32 C           3.7403    0.4075   33.2004 C.ar    1  UNL1        0.0989
     33 C           3.1194    0.9829   38.9818 C.3     1  UNL1        0.0790
     34 C           3.2896    2.1811   38.0956 C.2     1  UNL1        0.1922
     35 O           3.6618    3.5069   38.6902 O.2     1  UNL1       -0.2897
@<TRIPOS>BOND
     1    33    34    1
     2    34    35    2
     3    34    20    1
     4    20    21   ar
     5    21    22   ar
     6    22    23   ar
     7    23    24   ar
     8    24    25    1
     9    25    26    1
    10    26    27    1
    11    27    28   ar
    12    28    19    1
    13    19     1    1
    14     1     2    1
    15     2     3    1
    16     3     4    1
    17     4     5    1
    18     5     8    1
    19     8     9   ar
    20     9    10   ar
    21    10    11   ar
    22    11    12   ar
    23    12    13   ar
    24    13    14   ar
    25    14    15    1
    26    14    16   ar
    27    16    17   ar
    28    17    18   ar
    29     5     6    1
    30     6     7    1
    31    28    29   ar
    32    29    30   ar
    33    30    31   ar
    34    31    32   ar
    35    24    20   ar
    36    32    27   ar
    37    32    23    1
    38     7     2    1
    39    18     8   ar
    40    18    12   ar
