@<TRIPOS>MOLECULE
*****
 31 34 0 0 0
SMALL
GASTEIGER

@<TRIPOS>ATOM
      1 C         -10.8011  -19.7407   20.5209 C.3     1  UNL1        0.2068
      2 O          -9.5315  -19.5894   19.7364 O.3     1  UNL1       -0.4754
      3 C          -5.5975  -19.1722   21.8811 C.ar    1  UNL1       -0.0021
      4 C          -5.7541  -20.1930   20.7932 C.ar    1  UNL1        0.0005
      5 C          -7.0654  -20.3320   20.0783 C.ar    1  UNL1        0.0366
      6 C          -8.2202  -19.4504   20.4513 C.ar    1  UNL1        0.1385
      7 C          -8.0636  -18.4296   21.5392 C.ar    1  UNL1        0.0366
      8 C          -6.7523  -18.2905   22.2541 C.ar    1  UNL1        0.0005
      9 C          -4.2862  -19.0331   22.5960 C.3     1  UNL1        0.1201
     10 O          -2.4241  -20.5412   20.7909 O.2     1  UNL1       -0.2749
     11 C          -2.2121  -19.0760   21.0320 C.2     1  UNL1        0.2259
     12 C          -1.0690  -18.3648   20.3705 C.3     1  UNL1        0.0853
     13 C          -0.8569  -16.8996   20.6116 C.3     1  UNL1        0.0113
     14 C          -1.7879  -16.1455   21.5141 C.3     1  UNL1        0.0220
     15 C          -2.9310  -16.8567   22.1755 C.3     1  UNL1        0.0937
     16 N          -3.1431  -18.3219   21.9345 N.am    1  UNL1       -0.2754
     17 C         -11.8110  -18.6318   20.5343 C.3     1  UNL1        0.0646
     18 C         -12.3094  -18.0871   21.8400 C.3     1  UNL1        0.0759
     19 N         -11.3356  -17.7216   22.9209 N.3     1  UNL1       -0.2726
     20 C         -10.7419  -16.3448   22.9613 C.3     1  UNL1        0.0721
     21 C          -9.7681  -15.9793   24.0422 C.3     1  UNL1        0.0178
     22 C          -9.3881  -16.9908   25.0826 C.3     1  UNL1        0.0087
     23 C          -9.9819  -18.3677   25.0422 C.3     1  UNL1        0.0178
     24 C         -10.9557  -18.7331   23.9614 C.3     1  UNL1        0.0721
     25 C          -8.4144  -16.6254   26.1635 C.3     1  UNL1        0.0453
     26 C          -7.1272  -15.9398   25.8128 C.ar    1  UNL1        0.0541
     27 C          -6.2653  -15.1488   26.7518 C.ar    1  UNL1        0.1131
     28 N          -5.0813  -14.6450   25.9809 N.ar    1  UNL1       -0.2229
     29 C          -5.2114  -15.1246   24.5657 C.ar    1  UNL1        0.1748
     30 N          -6.4758  -15.9248   24.4617 N.ar    1  UNL1       -0.3382
     31 H          -6.8180  -16.3632   23.6494 H       1  UNL1        0.1672
@<TRIPOS>BOND
     1    10    11    2
     2    11    12    1
     3    12    13    1
     4    13    14    1
     5    14    15    1
     6    15    16    1
     7    16     9    1
     8     9     3    1
     9     3     4   ar
    10     4     5   ar
    11     5     6   ar
    12     6     2    1
    13     2     1    1
    14     1    17    1
    15    17    18    1
    16    18    19    1
    17    19    20    1
    18    20    21    1
    19    21    22    1
    20    22    25    1
    21    25    26    1
    22    26    27   ar
    23    27    28   ar
    24    28    29   ar
    25    29    30   ar
    26    22    23    1
    27    23    24    1
    28     6     7   ar
    29     7     8   ar
    30    16    11   am
    31     8     3   ar
    32    24    19    1
    33    30    26   ar
    34    30    31    1
@<TRIPOS>MOLECULE
*****
 31 34 0 0 0
SMALL
GASTEIGER

@<TRIPOS>ATOM
      1 C         -10.6555  -19.6526   19.2770 C.3     1  UNL1        0.2068
      2 O         -11.2290  -19.7060   20.6621 O.3     1  UNL1       -0.4754
      3 C          -9.8571  -16.7660   23.7805 C.ar    1  UNL1       -0.0021
      4 C         -10.3171  -16.2767   22.4391 C.ar    1  UNL1        0.0005
      5 C         -10.7743  -17.2567   21.3997 C.ar    1  UNL1        0.0366
      6 C         -10.7717  -18.7260   21.7015 C.ar    1  UNL1        0.1385
      7 C         -10.3118  -19.2154   23.0428 C.ar    1  UNL1        0.0366
      8 C          -9.8545  -18.2353   24.0823 C.ar    1  UNL1        0.0005
      9 C          -9.3999  -15.7860   24.8199 C.3     1  UNL1        0.1201
     10 O          -8.4586  -15.7463   27.6682 O.2     1  UNL1       -0.2749
     11 C          -7.4675  -15.6237   26.5490 C.2     1  UNL1        0.2259
     12 C          -6.0058  -15.4813   26.8539 C.3     1  UNL1        0.0853
     13 C          -5.0146  -15.3587   25.7347 C.3     1  UNL1        0.0113
     14 C          -5.4852  -15.3786   24.3106 C.3     1  UNL1        0.0220
     15 C          -6.9469  -15.5210   24.0057 C.3     1  UNL1        0.0937
     16 N          -7.9381  -15.6436   25.1249 N.am    1  UNL1       -0.2754
     17 C          -9.1727  -19.5357   19.0832 C.3     1  UNL1        0.0646
     18 C          -8.2492  -20.5040   19.7610 C.3     1  UNL1        0.0759
     19 N          -6.9919  -20.0101   20.4132 N.3     1  UNL1       -0.2726
     20 C          -7.0623  -18.9468   21.4689 C.3     1  UNL1        0.0721
     21 C          -5.8050  -18.4530   22.1210 C.3     1  UNL1        0.0178
     22 C          -4.4772  -19.0224   21.7175 C.3     1  UNL1        0.0087
     23 C          -4.4068  -20.0857   20.6617 C.3     1  UNL1        0.0178
     24 C          -5.6641  -20.5795   20.0096 C.3     1  UNL1        0.0721
     25 C          -3.2199  -18.5285   22.3696 C.3     1  UNL1        0.0453
     26 C          -2.1256  -17.9335   21.5340 C.ar    1  UNL1        0.0541
     27 C          -1.7655  -16.4792   21.4584 C.ar    1  UNL1        0.1131
     28 N          -0.6166  -16.3351   20.5050 N.ar    1  UNL1       -0.2229
     29 C          -0.2665  -17.7002   19.9913 C.ar    1  UNL1        0.1748
     30 N          -1.1991  -18.6881   20.6272 N.ar    1  UNL1       -0.3382
     31 H          -1.2026  -19.6609   20.4759 H       1  UNL1        0.1672
@<TRIPOS>BOND
     1    10    11    2
     2    11    12    1
     3    12    13    1
     4    13    14    1
     5    14    15    1
     6    15    16    1
     7    16     9    1
     8     9     3    1
     9     3     4   ar
    10     4     5   ar
    11     5     6   ar
    12     6     2    1
    13     2     1    1
    14     1    17    1
    15    17    18    1
    16    18    19    1
    17    19    20    1
    18    20    21    1
    19    21    22    1
    20    22    25    1
    21    25    26    1
    22    26    27   ar
    23    27    28   ar
    24    28    29   ar
    25    29    30   ar
    26    22    23    1
    27    23    24    1
    28     6     7   ar
    29     7     8   ar
    30    16    11   am
    31     8     3   ar
    32    24    19    1
    33    30    26   ar
    34    30    31    1
@<TRIPOS>MOLECULE
*****
 31 34 0 0 0
SMALL
GASTEIGER

@<TRIPOS>ATOM
      1 C         -10.4062  -19.7200   19.2020 C.3     1  UNL1        0.2068
      2 O         -11.1182  -19.6304   20.5192 O.3     1  UNL1       -0.4754
      3 C          -9.8798  -16.5336   23.5402 C.ar    1  UNL1       -0.0021
      4 C         -10.3380  -16.1097   22.1762 C.ar    1  UNL1        0.0005
      5 C         -10.7508  -17.1419   21.1692 C.ar    1  UNL1        0.0366
      6 C         -10.7054  -18.5981   21.5262 C.ar    1  UNL1        0.1385
      7 C         -10.2471  -19.0221   22.8901 C.ar    1  UNL1        0.0366
      8 C          -9.8343  -17.9898   23.8971 C.ar    1  UNL1        0.0005
      9 C          -9.4670  -15.5013   24.5471 C.3     1  UNL1        0.1201
     10 O          -7.0973  -15.2655   22.7225 O.2     1  UNL1       -0.2749
     11 C          -6.8938  -15.4023   24.2023 C.2     1  UNL1        0.2259
     12 C          -5.5054  -15.4213   24.7697 C.3     1  UNL1        0.0853
     13 C          -5.3018  -15.5581   26.2496 C.3     1  UNL1        0.0113
     14 C          -6.4866  -15.6760   27.1619 C.3     1  UNL1        0.0220
     15 C          -7.8749  -15.6571   26.5944 C.3     1  UNL1        0.0937
     16 N          -8.0785  -15.5202   25.1146 N.am    1  UNL1       -0.2754
     17 C          -8.9069  -19.7039   19.1572 C.3     1  UNL1        0.0646
     18 C          -8.1184  -20.5108   20.1456 C.3     1  UNL1        0.0759
     19 N          -6.8206  -19.9818   20.6803 N.3     1  UNL1       -0.2726
     20 C          -5.5217  -20.4443   20.0896 C.3     1  UNL1        0.0721
     21 C          -4.2239  -19.9153   20.6244 C.3     1  UNL1        0.0178
     22 C          -4.2251  -18.9237   21.7499 C.3     1  UNL1        0.0087
     23 C          -5.5241  -18.4611   22.3406 C.3     1  UNL1        0.0178
     24 C          -6.8218  -18.9902   21.8058 C.3     1  UNL1        0.0721
     25 C          -2.9274  -18.3946   22.2847 C.3     1  UNL1        0.0453
     26 C          -1.7972  -18.0919   21.3461 C.ar    1  UNL1        0.0541
     27 C          -1.1262  -19.0712   20.4292 C.ar    1  UNL1        0.1131
     28 N          -0.0539  -18.3412   19.6761 N.ar    1  UNL1       -0.2229
     29 C          -0.0621  -16.9108   20.1275 C.ar    1  UNL1        0.1748
     30 N          -1.1395  -16.7567   21.1597 N.ar    1  UNL1       -0.3382
     31 H          -1.3739  -15.9252   21.6318 H       1  UNL1        0.1672
@<TRIPOS>BOND
     1    10    11    2
     2    11    12    1
     3    12    13    1
     4    13    14    1
     5    14    15    1
     6    15    16    1
     7    16     9    1
     8     9     3    1
     9     3     4   ar
    10     4     5   ar
    11     5     6   ar
    12     6     2    1
    13     2     1    1
    14     1    17    1
    15    17    18    1
    16    18    19    1
    17    19    20    1
    18    20    21    1
    19    21    22    1
    20    22    25    1
    21    25    26    1
    22    26    27   ar
    23    27    28   ar
    24    28    29   ar
    25    29    30   ar
    26    22    23    1
    27    23    24    1
    28     6     7   ar
    29     7     8   ar
    30    16    11   am
    31     8     3   ar
    32    24    19    1
    33    30    26   ar
    34    30    31    1
@<TRIPOS>MOLECULE
*****
 31 34 0 0 0
SMALL
GASTEIGER

@<TRIPOS>ATOM
      1 C          -6.6324  -14.8390   27.5942 C.3     1  UNL1        0.2068
      2 O          -5.8243  -14.4652   26.3869 O.3     1  UNL1       -0.4754
      3 C          -4.0889  -17.6787   23.7578 C.ar    1  UNL1       -0.0021
      4 C          -3.8106  -17.6840   25.2318 C.ar    1  UNL1        0.0005
      5 C          -4.3890  -16.6129   26.1081 C.ar    1  UNL1        0.0366
      6 C          -5.2458  -15.5364   25.5106 C.ar    1  UNL1        0.1385
      7 C          -5.5242  -15.5310   24.0367 C.ar    1  UNL1        0.0366
      8 C          -4.9457  -16.6022   23.1602 C.ar    1  UNL1        0.0005
      9 C          -3.5105  -18.7498   22.8815 C.3     1  UNL1        0.1201
     10 O          -4.6774  -19.9359   20.3851 O.2     1  UNL1       -0.2749
     11 C          -3.5191  -18.9872   20.2942 C.2     1  UNL1        0.2259
     12 C          -2.9442  -18.6315   18.9552 C.3     1  UNL1        0.0853
     13 C          -1.7859  -17.6828   18.8644 C.3     1  UNL1        0.0113
     14 C          -1.2025  -17.0897   20.1125 C.3     1  UNL1        0.0220
     15 C          -1.7773  -17.4454   21.4515 C.3     1  UNL1        0.0937
     16 N          -2.9356  -18.3942   21.5424 N.am    1  UNL1       -0.2754
     17 C          -8.0775  -15.2116   27.4434 C.3     1  UNL1        0.0646
     18 C          -8.4620  -16.6408   27.1995 C.3     1  UNL1        0.0759
     19 N          -8.9684  -17.0618   25.8518 N.3     1  UNL1       -0.2726
     20 C          -9.6053  -18.4085   25.6770 C.3     1  UNL1        0.0721
     21 C         -10.1118  -18.8295   24.3293 C.3     1  UNL1        0.0178
     22 C          -9.9814  -17.9036   23.1563 C.3     1  UNL1        0.0087
     23 C          -9.3444  -16.5568   23.3312 C.3     1  UNL1        0.0178
     24 C          -8.8380  -16.1359   24.6789 C.3     1  UNL1        0.0721
     25 C         -10.4878  -18.3245   21.8087 C.3     1  UNL1        0.0453
     26 C         -11.2027  -17.3374   20.9343 C.ar    1  UNL1        0.0541
     27 C         -12.5903  -16.8104   21.1512 C.ar    1  UNL1        0.1131
     28 N         -12.9007  -15.8513   20.0406 N.ar    1  UNL1       -0.2229
     29 C         -11.7050  -15.7855   19.1372 C.ar    1  UNL1        0.1748
     30 N         -10.6556  -16.7039   19.6896 N.ar    1  UNL1       -0.3382
     31 H          -9.7643  -16.8630   19.3030 H       1  UNL1        0.1672
@<TRIPOS>BOND
     1    10    11    2
     2    11    12    1
     3    12    13    1
     4    13    14    1
     5    14    15    1
     6    15    16    1
     7    16     9    1
     8     9     3    1
     9     3     4   ar
    10     4     5   ar
    11     5     6   ar
    12     6     2    1
    13     2     1    1
    14     1    17    1
    15    17    18    1
    16    18    19    1
    17    19    20    1
    18    20    21    1
    19    21    22    1
    20    22    25    1
    21    25    26    1
    22    26    27   ar
    23    27    28   ar
    24    28    29   ar
    25    29    30   ar
    26    22    23    1
    27    23    24    1
    28     6     7   ar
    29     7     8   ar
    30    16    11   am
    31     8     3   ar
    32    24    19    1
    33    30    26   ar
    34    30    31    1
@<TRIPOS>MOLECULE
*****
 31 34 0 0 0
SMALL
GASTEIGER

@<TRIPOS>ATOM
      1 C          -6.6320  -15.4357   27.4414 C.3     1  UNL1        0.2068
      2 O          -8.1057  -15.2722   27.2144 O.3     1  UNL1       -0.4754
      3 C         -10.2349  -17.9187   24.2628 C.ar    1  UNL1       -0.0021
      4 C          -9.9383  -16.4908   23.9119 C.ar    1  UNL1        0.0005
      5 C          -9.2286  -15.6086   24.8958 C.ar    1  UNL1        0.0366
      6 C          -8.8154  -16.1543   26.2305 C.ar    1  UNL1        0.1385
      7 C          -9.1120  -17.5822   26.5814 C.ar    1  UNL1        0.0366
      8 C          -9.8218  -18.4645   25.5975 C.ar    1  UNL1        0.0005
      9 C         -10.9446  -18.8009   23.2789 C.3     1  UNL1        0.1201
     10 O         -12.5887  -18.0857   20.8735 O.2     1  UNL1       -0.2749
     11 C         -11.2039  -18.6353   20.6991 C.2     1  UNL1        0.2259
     12 C         -10.6412  -18.8273   19.3220 C.3     1  UNL1        0.0853
     13 C          -9.2565  -19.3769   19.1475 C.3     1  UNL1        0.0113
     14 C          -8.4345  -19.7345   20.3501 C.3     1  UNL1        0.0220
     15 C          -8.9972  -19.5425   21.7272 C.3     1  UNL1        0.0937
     16 N         -10.3819  -18.9929   21.9017 N.am    1  UNL1       -0.2754
     17 C          -5.6636  -15.1146   26.3419 C.3     1  UNL1        0.0646
     18 C          -6.0923  -15.2259   24.9088 C.3     1  UNL1        0.0759
     19 N          -5.4477  -16.2389   24.0096 N.3     1  UNL1       -0.2726
     20 C          -3.9598  -16.2346   23.8203 C.3     1  UNL1        0.0721
     21 C          -3.3152  -17.2476   22.9211 C.3     1  UNL1        0.0178
     22 C          -4.1587  -18.2648   22.2113 C.3     1  UNL1        0.0087
     23 C          -5.6467  -18.2690   22.4007 C.3     1  UNL1        0.0178
     24 C          -6.2912  -17.2561   23.2998 C.3     1  UNL1        0.0721
     25 C          -3.5142  -19.2778   21.3121 C.3     1  UNL1        0.0453
     26 C          -2.4588  -18.8502   20.3358 C.ar    1  UNL1        0.0541
     27 C          -2.6588  -18.6154   18.8678 C.ar    1  UNL1        0.1131
     28 N          -1.3417  -18.2024   18.2808 N.ar    1  UNL1       -0.2229
     29 C          -0.3277  -18.1820   19.3860 C.ar    1  UNL1        0.1748
     30 N          -1.0180  -18.5823   20.6560 N.ar    1  UNL1       -0.3382
     31 H          -0.5991  -18.6562   21.5439 H       1  UNL1        0.1672
@<TRIPOS>BOND
     1    10    11    2
     2    11    12    1
     3    12    13    1
     4    13    14    1
     5    14    15    1
     6    15    16    1
     7    16     9    1
     8     9     3    1
     9     3     4   ar
    10     4     5   ar
    11     5     6   ar
    12     6     2    1
    13     2     1    1
    14     1    17    1
    15    17    18    1
    16    18    19    1
    17    19    20    1
    18    20    21    1
    19    21    22    1
    20    22    25    1
    21    25    26    1
    22    26    27   ar
    23    27    28   ar
    24    28    29   ar
    25    29    30   ar
    26    22    23    1
    27    23    24    1
    28     6     7   ar
    29     7     8   ar
    30    16    11   am
    31     8     3   ar
    32    24    19    1
    33    30    26   ar
    34    30    31    1
@<TRIPOS>MOLECULE
*****
 31 34 0 0 0
SMALL
GASTEIGER

@<TRIPOS>ATOM
      1 C          -6.7989  -14.8768   27.4310 C.3     1  UNL1        0.2068
      2 O          -5.9821  -14.4883   26.2343 O.3     1  UNL1       -0.4754
      3 C          -3.8934  -17.6536   23.8120 C.ar    1  UNL1       -0.0021
      4 C          -3.7916  -17.6654   25.3085 C.ar    1  UNL1        0.0005
      5 C          -4.4878  -16.6103   26.1160 C.ar    1  UNL1        0.0366
      6 C          -5.2859  -15.5434   25.4269 C.ar    1  UNL1        0.1385
      7 C          -5.3877  -15.5315   23.9305 C.ar    1  UNL1        0.0366
      8 C          -4.6914  -16.5866   23.1229 C.ar    1  UNL1        0.0005
      9 C          -3.1972  -18.7087   23.0045 C.3     1  UNL1        0.1201
     10 O          -4.7069  -19.9209   20.7130 O.2     1  UNL1       -0.2749
     11 C          -3.5334  -19.0250   20.4478 C.2     1  UNL1        0.2259
     12 C          -3.1148  -18.7352   19.0369 C.3     1  UNL1        0.0853
     13 C          -1.9413  -17.8394   18.7717 C.3     1  UNL1        0.0113
     14 C          -1.1864  -17.2333   19.9174 C.3     1  UNL1        0.0220
     15 C          -1.6050  -17.5231   21.3284 C.3     1  UNL1        0.0937
     16 N          -2.7785  -18.4189   21.5935 N.am    1  UNL1       -0.2754
     17 C          -8.2200  -15.3238   27.2561 C.3     1  UNL1        0.0646
     18 C          -8.5246  -16.7687   26.9926 C.3     1  UNL1        0.0759
     19 N          -9.0890  -17.1866   25.6671 N.3     1  UNL1       -0.2726
     20 C          -8.9598  -16.2815   24.4780 C.3     1  UNL1        0.0721
     21 C          -9.5242  -16.6994   23.1525 C.3     1  UNL1        0.0178
     22 C         -10.2178  -18.0224   23.0162 C.3     1  UNL1        0.0087
     23 C         -10.3469  -18.9276   24.2054 C.3     1  UNL1        0.0178
     24 C          -9.7826  -18.5096   25.5308 C.3     1  UNL1        0.0721
     25 C         -10.7822  -18.4404   21.6908 C.3     1  UNL1        0.0453
     26 C          -9.8876  -19.0532   20.6543 C.ar    1  UNL1        0.0541
     27 C          -8.4072  -19.2608   20.7788 C.ar    1  UNL1        0.1131
     28 N          -7.9210  -19.9018   19.5129 N.ar    1  UNL1       -0.2229
     29 C          -9.1009  -20.0905   18.6061 C.ar    1  UNL1        0.1748
     30 N         -10.3163  -19.5660   19.3115 N.ar    1  UNL1       -0.3382
     31 H         -11.2342  -19.5595   18.9556 H       1  UNL1        0.1672
@<TRIPOS>BOND
     1    10    11    2
     2    11    12    1
     3    12    13    1
     4    13    14    1
     5    14    15    1
     6    15    16    1
     7    16     9    1
     8     9     3    1
     9     3     4   ar
    10     4     5   ar
    11     5     6   ar
    12     6     2    1
    13     2     1    1
    14     1    17    1
    15    17    18    1
    16    18    19    1
    17    19    20    1
    18    20    21    1
    19    21    22    1
    20    22    25    1
    21    25    26    1
    22    26    27   ar
    23    27    28   ar
    24    28    29   ar
    25    29    30   ar
    26    22    23    1
    27    23    24    1
    28     6     7   ar
    29     7     8   ar
    30    16    11   am
    31     8     3   ar
    32    24    19    1
    33    30    26   ar
    34    30    31    1
@<TRIPOS>MOLECULE
*****
 31 34 0 0 0
SMALL
GASTEIGER

@<TRIPOS>ATOM
      1 C          -0.7863    2.9949   22.2490 C.3     1  UNL1        0.2068
      2 O          -1.1317    2.2022   21.0233 O.3     1  UNL1       -0.4754
      3 C           2.1422    0.4697   18.4678 C.ar    1  UNL1       -0.0021
      4 C           1.7037    1.8897   18.2642 C.ar    1  UNL1        0.0005
      5 C           0.6125    2.4672   19.1160 C.ar    1  UNL1        0.0366
      6 C          -0.0404    1.6247   20.1715 C.ar    1  UNL1        0.1385
      7 C           0.3980    0.2048   20.3751 C.ar    1  UNL1        0.0366
      8 C           1.4893   -0.3728   19.5233 C.ar    1  UNL1        0.0005
      9 C           3.2334   -0.1078   17.6160 C.3     1  UNL1        0.1201
     10 O           5.3773   -2.1974   17.4229 O.2     1  UNL1       -0.2749
     11 C           5.7359   -0.7861   17.7829 C.2     1  UNL1        0.2259
     12 C           7.1663   -0.4195   18.0464 C.3     1  UNL1        0.0853
     13 C           7.5248    0.9918   18.4064 C.3     1  UNL1        0.0113
     14 C           6.4529    2.0366   18.5029 C.3     1  UNL1        0.0220
     15 C           5.0225    1.6700   18.2395 C.3     1  UNL1        0.0937
     16 N           4.6640    0.2587   17.8795 N.am    1  UNL1       -0.2754
     17 C           0.6444    3.3359   22.5432 C.3     1  UNL1        0.0646
     18 C           1.4288    2.5052   23.5151 C.3     1  UNL1        0.0759
     19 N           2.4346    1.5123   23.0123 N.3     1  UNL1       -0.2726
     20 C           2.4112    0.1000   23.5169 C.3     1  UNL1        0.0721
     21 C           3.4170   -0.8929   23.0141 C.3     1  UNL1        0.0178
     22 C           4.4461   -0.4733   22.0067 C.3     1  UNL1        0.0087
     23 C           4.4694    0.9391   21.5020 C.3     1  UNL1        0.0178
     24 C           3.4636    1.9319   22.0048 C.3     1  UNL1        0.0721
     25 C           5.4518   -1.4661   21.5039 C.3     1  UNL1        0.0453
     26 C           4.9943   -2.6875   20.7632 C.ar    1  UNL1        0.0541
     27 C           5.7589   -3.9702   20.6206 C.ar    1  UNL1        0.1131
     28 N           4.9290   -4.9162   19.8044 N.ar    1  UNL1       -0.2229
     29 C           3.6515   -4.2183   19.4425 C.ar    1  UNL1        0.1748
     30 N           3.6919   -2.8409   20.0351 N.ar    1  UNL1       -0.3382
     31 H           2.9872   -2.1575   19.9594 H       1  UNL1        0.1672
@<TRIPOS>BOND
     1    10    11    2
     2    11    12    1
     3    12    13    1
     4    13    14    1
     5    14    15    1
     6    15    16    1
     7    16     9    1
     8     9     3    1
     9     3     4   ar
    10     4     5   ar
    11     5     6   ar
    12     6     2    1
    13     2     1    1
    14     1    17    1
    15    17    18    1
    16    18    19    1
    17    19    20    1
    18    20    21    1
    19    21    22    1
    20    22    25    1
    21    25    26    1
    22    26    27   ar
    23    27    28   ar
    24    28    29   ar
    25    29    30   ar
    26    22    23    1
    27    23    24    1
    28     6     7   ar
    29     7     8   ar
    30    16    11   am
    31     8     3   ar
    32    24    19    1
    33    30    26   ar
    34    30    31    1
@<TRIPOS>MOLECULE
*****
 31 34 0 0 0
SMALL
GASTEIGER

@<TRIPOS>ATOM
      1 C           8.7120   -5.2774   24.3719 C.3     1  UNL1        0.2068
      2 O           8.1060   -3.9449   24.0438 O.3     1  UNL1       -0.4754
      3 C           4.9348   -3.6363   20.8661 C.ar    1  UNL1       -0.0021
      4 C           6.3637   -3.8780   20.4788 C.ar    1  UNL1        0.0005
      5 C           7.4208   -3.9809   21.5381 C.ar    1  UNL1        0.0366
      6 C           7.0490   -3.8421   22.9846 C.ar    1  UNL1        0.1385
      7 C           5.6202   -3.6004   23.3719 C.ar    1  UNL1        0.0366
      8 C           4.5631   -3.4975   22.3127 C.ar    1  UNL1        0.0005
      9 C           3.8778   -3.5335   19.8069 C.3     1  UNL1        0.1201
     10 O           5.2856   -2.3526   17.4355 O.2     1  UNL1       -0.2749
     11 C           4.1718   -1.5980   18.0988 C.2     1  UNL1        0.2259
     12 C           3.7619   -0.2530   17.5764 C.3     1  UNL1        0.0853
     13 C           2.6481    0.5016   18.2397 C.3     1  UNL1        0.0113
     14 C           1.9441   -0.0888   19.4253 C.3     1  UNL1        0.0220
     15 C           2.3540   -1.4338   19.9477 C.3     1  UNL1        0.0937
     16 N           3.4679   -2.1884   19.2844 N.am    1  UNL1       -0.2754
     17 C           8.3661   -5.9616   25.6611 C.3     1  UNL1        0.0646
     18 C           7.0397   -5.7063   26.3133 C.3     1  UNL1        0.0759
     19 N           6.9794   -5.2970   27.7552 N.3     1  UNL1       -0.2726
     20 C           6.5092   -3.9216   28.1254 C.3     1  UNL1        0.0721
     21 C           6.4488   -3.5124   29.5673 C.3     1  UNL1        0.0178
     22 C           6.8586   -4.4786   30.6389 C.3     1  UNL1        0.0087
     23 C           7.3288   -5.8541   30.2687 C.3     1  UNL1        0.0178
     24 C           7.3892   -6.2633   28.8268 C.3     1  UNL1        0.0721
     25 C           6.7983   -4.0695   32.0807 C.3     1  UNL1        0.0453
     26 C           6.0247   -2.8487   32.4821 C.ar    1  UNL1        0.0541
     27 C           6.5838   -1.4673   32.6533 C.ar    1  UNL1        0.1131
     28 N           5.4607   -0.5598   33.0598 N.ar    1  UNL1       -0.2229
     29 C           4.2076   -1.3803   33.1398 C.ar    1  UNL1        0.1748
     30 N           4.5561   -2.7949   32.7828 N.ar    1  UNL1       -0.3382
     31 H           3.9307   -3.5546   32.7513 H       1  UNL1        0.1672
@<TRIPOS>BOND
     1    10    11    2
     2    11    12    1
     3    12    13    1
     4    13    14    1
     5    14    15    1
     6    15    16    1
     7    16     9    1
     8     9     3    1
     9     3     4   ar
    10     4     5   ar
    11     5     6   ar
    12     6     2    1
    13     2     1    1
    14     1    17    1
    15    17    18    1
    16    18    19    1
    17    19    20    1
    18    20    21    1
    19    21    22    1
    20    22    25    1
    21    25    26    1
    22    26    27   ar
    23    27    28   ar
    24    28    29   ar
    25    29    30   ar
    26    22    23    1
    27    23    24    1
    28     6     7   ar
    29     7     8   ar
    30    16    11   am
    31     8     3   ar
    32    24    19    1
    33    30    26   ar
    34    30    31    1
@<TRIPOS>MOLECULE
*****
 31 34 0 0 0
SMALL
GASTEIGER

@<TRIPOS>ATOM
      1 C           4.7013   -0.9702   17.2642 C.3     1  UNL1        0.2068
      2 O           5.0908   -2.3651   17.6549 O.3     1  UNL1       -0.4754
      3 C           7.2303   -3.0975   21.5455 C.ar    1  UNL1       -0.0021
      4 C           5.9220   -3.7775   21.2693 C.ar    1  UNL1        0.0005
      5 C           5.2088   -3.5334   19.9725 C.ar    1  UNL1        0.0366
      6 C           5.8039   -2.6093   18.9518 C.ar    1  UNL1        0.1385
      7 C           7.1121   -1.9293   19.2278 C.ar    1  UNL1        0.0366
      8 C           7.8253   -2.1735   20.5247 C.ar    1  UNL1        0.0005
      9 C           7.9434   -3.3417   22.8423 C.3     1  UNL1        0.1201
     10 O           9.3698   -5.4383   21.2392 O.2     1  UNL1       -0.2749
     11 C           8.7837   -5.7856   22.5756 C.2     1  UNL1        0.2259
     12 C           8.9109   -7.1812   23.1104 C.3     1  UNL1        0.0853
     13 C           8.3249   -7.5285   24.4468 C.3     1  UNL1        0.0113
     14 C           7.6117   -6.4803   25.2484 C.3     1  UNL1        0.0220
     15 C           7.4845   -5.0847   24.7135 C.3     1  UNL1        0.0937
     16 N           8.0706   -4.7374   23.3771 N.am    1  UNL1       -0.2754
     17 C           3.4659   -0.3466   17.8428 C.3     1  UNL1        0.0646
     18 C           3.5750    0.5936   19.0064 C.3     1  UNL1        0.0759
     19 N           3.8632    0.0592   20.3781 N.3     1  UNL1       -0.2726
     20 C           5.1220    0.4585   21.0894 C.3     1  UNL1        0.0721
     21 C           5.4101   -0.0760   22.4611 C.3     1  UNL1        0.0178
     22 C           4.4394   -1.0096   23.1214 C.3     1  UNL1        0.0087
     23 C           3.1806   -1.4089   22.4100 C.3     1  UNL1        0.0178
     24 C           2.8925   -0.8745   21.0384 C.3     1  UNL1        0.0721
     25 C           4.7275   -1.5441   24.4930 C.3     1  UNL1        0.0453
     26 C           3.9804   -1.0091   25.6785 C.ar    1  UNL1        0.0541
     27 C           3.4676    0.3914   25.8390 C.ar    1  UNL1        0.1131
     28 N           2.7851    0.4854   27.1713 N.ar    1  UNL1       -0.2229
     29 C           2.8760   -0.8570   27.8344 C.ar    1  UNL1        0.1748
     30 N           3.6147   -1.7807   26.9118 N.ar    1  UNL1       -0.3382
     31 H           3.8230   -2.7271   27.0853 H       1  UNL1        0.1672
@<TRIPOS>BOND
     1    10    11    2
     2    11    12    1
     3    12    13    1
     4    13    14    1
     5    14    15    1
     6    15    16    1
     7    16     9    1
     8     9     3    1
     9     3     4   ar
    10     4     5   ar
    11     5     6   ar
    12     6     2    1
    13     2     1    1
    14     1    17    1
    15    17    18    1
    16    18    19    1
    17    19    20    1
    18    20    21    1
    19    21    22    1
    20    22    25    1
    21    25    26    1
    22    26    27   ar
    23    27    28   ar
    24    28    29   ar
    25    29    30   ar
    26    22    23    1
    27    23    24    1
    28     6     7   ar
    29     7     8   ar
    30    16    11   am
    31     8     3   ar
    32    24    19    1
    33    30    26   ar
    34    30    31    1
