@<TRIPOS>MOLECULE
*****
 23 25 0 0 0
SMALL
GASTEIGER

@<TRIPOS>ATOM
      1 N          -7.5333  -18.1401   22.5983 N.3     1  UNL1       -0.2638
      2 C          -6.2878  -18.7404   22.0167 C.3     1  UNL1        0.0752
      3 C          -6.2191  -19.6395   20.8180 C.3     1  UNL1        0.0345
      4 C          -4.7811  -20.0018   20.5920 C.3     1  UNL1        0.0700
      5 N          -3.9611  -19.3267   21.6512 N.3     1  UNL1       -0.2963
      6 C          -4.8923  -18.5471   22.5316 C.3     1  UNL1        0.0848
      7 H          -3.2863  -18.6968   21.2174 H       1  UNL1        0.1233
      8 C          -8.7371  -19.0008   22.8432 C.3     1  UNL1        0.1003
      9 CL        -13.7188  -17.9069   23.8362 Cl      1  UNL1       -0.0814
     10 C         -12.5789  -18.0061   22.8662 C.ar    1  UNL1        0.0679
     11 C         -12.7901  -17.6575   21.4226 C.ar    1  UNL1        0.0122
     12 C         -11.6503  -17.7567   20.4526 C.ar    1  UNL1        0.0006
     13 C         -10.2994  -18.2045   20.9261 C.ar    1  UNL1       -0.0020
     14 C         -10.0881  -18.5530   22.3697 C.ar    1  UNL1        0.0053
     15 C         -11.2279  -18.4538   23.3397 C.ar    1  UNL1        0.0655
     16 CL        -11.0167  -18.8024   24.7833 Cl      1  UNL1       -0.0816
     17 C          -7.5750  -16.6789   22.9351 C.3     1  UNL1        0.1189
     18 C          -7.3324  -16.2269   24.3446 C.ar    1  UNL1        0.0752
     19 C          -8.4622  -16.2079   25.3311 C.ar    1  UNL1        0.0161
     20 C          -8.2196  -15.7559   26.7406 C.ar    1  UNL1        0.0028
     21 C          -6.8472  -15.3228   27.1637 C.ar    1  UNL1        0.0207
     22 C          -5.7174  -15.3418   26.1772 C.ar    1  UNL1        0.0985
     23 N          -5.9600  -15.7938   24.7676 N.ar    1  UNL1       -0.2468
@<TRIPOS>BOND
     1     9    10    1
     2    10    11   ar
     3    11    12   ar
     4    12    13   ar
     5    13    14   ar
     6    14     8    1
     7     8     1    1
     8     1    17    1
     9    17    18    1
    10    18    19   ar
    11    19    20   ar
    12    20    21   ar
    13    21    22   ar
    14    22    23   ar
    15     2     1    1
    16     2     3    1
    17     3     4    1
    18     4     5    1
    19     5     6    1
    20    14    15   ar
    21    15    16    1
    22    15    10   ar
    23    23    18   ar
    24     6     2    1
    25     5     7    1
@<TRIPOS>MOLECULE
*****
 23 25 0 0 0
SMALL
GASTEIGER

@<TRIPOS>ATOM
      1 N          -7.9076  -17.7765   22.0033 N.3     1  UNL1       -0.2638
      2 C          -9.1637  -18.0915   21.2464 C.3     1  UNL1        0.0752
      3 C          -9.3656  -19.2514   20.3169 C.3     1  UNL1        0.0345
      4 C         -10.7652  -19.1787   19.7821 C.3     1  UNL1        0.0700
      5 N         -11.4282  -17.9739   20.3810 N.3     1  UNL1       -0.2963
      6 C         -10.4384  -17.3019   21.2859 C.3     1  UNL1        0.0848
      7 H         -12.2479  -18.2601   20.9163 H       1  UNL1        0.1233
      8 C          -7.5834  -16.3562   22.3604 C.3     1  UNL1        0.1003
      9 CL         -8.4133  -15.5168   27.4207 Cl      1  UNL1       -0.0814
     10 C          -7.4721  -15.6079   26.2562 C.ar    1  UNL1        0.0679
     11 C          -6.0048  -15.3705   26.4575 C.ar    1  UNL1        0.0122
     12 C          -5.0636  -15.4616   25.2931 C.ar    1  UNL1        0.0006
     13 C          -5.5898  -15.7901   23.9274 C.ar    1  UNL1       -0.0020
     14 C          -7.0572  -16.0276   23.7262 C.ar    1  UNL1        0.0053
     15 C          -7.9983  -15.9365   24.8906 C.ar    1  UNL1        0.0655
     16 CL         -9.4657  -16.1739   24.6893 Cl      1  UNL1       -0.0816
     17 C          -6.9757  -18.8819   22.4031 C.3     1  UNL1        0.1189
     18 C          -5.6340  -19.0069   21.7441 C.ar    1  UNL1        0.0752
     19 C          -4.4063  -19.2248   22.5778 C.ar    1  UNL1        0.0161
     20 C          -3.0646  -19.3498   21.9189 C.ar    1  UNL1        0.0028
     21 C          -2.9507  -19.2569   20.4260 C.ar    1  UNL1        0.0207
     22 C          -4.1784  -19.0390   19.5923 C.ar    1  UNL1        0.0985
     23 N          -5.5201  -18.9140   20.2513 N.ar    1  UNL1       -0.2468
@<TRIPOS>BOND
     1     9    10    1
     2    10    11   ar
     3    11    12   ar
     4    12    13   ar
     5    13    14   ar
     6    14     8    1
     7     8     1    1
     8     1    17    1
     9    17    18    1
    10    18    19   ar
    11    19    20   ar
    12    20    21   ar
    13    21    22   ar
    14    22    23   ar
    15     2     1    1
    16     2     3    1
    17     3     4    1
    18     4     5    1
    19     5     6    1
    20    14    15   ar
    21    15    16    1
    22    15    10   ar
    23    23    18   ar
    24     6     2    1
    25     5     7    1
@<TRIPOS>MOLECULE
*****
 23 25 0 0 0
SMALL
GASTEIGER

@<TRIPOS>ATOM
      1 N          -8.7369  -17.7884   22.3592 N.3     1  UNL1       -0.2638
      2 C          -9.7751  -18.3472   23.2865 C.3     1  UNL1        0.0752
      3 C         -11.2058  -17.9058   23.3768 C.3     1  UNL1        0.0345
      4 C         -11.8798  -18.7313   24.4325 C.3     1  UNL1        0.0700
      5 N         -10.8656  -19.6828   24.9946 N.3     1  UNL1       -0.2963
      6 C          -9.5648  -19.4454   24.2864 C.3     1  UNL1        0.0848
      7 H         -11.1716  -20.6440   24.8435 H       1  UNL1        0.1233
      8 C          -8.1987  -16.4061   22.5814 C.3     1  UNL1        0.1003
      9 CL         -7.3452  -15.0316   27.5193 Cl      1  UNL1       -0.0814
     10 C          -6.8205  -15.4571   26.1800 C.ar    1  UNL1        0.0679
     11 C          -5.3442  -15.6207   25.9704 C.ar    1  UNL1        0.0122
     12 C          -4.8195  -16.0462   24.6312 C.ar    1  UNL1        0.0006
     13 C          -5.7710  -16.3080   23.5016 C.ar    1  UNL1       -0.0020
     14 C          -7.2472  -16.1443   23.7112 C.ar    1  UNL1        0.0053
     15 C          -7.7719  -15.7188   25.0504 C.ar    1  UNL1        0.0655
     16 CL         -9.2482  -15.5552   25.2600 Cl      1  UNL1       -0.0816
     17 C          -8.2368  -18.6121   21.2096 C.3     1  UNL1        0.1189
     18 C          -6.7738  -18.9199   21.0878 C.ar    1  UNL1        0.0752
     19 C          -6.0298  -19.4995   22.2542 C.ar    1  UNL1        0.0161
     20 C          -4.5668  -19.8073   22.1325 C.ar    1  UNL1        0.0028
     21 C          -3.8478  -19.5355   20.8443 C.ar    1  UNL1        0.0207
     22 C          -4.5918  -18.9559   19.6779 C.ar    1  UNL1        0.0985
     23 N          -6.0549  -18.6481   19.7997 N.ar    1  UNL1       -0.2468
@<TRIPOS>BOND
     1     9    10    1
     2    10    11   ar
     3    11    12   ar
     4    12    13   ar
     5    13    14   ar
     6    14     8    1
     7     8     1    1
     8     1    17    1
     9    17    18    1
    10    18    19   ar
    11    19    20   ar
    12    20    21   ar
    13    21    22   ar
    14    22    23   ar
    15     2     1    1
    16     2     3    1
    17     3     4    1
    18     4     5    1
    19     5     6    1
    20    14    15   ar
    21    15    16    1
    22    15    10   ar
    23    23    18   ar
    24     6     2    1
    25     5     7    1
@<TRIPOS>MOLECULE
*****
 23 25 0 0 0
SMALL
GASTEIGER

@<TRIPOS>ATOM
      1 N          -7.4130  -18.3759   22.4711 N.3     1  UNL1       -0.2638
      2 C          -6.1464  -18.8139   21.7974 C.3     1  UNL1        0.0752
      3 C          -6.0124  -19.2461   20.3673 C.3     1  UNL1        0.0345
      4 C          -4.5746  -19.5958   20.1215 C.3     1  UNL1        0.0700
      5 N          -3.8199  -19.3798   21.3997 N.3     1  UNL1       -0.2963
      6 C          -4.7914  -18.8965   22.4354 C.3     1  UNL1        0.0848
      7 H          -3.0902  -18.6815   21.2571 H       1  UNL1        0.1233
      8 C          -8.4588  -19.3884   22.8330 C.3     1  UNL1        0.1003
      9 CL        -12.8721  -17.3640   20.9825 Cl      1  UNL1       -0.0814
     10 C         -12.0859  -17.9440   22.1207 C.ar    1  UNL1        0.0679
     11 C         -12.7203  -18.0918   23.4719 C.ar    1  UNL1        0.0122
     12 C         -11.9342  -18.6719   24.6101 C.ar    1  UNL1        0.0006
     13 C         -10.5137  -19.1041   24.3971 C.ar    1  UNL1       -0.0020
     14 C          -9.8794  -18.9562   23.0460 C.ar    1  UNL1        0.0053
     15 C         -10.6655  -18.3762   21.9077 C.ar    1  UNL1        0.0655
     16 CL        -10.0311  -18.2284   20.5566 Cl      1  UNL1       -0.0816
     17 C          -7.6338  -16.9253   22.7829 C.3     1  UNL1        0.1189
     18 C          -7.2460  -16.3792   24.1250 C.ar    1  UNL1        0.0752
     19 C          -5.8448  -15.8997   24.3632 C.ar    1  UNL1        0.0161
     20 C          -5.4570  -15.3536   25.7053 C.ar    1  UNL1        0.0028
     21 C          -6.4704  -15.2870   26.8093 C.ar    1  UNL1        0.0207
     22 C          -7.8716  -15.7665   26.5711 C.ar    1  UNL1        0.0985
     23 N          -8.2594  -16.3126   25.2289 N.ar    1  UNL1       -0.2468
@<TRIPOS>BOND
     1     9    10    1
     2    10    11   ar
     3    11    12   ar
     4    12    13   ar
     5    13    14   ar
     6    14     8    1
     7     8     1    1
     8     1    17    1
     9    17    18    1
    10    18    19   ar
    11    19    20   ar
    12    20    21   ar
    13    21    22   ar
    14    22    23   ar
    15     2     1    1
    16     2     3    1
    17     3     4    1
    18     4     5    1
    19     5     6    1
    20    14    15   ar
    21    15    16    1
    22    15    10   ar
    23    23    18   ar
    24     6     2    1
    25     5     7    1
@<TRIPOS>MOLECULE
*****
 23 25 0 0 0
SMALL
GASTEIGER

@<TRIPOS>ATOM
      1 N          -8.7061  -17.4456   22.1879 N.3     1  UNL1       -0.2638
      2 C         -10.0227  -17.3111   21.4819 C.3     1  UNL1        0.0752
      3 C         -11.1359  -16.3804   21.8620 C.3     1  UNL1        0.0345
      4 C         -12.2585  -16.5777   20.8868 C.3     1  UNL1        0.0700
      5 N         -11.8391  -17.6305   19.9041 N.3     1  UNL1       -0.2963
      6 C         -10.4573  -18.0837   20.2719 C.3     1  UNL1        0.0848
      7 H         -11.8365  -17.2422   18.9609 H       1  UNL1        0.1233
      8 C          -7.9693  -16.2201   22.6409 C.3     1  UNL1        0.1003
      9 CL         -4.7821  -14.7279   26.4638 Cl      1  UNL1       -0.0814
     10 C          -6.1123  -15.2541   26.0125 C.ar    1  UNL1        0.0679
     11 C          -7.1791  -15.5605   27.0215 C.ar    1  UNL1        0.0122
     12 C          -8.5093  -16.0868   26.5703 C.ar    1  UNL1        0.0006
     13 C          -8.7727  -16.3066   25.1101 C.ar    1  UNL1       -0.0020
     14 C          -7.7059  -16.0002   24.1011 C.ar    1  UNL1        0.0053
     15 C          -6.3757  -15.4740   24.5523 C.ar    1  UNL1        0.0655
     16 CL         -5.3089  -15.1676   23.5433 Cl      1  UNL1       -0.0816
     17 C          -8.1263  -18.8058   22.4409 C.3     1  UNL1        0.1189
     18 C          -6.8015  -19.1791   21.8447 C.ar    1  UNL1        0.0752
     19 C          -6.7236  -20.2602   20.8078 C.ar    1  UNL1        0.0161
     20 C          -5.3988  -20.6335   20.2116 C.ar    1  UNL1        0.0028
     21 C          -4.1518  -19.9257   20.6524 C.ar    1  UNL1        0.0207
     22 C          -4.2297  -18.8446   21.6893 C.ar    1  UNL1        0.0985
     23 N          -5.5546  -18.4713   22.2855 N.ar    1  UNL1       -0.2468
@<TRIPOS>BOND
     1     9    10    1
     2    10    11   ar
     3    11    12   ar
     4    12    13   ar
     5    13    14   ar
     6    14     8    1
     7     8     1    1
     8     1    17    1
     9    17    18    1
    10    18    19   ar
    11    19    20   ar
    12    20    21   ar
    13    21    22   ar
    14    22    23   ar
    15     2     1    1
    16     2     3    1
    17     3     4    1
    18     4     5    1
    19     5     6    1
    20    14    15   ar
    21    15    16    1
    22    15    10   ar
    23    23    18   ar
    24     6     2    1
    25     5     7    1
@<TRIPOS>MOLECULE
*****
 23 25 0 0 0
SMALL
GASTEIGER

@<TRIPOS>ATOM
      1 N          -8.1553  -16.7460   24.1429 N.3     1  UNL1       -0.2638
      2 C          -7.4509  -15.9754   25.2199 C.3     1  UNL1        0.0752
      3 C          -7.7835  -15.9991   26.6824 C.3     1  UNL1        0.0345
      4 C          -6.8284  -15.0841   27.3899 C.3     1  UNL1        0.0700
      5 N          -5.9054  -14.4949   26.3647 N.3     1  UNL1       -0.2963
      6 C          -6.2902  -15.0458   25.0236 C.3     1  UNL1        0.0848
      7 H          -4.9414  -14.7494   26.5799 H       1  UNL1        0.1233
      8 C          -7.5635  -16.8235   22.7668 C.3     1  UNL1        0.1003
      9 CL         -5.9146  -21.1003   20.3191 Cl      1  UNL1       -0.0814
     10 C          -5.6520  -19.9528   21.2488 C.ar    1  UNL1        0.0679
     11 C          -4.3023  -19.7961   21.8843 C.ar    1  UNL1        0.0122
     12 C          -4.0397  -18.6486   22.8139 C.ar    1  UNL1        0.0006
     13 C          -5.1267  -17.6578   23.1080 C.ar    1  UNL1       -0.0020
     14 C          -6.4764  -17.8144   22.4726 C.ar    1  UNL1        0.0053
     15 C          -6.7390  -18.9619   21.5429 C.ar    1  UNL1        0.0655
     16 CL         -8.0887  -19.1186   20.9075 Cl      1  UNL1       -0.0816
     17 C          -9.4515  -17.4391   24.4420 C.3     1  UNL1        0.1189
     18 C         -10.5239  -17.5083   23.3955 C.ar    1  UNL1        0.0752
     19 C         -10.9300  -18.8345   22.8243 C.ar    1  UNL1        0.0161
     20 C         -12.0024  -18.9037   21.7779 C.ar    1  UNL1        0.0028
     21 C         -12.6687  -17.6467   21.3025 C.ar    1  UNL1        0.0207
     22 C         -12.2627  -16.3205   21.8737 C.ar    1  UNL1        0.0985
     23 N         -11.1902  -16.2513   22.9203 N.ar    1  UNL1       -0.2468
@<TRIPOS>BOND
     1     9    10    1
     2    10    11   ar
     3    11    12   ar
     4    12    13   ar
     5    13    14   ar
     6    14     8    1
     7     8     1    1
     8     1    17    1
     9    17    18    1
    10    18    19   ar
    11    19    20   ar
    12    20    21   ar
    13    21    22   ar
    14    22    23   ar
    15     2     1    1
    16     2     3    1
    17     3     4    1
    18     4     5    1
    19     5     6    1
    20    14    15   ar
    21    15    16    1
    22    15    10   ar
    23    23    18   ar
    24     6     2    1
    25     5     7    1
@<TRIPOS>MOLECULE
*****
 23 25 0 0 0
SMALL
GASTEIGER

@<TRIPOS>ATOM
      1 N          -8.0910  -16.9360   24.0199 N.3     1  UNL1       -0.2638
      2 C          -7.6840  -16.1765   25.2476 C.3     1  UNL1        0.0752
      3 C          -8.4259  -16.1443   26.5509 C.3     1  UNL1        0.0345
      4 C          -7.6641  -15.2637   27.4965 C.3     1  UNL1        0.0700
      5 N          -6.4512  -14.7517   26.7776 N.3     1  UNL1       -0.2963
      6 C          -6.4635  -15.3158   25.3878 C.3     1  UNL1        0.0848
      7 H          -5.6072  -15.0518   27.2656 H       1  UNL1        0.1233
      8 C          -7.3216  -16.7662   22.7435 C.3     1  UNL1        0.1003
      9 CL         -3.1699  -19.8083   22.0294 Cl      1  UNL1       -0.0814
     10 C          -4.6026  -19.4753   21.7347 C.ar    1  UNL1        0.0679
     11 C          -5.3920  -20.3305   20.7884 C.ar    1  UNL1        0.0122
     12 C          -6.8245  -19.9976   20.4937 C.ar    1  UNL1        0.0006
     13 C          -7.4677  -18.8095   21.1454 C.ar    1  UNL1       -0.0020
     14 C          -6.6783  -17.9544   22.0918 C.ar    1  UNL1        0.0053
     15 C          -5.2458  -18.2873   22.3864 C.ar    1  UNL1        0.0655
     16 CL         -4.4564  -17.4321   23.3328 Cl      1  UNL1       -0.0816
     17 C          -9.2675  -17.8654   24.0685 C.3     1  UNL1        0.1189
     18 C         -10.4206  -17.6652   23.1304 C.ar    1  UNL1        0.0752
     19 C         -11.1469  -16.3530   23.1039 C.ar    1  UNL1        0.0161
     20 C         -12.3001  -16.1528   22.1658 C.ar    1  UNL1        0.0028
     21 C         -12.7270  -17.2649   21.2541 C.ar    1  UNL1        0.0207
     22 C         -12.0007  -18.5770   21.2805 C.ar    1  UNL1        0.0985
     23 N         -10.8475  -18.7772   22.2187 N.ar    1  UNL1       -0.2468
@<TRIPOS>BOND
     1     9    10    1
     2    10    11   ar
     3    11    12   ar
     4    12    13   ar
     5    13    14   ar
     6    14     8    1
     7     8     1    1
     8     1    17    1
     9    17    18    1
    10    18    19   ar
    11    19    20   ar
    12    20    21   ar
    13    21    22   ar
    14    22    23   ar
    15     2     1    1
    16     2     3    1
    17     3     4    1
    18     4     5    1
    19     5     6    1
    20    14    15   ar
    21    15    16    1
    22    15    10   ar
    23    23    18   ar
    24     6     2    1
    25     5     7    1
@<TRIPOS>MOLECULE
*****
 23 25 0 0 0
SMALL
GASTEIGER

@<TRIPOS>ATOM
      1 N          -5.7771  -18.6771   22.2076 N.3     1  UNL1       -0.2638
      2 C          -4.2983  -18.8593   22.0353 C.3     1  UNL1        0.0752
      3 C          -3.2280  -17.9908   22.6272 C.3     1  UNL1        0.0345
      4 C          -1.8982  -18.5367   22.1985 C.3     1  UNL1        0.0700
      5 N          -2.1466  -19.7425   21.3417 N.3     1  UNL1       -0.2963
      6 C          -3.6299  -19.9419   21.2408 C.3     1  UNL1        0.0848
      7 H          -1.7151  -20.5636   21.7660 H       1  UNL1        0.1233
      8 C          -6.6743  -19.8754   22.3030 C.3     1  UNL1        0.1003
      9 CL        -10.8205  -19.0263   19.2883 Cl      1  UNL1       -0.0814
     10 C         -10.2309  -19.2912   20.6419 C.ar    1  UNL1        0.0679
     11 C         -11.1249  -19.3963   21.8418 C.ar    1  UNL1        0.0122
     12 C         -10.5354  -19.6612   23.1954 C.ar    1  UNL1        0.0006
     13 C          -9.0519  -19.8209   23.3491 C.ar    1  UNL1       -0.0020
     14 C          -8.1579  -19.7157   22.1492 C.ar    1  UNL1        0.0053
     15 C          -8.7474  -19.4509   20.7956 C.ar    1  UNL1        0.0655
     16 CL         -7.8534  -19.3457   19.5958 Cl      1  UNL1       -0.0816
     17 C          -6.3588  -17.2966   22.2845 C.3     1  UNL1        0.1189
     18 C          -6.5824  -16.6502   23.6195 C.ar    1  UNL1        0.0752
     19 C          -5.4271  -16.0520   24.3661 C.ar    1  UNL1        0.0161
     20 C          -5.6507  -15.4057   25.7011 C.ar    1  UNL1        0.0028
     21 C          -7.0296  -15.3575   26.2895 C.ar    1  UNL1        0.0207
     22 C          -8.1849  -15.9558   25.5430 C.ar    1  UNL1        0.0985
     23 N          -7.9613  -16.6021   24.2079 N.ar    1  UNL1       -0.2468
@<TRIPOS>BOND
     1     9    10    1
     2    10    11   ar
     3    11    12   ar
     4    12    13   ar
     5    13    14   ar
     6    14     8    1
     7     8     1    1
     8     1    17    1
     9    17    18    1
    10    18    19   ar
    11    19    20   ar
    12    20    21   ar
    13    21    22   ar
    14    22    23   ar
    15     2     1    1
    16     2     3    1
    17     3     4    1
    18     4     5    1
    19     5     6    1
    20    14    15   ar
    21    15    16    1
    22    15    10   ar
    23    23    18   ar
    24     6     2    1
    25     5     7    1
@<TRIPOS>MOLECULE
*****
 23 25 0 0 0
SMALL
GASTEIGER

@<TRIPOS>ATOM
      1 N          -7.3535  -18.5169   22.2093 N.3     1  UNL1       -0.2638
      2 C          -7.4641  -17.0938   22.6703 C.3     1  UNL1        0.0752
      3 C          -6.9513  -16.5453   23.9688 C.3     1  UNL1        0.0345
      4 C          -7.2772  -15.0819   24.0149 C.3     1  UNL1        0.0700
      5 N          -7.9914  -14.7259   22.7447 N.3     1  UNL1       -0.2963
      6 C          -8.1069  -15.9693   21.9138 C.3     1  UNL1        0.0848
      7 H          -7.4616  -14.0179   22.2364 H       1  UNL1        0.1233
      8 C          -6.2265  -18.9282   21.3089 C.3     1  UNL1        0.1003
      9 CL         -1.1973  -18.5178   20.0683 Cl      1  UNL1       -0.0814
     10 C          -2.2929  -18.4499   21.0907 C.ar    1  UNL1        0.0679
     11 C          -1.9694  -18.1090   22.5152 C.ar    1  UNL1        0.0122
     12 C          -3.0648  -18.0410   23.5375 C.ar    1  UNL1        0.0006
     13 C          -4.4839  -18.3141   23.1354 C.ar    1  UNL1       -0.0020
     14 C          -4.8074  -18.6551   21.7110 C.ar    1  UNL1        0.0053
     15 C          -3.7119  -18.7230   20.6886 C.ar    1  UNL1        0.0655
     16 CL         -4.0355  -19.0640   19.2642 Cl      1  UNL1       -0.0816
     17 C          -8.3700  -19.5288   22.6486 C.3     1  UNL1        0.1189
     18 C          -9.7837  -19.1045   22.9158 C.ar    1  UNL1        0.0752
     19 C         -10.6683  -18.6849   21.7793 C.ar    1  UNL1        0.0161
     20 C         -12.0820  -18.2606   22.0465 C.ar    1  UNL1        0.0028
     21 C         -12.6112  -18.2559   23.4501 C.ar    1  UNL1        0.0207
     22 C         -11.7266  -18.6755   24.5865 C.ar    1  UNL1        0.0985
     23 N         -10.3128  -19.0998   24.3193 N.ar    1  UNL1       -0.2468
@<TRIPOS>BOND
     1     9    10    1
     2    10    11   ar
     3    11    12   ar
     4    12    13   ar
     5    13    14   ar
     6    14     8    1
     7     8     1    1
     8     1    17    1
     9    17    18    1
    10    18    19   ar
    11    19    20   ar
    12    20    21   ar
    13    21    22   ar
    14    22    23   ar
    15     2     1    1
    16     2     3    1
    17     3     4    1
    18     4     5    1
    19     5     6    1
    20    14    15   ar
    21    15    16    1
    22    15    10   ar
    23    23    18   ar
    24     6     2    1
    25     5     7    1
