@<TRIPOS>MOLECULE
*****
 40 43 0 0 0
SMALL
GASTEIGER

@<TRIPOS>ATOM
      1 C           1.1697    1.5487   20.4409 C.ar    1  UNL1        0.0611
      2 C           0.1060    2.5464   20.7918 C.ar    1  UNL1        0.1037
      3 N          -0.0525    2.5495   22.2834 N.ar    1  UNL1       -0.2269
      4 C           0.9133    1.5539   22.8543 C.ar    1  UNL1        0.1407
      5 N           1.2025    1.1306   24.2640 N.ar    1  UNL1       -0.3374
      6 C           2.2471    0.0888   24.5348 C.ar    1  UNL1        0.0734
      7 C           3.0024   -0.5298   23.3960 C.ar    1  UNL1        0.0171
      8 C           2.7132   -0.1065   21.9864 C.ar    1  UNL1        0.0046
      9 C           1.6687    0.9353   21.7155 C.ar    1  UNL1        0.0386
     10 H           0.7068    1.5366   25.0114 H       1  UNL1        0.1674
     11 C           4.0470   -1.5717   23.6670 C.ar    1  UNL1        0.0015
     12 C           4.8738   -1.4977   24.9163 C.ar    1  UNL1        0.0014
     13 C           5.9184   -2.5396   25.1872 C.ar    1  UNL1        0.0183
     14 C           6.1362   -3.6555   24.2088 C.ar    1  UNL1        0.1056
     15 C           5.3093   -3.7294   22.9594 C.ar    1  UNL1        0.0183
     16 C           4.2648   -2.6876   22.6885 C.ar    1  UNL1        0.0014
     17 S           7.1807   -4.6973   24.4796 S.O2    1  UNL1        0.0070
     18 O           7.1410   -5.1118   23.0386 O.2     1  UNL1       -0.1687
     19 O           7.2205   -4.2828   25.9207 O.2     1  UNL1       -0.1687
     20 C           8.2252   -5.7392   24.7505 C.3     1  UNL1        0.1339
     21 C           9.0326   -5.6812   26.0134 C.3     1  UNL1        0.0257
     22 C           8.4624   -6.8391   23.7585 C.3     1  UNL1        0.0257
     23 C           1.6501    1.2218   19.0580 C.2     1  UNL1        0.2015
     24 O           0.6873    0.6994   18.0334 O.2     1  UNL1       -0.2864
     25 C           5.4223    0.4225   18.1185 C.ar    1  UNL1        0.0920
     26 C           5.9804    1.8082   17.9832 C.ar    1  UNL1        0.0204
     27 C           5.0951    2.9984   18.2061 C.ar    1  UNL1        0.0312
     28 C           3.6518    2.8030   18.5644 C.ar    1  UNL1        0.1454
     29 F           2.7665    3.9932   18.7873 F       1  UNL1       -0.2040
     30 C           3.0936    1.4173   18.6997 C.ar    1  UNL1        0.0951
     31 C           3.9789    0.2271   18.4768 C.ar    1  UNL1        0.1598
     32 F           3.4206   -1.1586   18.6121 F       1  UNL1       -0.2026
     33 N           6.3075   -0.7677   17.8956 N.pl3   1  UNL1       -0.2166
     34 H           7.0468   -0.7169   17.2474 H       1  UNL1        0.1734
     35 S           6.0664   -2.0355   18.6603 S.O2    1  UNL1        0.0540
     36 O           5.6796   -2.7294   17.3879 O.2     1  UNL1       -0.1545
     37 O           6.4532   -1.3416   19.9326 O.2     1  UNL1       -0.1545
     38 C           5.8254   -3.3031   19.4250 C.3     1  UNL1        0.1724
     39 C           3.5838   -4.6138   19.5131 C.3     1  UNL1        0.0019
     40 C           4.9120   -4.3538   18.8665 C.3     1  UNL1        0.0273
@<TRIPOS>BOND
     1    39    40    1
     2    40    38    1
     3    38    35    1
     4    35    36    2
     5    35    37    2
     6    35    33    1
     7    33    25    1
     8    25    26   ar
     9    26    27   ar
    10    27    28   ar
    11    28    29    1
    12    28    30   ar
    13    30    23    1
    14    23    24    2
    15    23     1    1
    16     1     2   ar
    17     2     3   ar
    18     3     4   ar
    19     4     5   ar
    20     5     6   ar
    21     6     7   ar
    22     7    11    1
    23    11    12   ar
    24    12    13   ar
    25    13    14   ar
    26    14    17    1
    27    17    18    2
    28    17    19    2
    29    17    20    1
    30    20    21    1
    31    20    22    1
    32    14    15   ar
    33    15    16   ar
    34     7     8   ar
    35     8     9   ar
    36    30    31   ar
    37    31    32    1
    38    31    25   ar
    39     9     1   ar
    40     9     4    1
    41    16    11   ar
    42    33    34    1
    43     5    10    1
@<TRIPOS>MOLECULE
*****
 40 43 0 0 0
SMALL
GASTEIGER

@<TRIPOS>ATOM
      1 C          -3.1847    4.4993   21.2309 C.ar    1  UNL1        0.0611
      2 C          -3.6397    5.8992   20.9420 C.ar    1  UNL1        0.1037
      3 N          -2.6913    6.4986   19.9464 N.ar    1  UNL1       -0.2269
      4 C          -1.6502    5.4692   19.6199 C.ar    1  UNL1        0.1407
      5 N          -0.4640    5.4974   18.7024 N.ar    1  UNL1       -0.3374
      6 C           0.4173    4.2900   18.5787 C.ar    1  UNL1        0.0734
      7 C           0.1124    3.0544   19.3725 C.ar    1  UNL1        0.0171
      8 C          -1.0739    3.0262   20.2901 C.ar    1  UNL1        0.0046
      9 C          -1.9552    4.2336   20.4138 C.ar    1  UNL1        0.0386
     10 H          -0.2638    6.3084   18.1813 H       1  UNL1        0.1674
     11 C           0.9937    1.8469   19.2488 C.ar    1  UNL1        0.0015
     12 C           0.6305    0.5772   19.9600 C.ar    1  UNL1        0.0014
     13 C           1.5119   -0.6303   19.8362 C.ar    1  UNL1        0.0183
     14 C           2.7565   -0.5680   19.0013 C.ar    1  UNL1        0.1056
     15 C           3.1197    0.7018   18.2901 C.ar    1  UNL1        0.0183
     16 C           2.2383    1.9092   18.4138 C.ar    1  UNL1        0.0014
     17 S           3.6378   -1.7754   18.8775 S.O2    1  UNL1        0.0070
     18 O           3.3010   -2.1657   20.2861 O.2     1  UNL1       -0.1687
     19 O           3.9747   -1.3851   17.4689 O.2     1  UNL1       -0.1687
     20 C           4.5192   -2.9828   18.7537 C.3     1  UNL1        0.1339
     21 C           3.9769   -4.3435   19.0769 C.3     1  UNL1        0.0257
     22 C           5.9429   -2.8295   18.3068 C.3     1  UNL1        0.0257
     23 C          -3.8436    3.5346   22.1717 C.2     1  UNL1        0.2015
     24 O          -4.7196    2.4422   21.6339 O.2     1  UNL1       -0.2864
     25 C          -2.0240    3.6876   25.6953 C.ar    1  UNL1        0.0920
     26 C          -3.1921    3.9173   26.6078 C.ar    1  UNL1        0.0204
     27 C          -4.5774    4.0194   26.0417 C.ar    1  UNL1        0.0312
     28 C          -4.7946    3.8918   24.5630 C.ar    1  UNL1        0.1454
     29 F          -6.1799    3.9939   23.9968 F       1  UNL1       -0.2040
     30 C          -3.6265    3.6622   23.6505 C.ar    1  UNL1        0.0951
     31 C          -2.2412    3.5601   24.2166 C.ar    1  UNL1        0.1598
     32 F          -1.0731    3.3304   23.3040 F       1  UNL1       -0.2026
     33 N          -0.6387    3.5855   26.2615 N.pl3   1  UNL1       -0.2166
     34 H           0.0782    4.1651   25.9160 H       1  UNL1        0.1734
     35 S          -0.3457    2.6003   27.3540 S.O2    1  UNL1        0.0540
     36 O          -0.0690    3.7313   28.2996 O.2     1  UNL1       -0.1545
     37 O          -0.6225    1.4694   26.4083 O.2     1  UNL1       -0.1545
     38 C          -0.0528    1.6151   28.4464 C.3     1  UNL1        0.1724
     39 C          -1.6992   -0.2731   29.1351 C.3     1  UNL1        0.0019
     40 C          -0.5278    0.1974   28.3250 C.3     1  UNL1        0.0273
@<TRIPOS>BOND
     1    39    40    1
     2    40    38    1
     3    38    35    1
     4    35    36    2
     5    35    37    2
     6    35    33    1
     7    33    25    1
     8    25    26   ar
     9    26    27   ar
    10    27    28   ar
    11    28    29    1
    12    28    30   ar
    13    30    23    1
    14    23    24    2
    15    23     1    1
    16     1     2   ar
    17     2     3   ar
    18     3     4   ar
    19     4     5   ar
    20     5     6   ar
    21     6     7   ar
    22     7    11    1
    23    11    12   ar
    24    12    13   ar
    25    13    14   ar
    26    14    17    1
    27    17    18    2
    28    17    19    2
    29    17    20    1
    30    20    21    1
    31    20    22    1
    32    14    15   ar
    33    15    16   ar
    34     7     8   ar
    35     8     9   ar
    36    30    31   ar
    37    31    32    1
    38    31    25   ar
    39     9     1   ar
    40     9     4    1
    41    16    11   ar
    42    33    34    1
    43     5    10    1
@<TRIPOS>MOLECULE
*****
 40 43 0 0 0
SMALL
GASTEIGER

@<TRIPOS>ATOM
      1 C           1.3059    1.1709   22.3759 C.ar    1  UNL1        0.0611
      2 C           0.6213    2.3628   22.9765 C.ar    1  UNL1        0.1037
      3 N           1.1144    2.5199   24.3844 N.ar    1  UNL1       -0.2269
      4 C           2.1037    1.4251   24.6540 C.ar    1  UNL1        0.1407
      5 N           2.9120    1.0797   25.8694 N.ar    1  UNL1       -0.3374
      6 C           3.8387   -0.0995   25.8435 C.ar    1  UNL1        0.0734
      7 C           3.9570   -0.9333   24.6022 C.ar    1  UNL1        0.0171
      8 C           3.1487   -0.5879   23.3868 C.ar    1  UNL1        0.0046
      9 C           2.2220    0.5913   23.4127 C.ar    1  UNL1        0.0386
     10 H           2.8343    1.6269   26.6841 H       1  UNL1        0.1674
     11 C           4.8838   -2.1126   24.5764 C.ar    1  UNL1        0.0015
     12 C           4.9489   -2.9888   23.3607 C.ar    1  UNL1        0.0014
     13 C           5.8756   -4.1680   23.3349 C.ar    1  UNL1        0.0183
     14 C           6.7372   -4.4710   24.5248 C.ar    1  UNL1        0.1056
     15 C           6.6721   -3.5947   25.7405 C.ar    1  UNL1        0.0183
     16 C           5.7454   -2.4155   25.7663 C.ar    1  UNL1        0.0014
     17 S           7.6639   -5.6501   24.4990 S.O2    1  UNL1        0.0070
     18 O           7.7694   -5.6000   25.9944 O.2     1  UNL1       -0.1687
     19 O           7.5585   -5.7003   23.0036 O.2     1  UNL1       -0.1687
     20 C           8.5907   -6.8293   24.4732 C.3     1  UNL1        0.1339
     21 C           8.9451   -7.5327   25.7498 C.3     1  UNL1        0.0257
     22 C           9.1630   -7.3051   23.1708 C.3     1  UNL1        0.0257
     23 C           1.1090    0.6499   20.9832 C.2     1  UNL1        0.2015
     24 O          -0.2156    0.0744   20.5780 O.2     1  UNL1       -0.2864
     25 C           4.0265   -0.5085   18.5548 C.ar    1  UNL1        0.0920
     26 C           4.4920    0.8135   18.0203 C.ar    1  UNL1        0.0204
     27 C           3.8299    2.0809   18.4735 C.ar    1  UNL1        0.0312
     28 C           2.7023    2.0264   19.4610 C.ar    1  UNL1        0.1454
     29 F           2.0402    3.2938   19.9142 F       1  UNL1       -0.2040
     30 C           2.2367    0.7044   19.9955 C.ar    1  UNL1        0.0951
     31 C           2.8988   -0.5629   19.5424 C.ar    1  UNL1        0.1598
     32 F           2.4332   -1.8849   20.0769 F       1  UNL1       -0.2026
     33 N           4.6886   -1.7759   18.1017 N.pl3   1  UNL1       -0.2166
     34 H           4.1977   -2.4111   17.5318 H       1  UNL1        0.1734
     35 S           6.0985   -2.0754   18.5169 S.O2    1  UNL1        0.0540
     36 O           6.5946   -1.5758   17.1925 O.2     1  UNL1       -0.1545
     37 O           5.6023   -2.5750   19.8414 O.2     1  UNL1       -0.1545
     38 C           7.5083   -2.3749   18.9322 C.3     1  UNL1        0.1724
     39 C           9.0221   -3.5858   20.6621 C.3     1  UNL1        0.0019
     40 C           7.8058   -2.7656   20.3496 C.3     1  UNL1        0.0273
@<TRIPOS>BOND
     1    39    40    1
     2    40    38    1
     3    38    35    1
     4    35    36    2
     5    35    37    2
     6    35    33    1
     7    33    25    1
     8    25    26   ar
     9    26    27   ar
    10    27    28   ar
    11    28    29    1
    12    28    30   ar
    13    30    23    1
    14    23    24    2
    15    23     1    1
    16     1     2   ar
    17     2     3   ar
    18     3     4   ar
    19     4     5   ar
    20     5     6   ar
    21     6     7   ar
    22     7    11    1
    23    11    12   ar
    24    12    13   ar
    25    13    14   ar
    26    14    17    1
    27    17    18    2
    28    17    19    2
    29    17    20    1
    30    20    21    1
    31    20    22    1
    32    14    15   ar
    33    15    16   ar
    34     7     8   ar
    35     8     9   ar
    36    30    31   ar
    37    31    32    1
    38    31    25   ar
    39     9     1   ar
    40     9     4    1
    41    16    11   ar
    42    33    34    1
    43     5    10    1
@<TRIPOS>MOLECULE
*****
 40 43 0 0 0
SMALL
GASTEIGER

@<TRIPOS>ATOM
      1 C           5.0074   -3.3521   22.5228 C.ar    1  UNL1        0.0611
      2 C           6.0490   -3.9706   23.4075 C.ar    1  UNL1        0.1037
      3 N           6.0393   -3.2383   24.7166 N.ar    1  UNL1       -0.2269
      4 C           4.9919   -2.1672   24.6409 C.ar    1  UNL1        0.1407
      5 N           4.5365   -1.1370   25.6314 N.ar    1  UNL1       -0.3374
      6 C           3.4433   -0.1771   25.2661 C.ar    1  UNL1        0.0734
      7 C           2.8055   -0.2475   23.9102 C.ar    1  UNL1        0.0171
      8 C           3.2610   -1.2777   22.9197 C.ar    1  UNL1        0.0046
      9 C           4.3541   -2.2376   23.2851 C.ar    1  UNL1        0.0386
     10 H           4.9551   -1.0908   26.5213 H       1  UNL1        0.1674
     11 C           1.7123    0.7125   23.5449 C.ar    1  UNL1        0.0015
     12 C           1.0282    1.5122   24.6138 C.ar    1  UNL1        0.0014
     13 C          -0.0650    2.4721   24.2485 C.ar    1  UNL1        0.0183
     14 C          -0.4741    2.6323   22.8143 C.ar    1  UNL1        0.1056
     15 C           0.2100    1.8326   21.7454 C.ar    1  UNL1        0.0183
     16 C           1.3031    0.8727   22.1107 C.ar    1  UNL1        0.0014
     17 S          -1.5673    3.5922   22.4489 S.O2    1  UNL1        0.0070
     18 O          -1.2827    4.3880   23.6881 O.2     1  UNL1       -0.1687
     19 O          -1.8519    2.7964   21.2097 O.2     1  UNL1       -0.1687
     20 C          -2.6605    4.5521   22.0836 C.3     1  UNL1        0.1339
     21 C          -3.9542    4.5398   22.8427 C.3     1  UNL1        0.0257
     22 C          -2.4601    5.5244   20.9590 C.3     1  UNL1        0.0257
     23 C           4.6772   -3.7741   21.1218 C.2     1  UNL1        0.2015
     24 O           3.9864   -5.0825   20.8757 O.2     1  UNL1       -0.2864
     25 C           4.3502   -1.1391   18.1721 C.ar    1  UNL1        0.0920
     26 C           5.7587   -1.1143   17.6568 C.ar    1  UNL1        0.0204
     27 C           6.8067   -1.9760   18.2965 C.ar    1  UNL1        0.0312
     28 C           6.4462   -2.8626   19.4515 C.ar    1  UNL1        0.1454
     29 F           7.4942   -3.7243   20.0911 F       1  UNL1       -0.2040
     30 C           5.0377   -2.8874   19.9667 C.ar    1  UNL1        0.0951
     31 C           3.9898   -2.0257   19.3271 C.ar    1  UNL1        0.1598
     32 F           2.5813   -2.0506   19.8424 F       1  UNL1       -0.2026
     33 N           3.3023   -0.2774   17.5324 N.pl3   1  UNL1       -0.2166
     34 H           2.9076   -0.5409   16.6699 H       1  UNL1        0.1734
     35 S           2.8557    0.9857   18.2070 S.O2    1  UNL1        0.0540
     36 O           4.2422    1.5438   18.0797 O.2     1  UNL1       -0.1545
     37 O           1.4693    0.4277   18.3342 O.2     1  UNL1       -0.1545
     38 C           2.4091    2.2488   18.8815 C.3     1  UNL1        0.1724
     39 C           0.7688    4.2579   19.0343 C.3     1  UNL1        0.0019
     40 C           1.1837    2.9653   18.3964 C.3     1  UNL1        0.0273
@<TRIPOS>BOND
     1    39    40    1
     2    40    38    1
     3    38    35    1
     4    35    36    2
     5    35    37    2
     6    35    33    1
     7    33    25    1
     8    25    26   ar
     9    26    27   ar
    10    27    28   ar
    11    28    29    1
    12    28    30   ar
    13    30    23    1
    14    23    24    2
    15    23     1    1
    16     1     2   ar
    17     2     3   ar
    18     3     4   ar
    19     4     5   ar
    20     5     6   ar
    21     6     7   ar
    22     7    11    1
    23    11    12   ar
    24    12    13   ar
    25    13    14   ar
    26    14    17    1
    27    17    18    2
    28    17    19    2
    29    17    20    1
    30    20    21    1
    31    20    22    1
    32    14    15   ar
    33    15    16   ar
    34     7     8   ar
    35     8     9   ar
    36    30    31   ar
    37    31    32    1
    38    31    25   ar
    39     9     1   ar
    40     9     4    1
    41    16    11   ar
    42    33    34    1
    43     5    10    1
@<TRIPOS>MOLECULE
*****
 40 43 0 0 0
SMALL
GASTEIGER

@<TRIPOS>ATOM
      1 C           5.0790   -2.2335   19.0342 C.ar    1  UNL1        0.0611
      2 C           5.5300   -1.5098   17.8001 C.ar    1  UNL1        0.1037
      3 N           7.0230   -1.6266   17.7140 N.ar    1  UNL1       -0.2269
      4 C           7.4947   -2.4224   18.8947 C.ar    1  UNL1        0.1407
      5 N           8.8630   -2.8539   19.3323 N.ar    1  UNL1       -0.3374
      6 C           9.0298   -3.6605   20.5859 C.ar    1  UNL1        0.0734
      7 C           7.8283   -4.0357   21.4018 C.ar    1  UNL1        0.0171
      8 C           6.4601   -3.6042   20.9642 C.ar    1  UNL1        0.0046
      9 C           6.2932   -2.7975   19.7107 C.ar    1  UNL1        0.0386
     10 H           9.6515   -2.6077   18.7968 H       1  UNL1        0.1674
     11 C           7.9952   -4.8424   22.6555 C.ar    1  UNL1        0.0015
     12 C           8.7802   -6.1202   22.6261 C.ar    1  UNL1        0.0014
     13 C           8.9471   -6.9269   23.8797 C.ar    1  UNL1        0.0183
     14 C           8.3290   -6.4557   25.1626 C.ar    1  UNL1        0.1056
     15 C           7.5439   -5.1778   25.1919 C.ar    1  UNL1        0.0183
     16 C           7.3771   -4.3712   23.9384 C.ar    1  UNL1        0.0014
     17 S           8.4958   -7.2623   26.4162 S.O2    1  UNL1        0.0070
     18 O           7.6054   -8.3279   25.8491 O.2     1  UNL1       -0.1687
     19 O           9.3862   -6.1967   26.9834 O.2     1  UNL1       -0.1687
     20 C           8.6627   -8.0689   27.6698 C.3     1  UNL1        0.1339
     21 C           8.2364   -9.5068   27.6988 C.3     1  UNL1        0.0257
     22 C           9.2558   -7.4377   28.8945 C.3     1  UNL1        0.0257
     23 C           3.6625   -2.3694   19.5085 C.2     1  UNL1        0.2015
     24 O           2.8688   -3.5933   19.1595 O.2     1  UNL1       -0.2864
     25 C           2.4961   -0.2466   22.6523 C.ar    1  UNL1        0.0920
     26 C           1.7939    0.8951   21.9788 C.ar    1  UNL1        0.0204
     27 C           1.7147    0.9485   20.4818 C.ar    1  UNL1        0.0312
     28 C           2.3375   -0.1395   19.6584 C.ar    1  UNL1        0.1454
     29 F           2.2582   -0.0861   18.1614 F       1  UNL1       -0.2040
     30 C           3.0396   -1.2812   20.3319 C.ar    1  UNL1        0.0951
     31 C           3.1189   -1.3347   21.8289 C.ar    1  UNL1        0.1598
     32 F           3.8210   -2.4764   22.5024 F       1  UNL1       -0.2026
     33 N           2.5753   -0.3001   24.1493 N.pl3   1  UNL1       -0.2166
     34 H           1.7547   -0.4086   24.6821 H       1  UNL1        0.1734
     35 S           3.9050   -0.1882   24.8343 S.O2    1  UNL1        0.0540
     36 O           3.7001   -1.5392   25.4529 O.2     1  UNL1       -0.1545
     37 O           4.1100    1.1629   24.2158 O.2     1  UNL1       -0.1545
     38 C           5.2347   -0.0762   25.5194 C.3     1  UNL1        0.1724
     39 C           7.6340   -0.7769   24.8102 C.3     1  UNL1        0.0019
     40 C           6.2721   -1.1416   25.3222 C.3     1  UNL1        0.0273
@<TRIPOS>BOND
     1    39    40    1
     2    40    38    1
     3    38    35    1
     4    35    36    2
     5    35    37    2
     6    35    33    1
     7    33    25    1
     8    25    26   ar
     9    26    27   ar
    10    27    28   ar
    11    28    29    1
    12    28    30   ar
    13    30    23    1
    14    23    24    2
    15    23     1    1
    16     1     2   ar
    17     2     3   ar
    18     3     4   ar
    19     4     5   ar
    20     5     6   ar
    21     6     7   ar
    22     7    11    1
    23    11    12   ar
    24    12    13   ar
    25    13    14   ar
    26    14    17    1
    27    17    18    2
    28    17    19    2
    29    17    20    1
    30    20    21    1
    31    20    22    1
    32    14    15   ar
    33    15    16   ar
    34     7     8   ar
    35     8     9   ar
    36    30    31   ar
    37    31    32    1
    38    31    25   ar
    39     9     1   ar
    40     9     4    1
    41    16    11   ar
    42    33    34    1
    43     5    10    1
@<TRIPOS>MOLECULE
*****
 40 43 0 0 0
SMALL
GASTEIGER

@<TRIPOS>ATOM
      1 C           7.0905   -3.7576   22.2210 C.ar    1  UNL1        0.0611
      2 C           7.2181   -4.2685   20.8165 C.ar    1  UNL1        0.1037
      3 N           6.0512   -3.7523   20.0278 N.ar    1  UNL1       -0.2269
      4 C           5.2025   -2.9224   20.9449 C.ar    1  UNL1        0.1407
      5 N           3.9278   -2.1642   20.7208 N.ar    1  UNL1       -0.3374
      6 C           3.2954   -1.4093   21.8523 C.ar    1  UNL1        0.0734
      7 C           3.9378   -1.4127   23.2078 C.ar    1  UNL1        0.0171
      8 C           5.2125   -2.1709   23.4319 C.ar    1  UNL1        0.0046
      9 C           5.8448   -2.9257   22.3004 C.ar    1  UNL1        0.0386
     10 H           3.5062   -2.1621   19.8312 H       1  UNL1        0.1674
     11 C           3.3053   -0.6577   24.3393 C.ar    1  UNL1        0.0015
     12 C           2.1809    0.2972   24.0679 C.ar    1  UNL1        0.0014
     13 C           1.5484    1.0521   25.1994 C.ar    1  UNL1        0.0183
     14 C           2.0405    0.8521   26.6022 C.ar    1  UNL1        0.1056
     15 C           3.1651   -0.1028   26.8735 C.ar    1  UNL1        0.0183
     16 C           3.7974   -0.8577   25.7421 C.ar    1  UNL1        0.0014
     17 S           1.4082    1.6070   27.7336 S.O2    1  UNL1        0.0070
     18 O           0.2051    1.8787   26.8800 O.2     1  UNL1       -0.1687
     19 O           2.6112    1.3353   28.5873 O.2     1  UNL1       -0.1687
     20 C           0.7758    2.3619   28.8651 C.3     1  UNL1        0.1339
     21 C           0.5998    3.8484   28.7692 C.3     1  UNL1        0.0257
     22 C           0.3194    1.6302   30.0925 C.3     1  UNL1        0.0257
     23 C           8.0416   -4.0307   23.3483 C.2     1  UNL1        0.2015
     24 O           9.2733   -3.1903   23.5107 O.2     1  UNL1       -0.2864
     25 C           6.7518   -5.9751   26.5587 C.ar    1  UNL1        0.0920
     26 C           7.1997   -7.3715   26.2432 C.ar    1  UNL1        0.0204
     27 C           7.9282   -7.6543   24.9629 C.ar    1  UNL1        0.0312
     28 C           8.2088   -6.5408   23.9979 C.ar    1  UNL1        0.1454
     29 F           8.9373   -6.8236   22.7175 F       1  UNL1       -0.2040
     30 C           7.7610   -5.1444   24.3133 C.ar    1  UNL1        0.0951
     31 C           7.0325   -4.8616   25.5937 C.ar    1  UNL1        0.1598
     32 F           6.5846   -3.4651   25.9090 F       1  UNL1       -0.2026
     33 N           6.0233   -5.6923   27.8390 N.pl3   1  UNL1       -0.2166
     34 H           5.0646   -5.9022   27.9166 H       1  UNL1        0.1734
     35 S           6.7556   -5.0898   29.0012 S.O2    1  UNL1        0.0540
     36 O           6.0434   -3.7891   28.7756 O.2     1  UNL1       -0.1545
     37 O           7.4678   -6.3905   29.2268 O.2     1  UNL1       -0.1545
     38 C           7.4879   -4.4874   30.1634 C.3     1  UNL1        0.1724
     39 C           6.3608   -3.4871   32.2799 C.3     1  UNL1        0.0019
     40 C           6.9556   -4.6581   31.5554 C.3     1  UNL1        0.0273
@<TRIPOS>BOND
     1    39    40    1
     2    40    38    1
     3    38    35    1
     4    35    36    2
     5    35    37    2
     6    35    33    1
     7    33    25    1
     8    25    26   ar
     9    26    27   ar
    10    27    28   ar
    11    28    29    1
    12    28    30   ar
    13    30    23    1
    14    23    24    2
    15    23     1    1
    16     1     2   ar
    17     2     3   ar
    18     3     4   ar
    19     4     5   ar
    20     5     6   ar
    21     6     7   ar
    22     7    11    1
    23    11    12   ar
    24    12    13   ar
    25    13    14   ar
    26    14    17    1
    27    17    18    2
    28    17    19    2
    29    17    20    1
    30    20    21    1
    31    20    22    1
    32    14    15   ar
    33    15    16   ar
    34     7     8   ar
    35     8     9   ar
    36    30    31   ar
    37    31    32    1
    38    31    25   ar
    39     9     1   ar
    40     9     4    1
    41    16    11   ar
    42    33    34    1
    43     5    10    1
@<TRIPOS>MOLECULE
*****
 40 43 0 0 0
SMALL
GASTEIGER

@<TRIPOS>ATOM
      1 C           6.6761   -3.2612   30.2166 C.ar    1  UNL1        0.0611
      2 C           6.7981   -4.2005   31.3797 C.ar    1  UNL1        0.1037
      3 N           6.9532   -5.5908   30.8384 N.ar    1  UNL1       -0.2269
      4 C           6.9271   -5.5107   29.3407 C.ar    1  UNL1        0.1407
      5 N           7.0371   -6.5629   28.2773 N.ar    1  UNL1       -0.3374
      6 C           6.9759   -6.1752   26.8296 C.ar    1  UNL1        0.0734
      7 C           6.8046   -4.7354   26.4453 C.ar    1  UNL1        0.0171
      8 C           6.6946   -3.6833   27.5087 C.ar    1  UNL1        0.0046
      9 C           6.7558   -4.0710   28.9564 C.ar    1  UNL1        0.0386
     10 H           7.1495   -7.5078   28.5296 H       1  UNL1        0.1674
     11 C           6.7434   -4.3478   24.9975 C.ar    1  UNL1        0.0015
     12 C           7.6186   -5.0431   23.9973 C.ar    1  UNL1        0.0014
     13 C           7.5574   -4.6555   22.5495 C.ar    1  UNL1        0.0183
     14 C           6.6210   -3.5725   22.1020 C.ar    1  UNL1        0.1056
     15 C           5.7457   -2.8772   23.1023 C.ar    1  UNL1        0.0183
     16 C           5.8070   -3.2648   24.5500 C.ar    1  UNL1        0.0014
     17 S           6.5597   -3.1849   20.6542 S.O2    1  UNL1        0.0070
     18 O           6.3416   -4.6207   20.2790 O.2     1  UNL1       -0.1687
     19 O           6.7778   -1.7491   21.0295 O.2     1  UNL1       -0.1687
     20 C           6.4985   -2.7972   19.2065 C.3     1  UNL1        0.1339
     21 C           7.6633   -2.1020   18.5663 C.3     1  UNL1        0.0257
     22 C           5.2724   -3.1049   18.3989 C.3     1  UNL1        0.0257
     23 C           6.5046   -1.7733   30.2990 C.2     1  UNL1        0.2015
     24 O           7.7004   -0.8736   30.1970 O.2     1  UNL1       -0.2864
     25 C           2.8196   -0.5292   29.5092 C.ar    1  UNL1        0.0920
     26 C           2.4021   -0.0087   30.8526 C.ar    1  UNL1        0.0204
     27 C           3.3521   -0.0765   32.0115 C.ar    1  UNL1        0.0312
     28 C           4.7195   -0.6646   31.8270 C.ar    1  UNL1        0.1454
     29 F           5.6694   -0.7324   32.9859 F       1  UNL1       -0.2040
     30 C           5.1370   -1.1851   30.4836 C.ar    1  UNL1        0.0951
     31 C           4.1871   -1.1173   29.3247 C.ar    1  UNL1        0.1598
     32 F           4.6047   -1.6378   27.9813 F       1  UNL1       -0.2026
     33 N           1.8697   -0.4614   28.3503 N.pl3   1  UNL1       -0.2166
     34 H           1.9426   -1.1124   27.6153 H       1  UNL1        0.1734
     35 S           0.8087    0.5982   28.3112 S.O2    1  UNL1        0.0540
     36 O          -0.2166   -0.4130   28.7309 O.2     1  UNL1       -0.1545
     37 O           1.8341    1.6094   27.8915 O.2     1  UNL1       -0.1545
     38 C          -0.2522    1.6578   28.2721 C.3     1  UNL1        0.1724
     39 C          -1.5480    3.3135   26.7456 C.3     1  UNL1        0.0019
     40 C          -0.9742    1.9493   26.9899 C.3     1  UNL1        0.0273
@<TRIPOS>BOND
     1    39    40    1
     2    40    38    1
     3    38    35    1
     4    35    36    2
     5    35    37    2
     6    35    33    1
     7    33    25    1
     8    25    26   ar
     9    26    27   ar
    10    27    28   ar
    11    28    29    1
    12    28    30   ar
    13    30    23    1
    14    23    24    2
    15    23     1    1
    16     1     2   ar
    17     2     3   ar
    18     3     4   ar
    19     4     5   ar
    20     5     6   ar
    21     6     7   ar
    22     7    11    1
    23    11    12   ar
    24    12    13   ar
    25    13    14   ar
    26    14    17    1
    27    17    18    2
    28    17    19    2
    29    17    20    1
    30    20    21    1
    31    20    22    1
    32    14    15   ar
    33    15    16   ar
    34     7     8   ar
    35     8     9   ar
    36    30    31   ar
    37    31    32    1
    38    31    25   ar
    39     9     1   ar
    40     9     4    1
    41    16    11   ar
    42    33    34    1
    43     5    10    1
@<TRIPOS>MOLECULE
*****
 40 43 0 0 0
SMALL
GASTEIGER

@<TRIPOS>ATOM
      1 C          -0.6828    2.1015   26.8980 C.ar    1  UNL1        0.0611
      2 C          -1.5253    3.3137   27.1640 C.ar    1  UNL1        0.1037
      3 N          -1.7037    4.0476   25.8680 N.ar    1  UNL1       -0.2269
      4 C          -0.9715    3.2890   24.8011 C.ar    1  UNL1        0.1407
      5 N          -0.7977    3.5381   23.3322 N.ar    1  UNL1       -0.3374
      6 C           0.0070    2.5844   22.4999 C.ar    1  UNL1        0.0734
      7 C           0.6380    1.3816   23.1364 C.ar    1  UNL1        0.0171
      8 C           0.4643    1.1326   24.6053 C.ar    1  UNL1        0.0046
      9 C          -0.3404    2.0863   25.4377 C.ar    1  UNL1        0.0386
     10 H          -1.2119    4.3275   22.9144 H       1  UNL1        0.1674
     11 C           1.4428    0.4279   22.3040 C.ar    1  UNL1        0.0015
     12 C           1.0252    0.1253   20.8955 C.ar    1  UNL1        0.0014
     13 C           1.8300   -0.8285   20.0631 C.ar    1  UNL1        0.0183
     14 C           3.0523   -1.4795   20.6393 C.ar    1  UNL1        0.1056
     15 C           3.4700   -1.1767   22.0478 C.ar    1  UNL1        0.0183
     16 C           2.6652   -0.2231   22.8802 C.ar    1  UNL1        0.0014
     17 S           3.8571   -2.4331   19.8069 S.O2    1  UNL1        0.0070
     18 O           3.5072   -1.6528   18.5746 O.2     1  UNL1       -0.1687
     19 O           4.2070   -3.2134   21.0392 O.2     1  UNL1       -0.1687
     20 C           4.6619   -3.3868   18.9746 C.3     1  UNL1        0.1339
     21 C           5.8137   -2.8813   18.1574 C.3     1  UNL1        0.0257
     22 C           4.3148   -4.8461   18.9594 C.3     1  UNL1        0.0257
     23 C          -0.2572    1.0833   27.9140 C.2     1  UNL1        0.2015
     24 O          -0.8945   -0.2744   27.9277 O.2     1  UNL1       -0.2864
     25 C           1.5222    1.8629   31.3747 C.ar    1  UNL1        0.0920
     26 C           2.9318    2.1021   30.9211 C.ar    1  UNL1        0.0204
     27 C           3.2784    2.0017   29.4652 C.ar    1  UNL1        0.0312
     28 C           2.2155    1.6621   28.4628 C.ar    1  UNL1        0.1454
     29 F           2.5621    1.5617   27.0069 F       1  UNL1       -0.2040
     30 C           0.8059    1.4229   28.9164 C.ar    1  UNL1        0.0951
     31 C           0.4593    1.5233   30.3723 C.ar    1  UNL1        0.1598
     32 F          -0.9504    1.2841   30.8259 F       1  UNL1       -0.2026
     33 N           1.1756    1.9633   32.8307 N.pl3   1  UNL1       -0.2166
     34 H           0.5584    1.3120   33.2358 H       1  UNL1        0.1734
     35 S           1.7692    3.0561   33.6693 S.O2    1  UNL1        0.0540
     36 O           0.9328    4.0677   32.9432 O.2     1  UNL1       -0.1545
     37 O           2.6056    2.0446   34.3954 O.2     1  UNL1       -0.1545
     38 C           2.3629    4.1489   34.5080 C.3     1  UNL1        0.1724
     39 C           1.2906    4.7318   36.8016 C.3     1  UNL1        0.0019
     40 C           2.3530    4.0358   36.0037 C.3     1  UNL1        0.0273
@<TRIPOS>BOND
     1    39    40    1
     2    40    38    1
     3    38    35    1
     4    35    36    2
     5    35    37    2
     6    35    33    1
     7    33    25    1
     8    25    26   ar
     9    26    27   ar
    10    27    28   ar
    11    28    29    1
    12    28    30   ar
    13    30    23    1
    14    23    24    2
    15    23     1    1
    16     1     2   ar
    17     2     3   ar
    18     3     4   ar
    19     4     5   ar
    20     5     6   ar
    21     6     7   ar
    22     7    11    1
    23    11    12   ar
    24    12    13   ar
    25    13    14   ar
    26    14    17    1
    27    17    18    2
    28    17    19    2
    29    17    20    1
    30    20    21    1
    31    20    22    1
    32    14    15   ar
    33    15    16   ar
    34     7     8   ar
    35     8     9   ar
    36    30    31   ar
    37    31    32    1
    38    31    25   ar
    39     9     1   ar
    40     9     4    1
    41    16    11   ar
    42    33    34    1
    43     5    10    1
@<TRIPOS>MOLECULE
*****
 40 43 0 0 0
SMALL
GASTEIGER

@<TRIPOS>ATOM
      1 C           3.6941   -1.7929   19.1471 C.ar    1  UNL1        0.0611
      2 C           3.5483   -1.2226   17.7675 C.ar    1  UNL1        0.1037
      3 N           2.9524    0.1482   17.8933 N.ar    1  UNL1       -0.2269
      4 C           2.7300    0.4251   19.3506 C.ar    1  UNL1        0.1407
      5 N           2.1692    1.6146   20.0721 N.ar    1  UNL1       -0.3374
      6 C           2.0670    1.6044   21.5685 C.ar    1  UNL1        0.0734
      7 C           2.5254    0.4047   22.3435 C.ar    1  UNL1        0.0171
      8 C           3.0861   -0.7848   21.6220 C.ar    1  UNL1        0.0046
      9 C           3.1884   -0.7746   20.1256 C.ar    1  UNL1        0.0386
     10 H           1.8684    2.4020   19.5635 H       1  UNL1        0.1674
     11 C           2.4231    0.3946   23.8400 C.ar    1  UNL1        0.0015
     12 C           1.3808    1.2269   24.5262 C.ar    1  UNL1        0.0014
     13 C           1.2785    1.2167   26.0227 C.ar    1  UNL1        0.0183
     14 C           2.2185    0.3743   26.8330 C.ar    1  UNL1        0.1056
     15 C           3.2609   -0.4580   26.1468 C.ar    1  UNL1        0.0183
     16 C           3.3632   -0.4478   24.6503 C.ar    1  UNL1        0.0014
     17 S           2.1163    0.3641   28.3294 S.O2    1  UNL1        0.0070
     18 O           1.5536    1.7543   28.3004 O.2     1  UNL1       -0.1687
     19 O           2.6790   -1.0260   28.3585 O.2     1  UNL1       -0.1687
     20 C           2.0140    0.3540   29.8259 C.3     1  UNL1        0.1339
     21 C           1.2131    1.4088   30.5301 C.3     1  UNL1        0.0257
     22 C           2.7127   -0.7110   30.6182 C.3     1  UNL1        0.0257
     23 C           4.2484   -3.1443   19.4885 C.2     1  UNL1        0.2015
     24 O           3.4838   -4.3824   19.1248 O.2     1  UNL1       -0.2864
     25 C           6.9368   -3.8272   22.3269 C.ar    1  UNL1        0.0920
     26 C           8.2056   -3.4843   21.6040 C.ar    1  UNL1        0.0204
     27 C           8.1554   -3.0281   20.1759 C.ar    1  UNL1        0.0312
     28 C           6.8364   -2.9148   19.4707 C.ar    1  UNL1        0.1454
     29 F           6.7861   -2.4586   18.0427 F       1  UNL1       -0.2040
     30 C           5.5676   -3.2576   20.1937 C.ar    1  UNL1        0.0951
     31 C           5.6178   -3.7138   21.6217 C.ar    1  UNL1        0.1598
     32 F           4.3490   -4.0567   22.3446 F       1  UNL1       -0.2026
     33 N           6.9871   -4.2833   23.7550 N.pl3   1  UNL1       -0.2166
     34 H           6.3118   -3.9659   24.3972 H       1  UNL1        0.1734
     35 S           8.0663   -5.2232   24.2045 S.O2    1  UNL1        0.0540
     36 O           7.6850   -6.1817   23.1156 O.2     1  UNL1       -0.1545
     37 O           8.4475   -4.2646   25.2935 O.2     1  UNL1       -0.1545
     38 C           9.1454   -6.1630   24.6541 C.3     1  UNL1        0.1724
     39 C           8.0488   -7.9840   26.1479 C.3     1  UNL1        0.0019
     40 C           8.8225   -7.6034   24.9206 C.3     1  UNL1        0.0273
@<TRIPOS>BOND
     1    39    40    1
     2    40    38    1
     3    38    35    1
     4    35    36    2
     5    35    37    2
     6    35    33    1
     7    33    25    1
     8    25    26   ar
     9    26    27   ar
    10    27    28   ar
    11    28    29    1
    12    28    30   ar
    13    30    23    1
    14    23    24    2
    15    23     1    1
    16     1     2   ar
    17     2     3   ar
    18     3     4   ar
    19     4     5   ar
    20     5     6   ar
    21     6     7   ar
    22     7    11    1
    23    11    12   ar
    24    12    13   ar
    25    13    14   ar
    26    14    17    1
    27    17    18    2
    28    17    19    2
    29    17    20    1
    30    20    21    1
    31    20    22    1
    32    14    15   ar
    33    15    16   ar
    34     7     8   ar
    35     8     9   ar
    36    30    31   ar
    37    31    32    1
    38    31    25   ar
    39     9     1   ar
    40     9     4    1
    41    16    11   ar
    42    33    34    1
    43     5    10    1
