@<TRIPOS>MOLECULE
*****
 21 23 0 0 0
SMALL
GASTEIGER

@<TRIPOS>ATOM
      1 N          -7.4118  -18.1156   22.2416 N.pl3   1  UNL1       -0.2860
      2 C          -6.0595  -18.6693   21.9024 C.ar    1  UNL1        0.0576
      3 C          -4.8736  -18.3268   22.7546 C.ar    1  UNL1        0.0153
      4 C          -3.5214  -18.8805   22.4153 C.ar    1  UNL1        0.0013
      5 C          -3.3552  -19.7765   21.2239 C.ar    1  UNL1        0.0006
      6 C          -4.5412  -20.1189   20.3717 C.ar    1  UNL1        0.0077
      7 C          -5.8933  -19.5653   20.7110 C.ar    1  UNL1        0.0431
      8 S          -7.0793  -19.9077   19.8588 S.3     1  UNL1       -0.0844
      9 C          -8.4315  -19.3541   20.1980 C.ar    1  UNL1        0.0431
     10 C          -9.6175  -19.6965   19.3458 C.ar    1  UNL1        0.0086
     11 C         -10.9697  -19.1428   19.6851 C.ar    1  UNL1        0.0120
     12 C         -11.1359  -18.2468   20.8765 C.ar    1  UNL1        0.0589
     13 CL        -12.4880  -17.6932   21.2157 Cl      1  UNL1       -0.0822
     14 C          -9.9499  -17.9044   21.7287 C.ar    1  UNL1        0.0267
     15 C          -8.5977  -18.4580   21.3894 C.ar    1  UNL1        0.0585
     16 C          -7.5780  -17.2196   23.4330 C.3     1  UNL1        0.0970
     17 C          -7.4180  -15.7357   23.2836 C.3     1  UNL1        0.0391
     18 C          -7.4892  -14.8483   24.4908 C.3     1  UNL1        0.0739
     19 C          -5.4737  -15.4552   26.0137 C.3     1  UNL1        0.0897
     20 N          -6.9540  -15.3285   25.8073 N.3     1  UNL1       -0.2703
     21 C          -7.8990  -15.6819   26.9172 C.3     1  UNL1        0.0897
@<TRIPOS>BOND
     1    19    20    1
     2    20    21    1
     3    20    18    1
     4    18    17    1
     5    17    16    1
     6    16     1    1
     7     1     2    1
     8     2     3   ar
     9     3     4   ar
    10     4     5   ar
    11     5     6   ar
    12     6     7   ar
    13     7     8    1
    14     8     9    1
    15     9    10   ar
    16    10    11   ar
    17    11    12   ar
    18    12    13    1
    19    12    14   ar
    20    14    15   ar
    21    15     1    1
    22     7     2   ar
    23    15     9   ar
@<TRIPOS>MOLECULE
*****
 21 23 0 0 0
SMALL
GASTEIGER

@<TRIPOS>ATOM
      1 N          -8.7569  -17.7912   23.0396 N.pl3   1  UNL1       -0.2860
      2 C         -10.1712  -17.8000   22.5398 C.ar    1  UNL1        0.0576
      3 C         -11.2633  -17.1912   23.3685 C.ar    1  UNL1        0.0153
      4 C         -12.6775  -17.2000   22.8687 C.ar    1  UNL1        0.0013
      5 C         -12.9997  -17.8176   21.5403 C.ar    1  UNL1        0.0006
      6 C         -11.9076  -18.4263   20.7116 C.ar    1  UNL1        0.0077
      7 C         -10.4934  -18.4176   21.2114 C.ar    1  UNL1        0.0431
      8 S          -9.4013  -19.0264   20.3827 S.3     1  UNL1       -0.0844
      9 C          -7.9870  -19.0176   20.8824 C.ar    1  UNL1        0.0431
     10 C          -6.8949  -19.6264   20.0537 C.ar    1  UNL1        0.0086
     11 C          -5.4806  -19.6176   20.5535 C.ar    1  UNL1        0.0120
     12 C          -5.1585  -19.0000   21.8820 C.ar    1  UNL1        0.0589
     13 CL         -3.7442  -18.9912   22.3817 Cl      1  UNL1       -0.0822
     14 C          -6.2505  -18.3912   22.7106 C.ar    1  UNL1        0.0267
     15 C          -7.6648  -18.4000   22.2109 C.ar    1  UNL1        0.0585
     16 C          -8.4347  -17.1737   24.3680 C.3     1  UNL1        0.0970
     17 C          -8.5379  -15.6883   24.5494 C.3     1  UNL1        0.0391
     18 C          -7.3781  -14.8067   24.1920 C.3     1  UNL1        0.0739
     19 C          -4.8749  -15.3436   23.7496 C.3     1  UNL1        0.0897
     20 N          -6.0066  -15.1251   24.7095 N.3     1  UNL1       -0.2703
     21 C          -5.7669  -15.2249   26.1869 C.3     1  UNL1        0.0897
@<TRIPOS>BOND
     1    19    20    1
     2    20    21    1
     3    20    18    1
     4    18    17    1
     5    17    16    1
     6    16     1    1
     7     1     2    1
     8     2     3   ar
     9     3     4   ar
    10     4     5   ar
    11     5     6   ar
    12     6     7   ar
    13     7     8    1
    14     8     9    1
    15     9    10   ar
    16    10    11   ar
    17    11    12   ar
    18    12    13    1
    19    12    14   ar
    20    14    15   ar
    21    15     1    1
    22     7     2   ar
    23    15     9   ar
@<TRIPOS>MOLECULE
*****
 21 23 0 0 0
SMALL
GASTEIGER

@<TRIPOS>ATOM
      1 N          -7.6350  -17.8236   22.1441 N.pl3   1  UNL1       -0.2860
      2 C          -8.9115  -18.3436   21.5522 C.ar    1  UNL1        0.0576
      3 C          -8.8711  -19.2286   20.3418 C.ar    1  UNL1        0.0153
      4 C         -10.1475  -19.7485   19.7500 C.ar    1  UNL1        0.0013
      5 C         -11.4644  -19.3834   20.3685 C.ar    1  UNL1        0.0006
      6 C         -11.5048  -18.4983   21.5788 C.ar    1  UNL1        0.0077
      7 C         -10.2284  -17.9784   22.1707 C.ar    1  UNL1        0.0431
      8 S         -10.2688  -17.0933   23.3811 S.3     1  UNL1       -0.0844
      9 C          -8.9923  -16.5734   23.9730 C.ar    1  UNL1        0.0431
     10 C          -9.0327  -15.6883   25.1834 C.ar    1  UNL1        0.0086
     11 C          -7.7563  -15.1684   25.7753 C.ar    1  UNL1        0.0120
     12 C          -6.4394  -15.5335   25.1568 C.ar    1  UNL1        0.0589
     13 CL         -5.1630  -15.0136   25.7486 Cl      1  UNL1       -0.0822
     14 C          -6.3990  -16.4186   23.9464 C.ar    1  UNL1        0.0267
     15 C          -7.6755  -16.9386   23.3545 C.ar    1  UNL1        0.0585
     16 C          -6.3182  -18.1887   21.5256 C.3     1  UNL1        0.0970
     17 C          -5.5401  -19.3575   22.0533 C.3     1  UNL1        0.0391
     18 C          -4.0980  -19.1898   22.4305 C.3     1  UNL1        0.0739
     19 C          -2.8479  -18.4389   20.2802 C.3     1  UNL1        0.0897
     20 N          -3.2444  -18.1917   21.7056 N.3     1  UNL1       -0.2703
     21 C          -2.7874  -16.9466   22.4061 C.3     1  UNL1        0.0897
@<TRIPOS>BOND
     1    19    20    1
     2    20    21    1
     3    20    18    1
     4    18    17    1
     5    17    16    1
     6    16     1    1
     7     1     2    1
     8     2     3   ar
     9     3     4   ar
    10     4     5   ar
    11     5     6   ar
    12     6     7   ar
    13     7     8    1
    14     8     9    1
    15     9    10   ar
    16    10    11   ar
    17    11    12   ar
    18    12    13    1
    19    12    14   ar
    20    14    15   ar
    21    15     1    1
    22     7     2   ar
    23    15     9   ar
@<TRIPOS>MOLECULE
*****
 21 23 0 0 0
SMALL
GASTEIGER

@<TRIPOS>ATOM
      1 N          -6.4015  -18.6477   22.0149 N.pl3   1  UNL1       -0.2860
      2 C          -4.9027  -18.7092   22.0217 C.ar    1  UNL1        0.0576
      3 C          -4.1916  -19.7615   21.2237 C.ar    1  UNL1        0.0153
      4 C          -2.6929  -19.8229   21.2305 C.ar    1  UNL1        0.0013
      5 C          -1.9053  -18.8320   22.0352 C.ar    1  UNL1        0.0006
      6 C          -2.6164  -17.7796   22.8332 C.ar    1  UNL1        0.0077
      7 C          -4.1151  -17.7182   22.8265 C.ar    1  UNL1        0.0431
      8 S          -4.8262  -16.6658   23.6245 S.3     1  UNL1       -0.0844
      9 C          -6.3249  -16.6044   23.6177 C.ar    1  UNL1        0.0431
     10 C          -7.0361  -15.5520   24.4158 C.ar    1  UNL1        0.0086
     11 C          -8.5348  -15.4906   24.4090 C.ar    1  UNL1        0.0120
     12 C          -9.3224  -16.4816   23.6042 C.ar    1  UNL1        0.0589
     13 CL        -10.8211  -16.4202   23.5974 Cl      1  UNL1       -0.0822
     14 C          -8.6113  -17.5339   22.8062 C.ar    1  UNL1        0.0267
     15 C          -7.1125  -17.5954   22.8129 C.ar    1  UNL1        0.0585
     16 C          -7.1891  -19.6387   21.2102 C.3     1  UNL1        0.0970
     17 C          -7.6934  -19.2664   19.8474 C.3     1  UNL1        0.0391
     18 C          -9.0647  -19.6918   19.4132 C.3     1  UNL1        0.0739
     19 C         -10.8613  -17.8530   19.7890 C.3     1  UNL1        0.0897
     20 N         -10.2733  -19.1865   20.1441 N.3     1  UNL1       -0.2703
     21 C         -10.8937  -20.0146   21.2299 C.3     1  UNL1        0.0897
@<TRIPOS>BOND
     1    19    20    1
     2    20    21    1
     3    20    18    1
     4    18    17    1
     5    17    16    1
     6    16     1    1
     7     1     2    1
     8     2     3   ar
     9     3     4   ar
    10     4     5   ar
    11     5     6   ar
    12     6     7   ar
    13     7     8    1
    14     8     9    1
    15     9    10   ar
    16    10    11   ar
    17    11    12   ar
    18    12    13    1
    19    12    14   ar
    20    14    15   ar
    21    15     1    1
    22     7     2   ar
    23    15     9   ar
@<TRIPOS>MOLECULE
*****
 21 23 0 0 0
SMALL
GASTEIGER

@<TRIPOS>ATOM
      1 N          -6.5442  -18.3352   22.1031 N.pl3   1  UNL1       -0.2860
      2 C          -5.2681  -18.9383   21.5951 C.ar    1  UNL1        0.0576
      3 C          -5.3074  -19.9718   20.5088 C.ar    1  UNL1        0.0153
      4 C          -4.0314  -20.5749   20.0008 C.ar    1  UNL1        0.0013
      5 C          -2.7160  -20.1445   20.5793 C.ar    1  UNL1        0.0006
      6 C          -2.6767  -19.1109   21.6657 C.ar    1  UNL1        0.0077
      7 C          -3.9528  -18.5079   22.1736 C.ar    1  UNL1        0.0431
      8 S          -3.9135  -17.4743   23.2600 S.3     1  UNL1       -0.0844
      9 C          -5.1895  -16.8712   23.7679 C.ar    1  UNL1        0.0431
     10 C          -5.1503  -15.8376   24.8543 C.ar    1  UNL1        0.0086
     11 C          -6.4263  -15.2346   25.3622 C.ar    1  UNL1        0.0120
     12 C          -7.7416  -15.6650   24.7838 C.ar    1  UNL1        0.0589
     13 CL         -9.0176  -15.0620   25.2917 Cl      1  UNL1       -0.0822
     14 C          -7.7809  -16.6985   23.6974 C.ar    1  UNL1        0.0267
     15 C          -6.5049  -17.3017   23.1895 C.ar    1  UNL1        0.0585
     16 C          -7.8595  -18.7656   21.5246 C.3     1  UNL1        0.0970
     17 C          -8.7261  -19.7353   22.2720 C.3     1  UNL1        0.0391
     18 C         -10.2057  -19.5049   22.3605 C.3     1  UNL1        0.0739
     19 C         -12.0831  -18.3421   23.7292 C.3     1  UNL1        0.0897
     20 N         -10.8354  -19.1734   23.6810 N.3     1  UNL1       -0.2703
     21 C         -10.2175  -19.6730   24.9531 C.3     1  UNL1        0.0897
@<TRIPOS>BOND
     1    19    20    1
     2    20    21    1
     3    20    18    1
     4    18    17    1
     5    17    16    1
     6    16     1    1
     7     1     2    1
     8     2     3   ar
     9     3     4   ar
    10     4     5   ar
    11     5     6   ar
    12     6     7   ar
    13     7     8    1
    14     8     9    1
    15     9    10   ar
    16    10    11   ar
    17    11    12   ar
    18    12    13    1
    19    12    14   ar
    20    14    15   ar
    21    15     1    1
    22     7     2   ar
    23    15     9   ar
@<TRIPOS>MOLECULE
*****
 21 23 0 0 0
SMALL
GASTEIGER

@<TRIPOS>ATOM
      1 N          -7.3731  -18.0834   22.2196 N.pl3   1  UNL1       -0.2860
      2 C          -8.5770  -18.4783   21.4166 C.ar    1  UNL1        0.0576
      3 C          -9.9372  -17.9853   21.8124 C.ar    1  UNL1        0.0153
      4 C         -11.1410  -18.3802   21.0094 C.ar    1  UNL1        0.0013
      5 C         -10.9846  -19.2680   19.8105 C.ar    1  UNL1        0.0006
      6 C          -9.6244  -19.7609   19.4146 C.ar    1  UNL1        0.0077
      7 C          -8.4206  -19.3660   20.2177 C.ar    1  UNL1        0.0431
      8 S          -7.0603  -19.8590   19.8218 S.3     1  UNL1       -0.0844
      9 C          -5.8565  -19.4641   20.6249 C.ar    1  UNL1        0.0431
     10 C          -4.4962  -19.9571   20.2290 C.ar    1  UNL1        0.0086
     11 C          -3.2924  -19.5622   21.0321 C.ar    1  UNL1        0.0120
     12 C          -3.4488  -18.6745   22.2310 C.ar    1  UNL1        0.0589
     13 CL         -2.2450  -18.2796   23.0340 Cl      1  UNL1       -0.0822
     14 C          -4.8090  -18.1815   22.6268 C.ar    1  UNL1        0.0267
     15 C          -6.0129  -18.5764   21.8238 C.ar    1  UNL1        0.0585
     16 C          -7.5296  -17.1956   23.4185 C.3     1  UNL1        0.0970
     17 C          -7.4848  -15.7049   23.2588 C.3     1  UNL1        0.0391
     18 C          -7.5225  -14.8194   24.4690 C.3     1  UNL1        0.0739
     19 C          -7.9733  -15.7411   26.8560 C.3     1  UNL1        0.0897
     20 N          -7.0093  -15.3253   25.7847 N.3     1  UNL1       -0.2703
     21 C          -5.5321  -15.4154   26.0290 C.3     1  UNL1        0.0897
@<TRIPOS>BOND
     1    19    20    1
     2    20    21    1
     3    20    18    1
     4    18    17    1
     5    17    16    1
     6    16     1    1
     7     1     2    1
     8     2     3   ar
     9     3     4   ar
    10     4     5   ar
    11     5     6   ar
    12     6     7   ar
    13     7     8    1
    14     8     9    1
    15     9    10   ar
    16    10    11   ar
    17    11    12   ar
    18    12    13    1
    19    12    14   ar
    20    14    15   ar
    21    15     1    1
    22     7     2   ar
    23    15     9   ar
@<TRIPOS>MOLECULE
*****
 21 23 0 0 0
SMALL
GASTEIGER

@<TRIPOS>ATOM
      1 N          -6.3145  -18.4642   21.7542 N.pl3   1  UNL1       -0.2860
      2 C          -6.2673  -17.4278   22.8376 C.ar    1  UNL1        0.0576
      3 C          -4.9857  -17.1689   23.5725 C.ar    1  UNL1        0.0153
      4 C          -4.9386  -16.1325   24.6559 C.ar    1  UNL1        0.0013
      5 C          -6.1732  -15.3550   25.0043 C.ar    1  UNL1        0.0006
      6 C          -7.4548  -15.6140   24.2693 C.ar    1  UNL1        0.0077
      7 C          -7.5019  -16.6503   23.1859 C.ar    1  UNL1        0.0431
      8 S          -8.7836  -16.9093   22.4509 S.3     1  UNL1       -0.0844
      9 C          -8.8307  -17.9457   21.3675 C.ar    1  UNL1        0.0431
     10 C         -10.1124  -18.2046   20.6325 C.ar    1  UNL1        0.0086
     11 C         -10.1595  -19.2410   19.5492 C.ar    1  UNL1        0.0120
     12 C          -8.9249  -20.0184   19.2008 C.ar    1  UNL1        0.0589
     13 CL         -8.9720  -21.0548   18.1175 Cl      1  UNL1       -0.0822
     14 C          -7.6432  -19.7595   19.9358 C.ar    1  UNL1        0.0267
     15 C          -7.5961  -18.7231   21.0192 C.ar    1  UNL1        0.0585
     16 C          -5.0799  -19.2416   21.4058 C.3     1  UNL1        0.0970
     17 C          -4.1503  -18.7361   20.3427 C.3     1  UNL1        0.0391
     18 C          -2.6783  -19.0071   20.4427 C.3     1  UNL1        0.0739
     19 C          -2.0435  -16.6582   21.3536 C.3     1  UNL1        0.0897
     20 N          -1.7095  -17.8651   20.5278 N.3     1  UNL1       -0.2703
     21 C          -0.4068  -17.9299   19.7870 C.3     1  UNL1        0.0897
@<TRIPOS>BOND
     1    19    20    1
     2    20    21    1
     3    20    18    1
     4    18    17    1
     5    17    16    1
     6    16     1    1
     7     1     2    1
     8     2     3   ar
     9     3     4   ar
    10     4     5   ar
    11     5     6   ar
    12     6     7   ar
    13     7     8    1
    14     8     9    1
    15     9    10   ar
    16    10    11   ar
    17    11    12   ar
    18    12    13    1
    19    12    14   ar
    20    14    15   ar
    21    15     1    1
    22     7     2   ar
    23    15     9   ar
@<TRIPOS>MOLECULE
*****
 21 23 0 0 0
SMALL
GASTEIGER

@<TRIPOS>ATOM
      1 N          -7.5899  -17.6156   22.3867 N.pl3   1  UNL1       -0.2860
      2 C          -6.2192  -18.2144   22.2735 C.ar    1  UNL1        0.0576
      3 C          -5.1271  -17.7685   23.2000 C.ar    1  UNL1        0.0153
      4 C          -3.7565  -18.3673   23.0868 C.ar    1  UNL1        0.0013
      5 C          -3.4780  -19.4120   22.0471 C.ar    1  UNL1        0.0006
      6 C          -4.5701  -19.8579   21.1206 C.ar    1  UNL1        0.0077
      7 C          -5.9407  -19.2592   21.2338 C.ar    1  UNL1        0.0431
      8 S          -7.0329  -19.7051   20.3073 S.3     1  UNL1       -0.0844
      9 C          -8.4035  -19.1063   20.4205 C.ar    1  UNL1        0.0431
     10 C          -9.4957  -19.5522   19.4940 C.ar    1  UNL1        0.0086
     11 C         -10.8663  -18.9534   19.6073 C.ar    1  UNL1        0.0120
     12 C         -11.1448  -17.9087   20.6470 C.ar    1  UNL1        0.0589
     13 CL        -12.5154  -17.3099   20.7602 Cl      1  UNL1       -0.0822
     14 C         -10.0527  -17.4627   21.5735 C.ar    1  UNL1        0.0267
     15 C          -8.6820  -18.0615   21.4603 C.ar    1  UNL1        0.0585
     16 C          -7.8684  -16.5709   23.4265 C.3     1  UNL1        0.0970
     17 C          -9.1011  -16.6677   24.2755 C.3     1  UNL1        0.0391
     18 C          -9.3210  -17.8706   25.1442 C.3     1  UNL1        0.0739
     19 C          -9.6268  -20.3180   24.3277 C.3     1  UNL1        0.0897
     20 N         -10.2129  -18.9817   24.6750 N.3     1  UNL1       -0.2703
     21 C         -11.6908  -18.7563   24.5530 C.3     1  UNL1        0.0897
@<TRIPOS>BOND
     1    19    20    1
     2    20    21    1
     3    20    18    1
     4    18    17    1
     5    17    16    1
     6    16     1    1
     7     1     2    1
     8     2     3   ar
     9     3     4   ar
    10     4     5   ar
    11     5     6   ar
    12     6     7   ar
    13     7     8    1
    14     8     9    1
    15     9    10   ar
    16    10    11   ar
    17    11    12   ar
    18    12    13    1
    19    12    14   ar
    20    14    15   ar
    21    15     1    1
    22     7     2   ar
    23    15     9   ar
@<TRIPOS>MOLECULE
*****
 21 23 0 0 0
SMALL
GASTEIGER

@<TRIPOS>ATOM
      1 N          -7.5790  -18.8083   21.9906 N.pl3   1  UNL1       -0.2860
      2 C          -9.0404  -18.5048   21.8406 C.ar    1  UNL1        0.0576
      3 C          -9.9472  -19.4949   21.1719 C.ar    1  UNL1        0.0153
      4 C         -11.4085  -19.1914   21.0220 C.ar    1  UNL1        0.0013
      5 C         -11.9629  -17.8977   21.5407 C.ar    1  UNL1        0.0006
      6 C         -11.0560  -16.9076   22.2094 C.ar    1  UNL1        0.0077
      7 C          -9.5947  -17.2112   22.3594 C.ar    1  UNL1        0.0431
      8 S          -8.6878  -16.2210   23.0282 S.3     1  UNL1       -0.0844
      9 C          -7.2265  -16.5246   23.1781 C.ar    1  UNL1        0.0431
     10 C          -6.3196  -15.5344   23.8469 C.ar    1  UNL1        0.0086
     11 C          -4.8583  -15.8380   23.9968 C.ar    1  UNL1        0.0120
     12 C          -4.3039  -17.1316   23.4781 C.ar    1  UNL1        0.0589
     13 CL         -2.8427  -17.4352   23.6280 Cl      1  UNL1       -0.0822
     14 C          -5.2108  -18.1217   22.8093 C.ar    1  UNL1        0.0267
     15 C          -6.6721  -17.8182   22.6594 C.ar    1  UNL1        0.0585
     16 C          -7.0246  -20.1020   21.4719 C.3     1  UNL1        0.0970
     17 C          -6.2341  -20.1217   20.1973 C.3     1  UNL1        0.0391
     18 C          -4.8387  -20.6722   20.1886 C.3     1  UNL1        0.0739
     19 C          -3.6523  -18.5462   19.2817 C.3     1  UNL1        0.0897
     20 N          -3.6643  -19.7390   20.1911 N.3     1  UNL1       -0.2703
     21 C          -2.5020  -19.9986   21.1031 C.3     1  UNL1        0.0897
@<TRIPOS>BOND
     1    19    20    1
     2    20    21    1
     3    20    18    1
     4    18    17    1
     5    17    16    1
     6    16     1    1
     7     1     2    1
     8     2     3   ar
     9     3     4   ar
    10     4     5   ar
    11     5     6   ar
    12     6     7   ar
    13     7     8    1
    14     8     9    1
    15     9    10   ar
    16    10    11   ar
    17    11    12   ar
    18    12    13    1
    19    12    14   ar
    20    14    15   ar
    21    15     1    1
    22     7     2   ar
    23    15     9   ar
