@<TRIPOS>MOLECULE
*****
 23 27 0 0 0
SMALL
GASTEIGER

@<TRIPOS>ATOM
      1 O          -8.4895  -19.2548   19.1060 O.2     1  UNL1       -0.2258
      2 C          -7.3248  -19.2174   20.0505 C.2     1  UNL1        0.4086
      3 O          -5.8759  -19.1906   19.6631 O.3     1  UNL1       -0.4384
      4 C          -5.0602  -19.1568   20.9214 C.3     1  UNL1        0.1706
      5 C          -4.2424  -19.1548   19.6639 C.3     1  UNL1        0.1145
      6 N          -2.7449  -19.1211   19.7432 N.3     1  UNL1       -0.2697
      7 C          -2.0651  -19.0893   21.0799 C.3     1  UNL1        0.0723
      8 C          -2.8829  -19.0913   22.3374 C.3     1  UNL1        0.0209
      9 C          -4.3804  -19.1251   22.2581 C.3     1  UNL1        0.0427
     10 C          -4.3613  -19.1411   20.9584 C.3     1  UNL1        0.0209
     11 C          -3.9252  -19.1400   20.2877 C.3     1  UNL1        0.0723
     12 C          -6.0049  -19.1628   22.0865 C.3     1  UNL1        0.1428
     13 N          -7.4045  -19.2002   21.5483 N.am    1  UNL1       -0.2214
     14 C          -8.6628  -19.2174   22.3646 C.ar    1  UNL1        0.0573
     15 C          -8.8436  -20.2448   23.4424 C.ar    1  UNL1        0.0181
     16 C         -10.1019  -20.2620   24.2586 C.ar    1  UNL1        0.0388
     17 C         -11.1794  -19.2518   23.9971 C.ar    1  UNL1        0.1460
     18 O         -12.5180  -19.0239   24.6347 O.2     1  UNL1       -0.4499
     19 C         -13.1644  -17.8558   23.9510 C.ar    1  UNL1        0.1862
     20 C         -12.2254  -17.3616   22.8908 C.ar    1  UNL1        0.0751
     21 BR        -12.4702  -16.2073   21.9647 Br      1  UNL1       -0.0456
     22 C         -10.9986  -18.2244   22.9193 C.ar    1  UNL1        0.0451
     23 C          -9.7403  -18.2072   22.1030 C.ar    1  UNL1        0.0186
@<TRIPOS>BOND
     1     1     2    2
     2     2     3    1
     3     3     4    1
     4     4     5    1
     5     5     6    1
     6     6     7    1
     7     7     8    1
     8     8     9    1
     9     9    10    1
    10    10    11    1
    11     4    12    1
    12    12    13    1
    13    13    14    1
    14    14    15   ar
    15    15    16   ar
    16    16    17   ar
    17    17    18   ar
    18    18    19   ar
    19    19    20   ar
    20    20    21    1
    21    20    22   ar
    22    22    23   ar
    23    13     2   am
    24    23    14   ar
    25     9     4    1
    26    22    17   ar
    27    11     6    1
@<TRIPOS>MOLECULE
*****
 23 27 0 0 0
SMALL
GASTEIGER

@<TRIPOS>ATOM
      1 O          -8.0542  -14.8839   21.1954 O.2     1  UNL1       -0.2258
      2 C          -8.7575  -15.9398   21.9957 C.2     1  UNL1        0.4086
      3 O         -10.2393  -16.0488   22.2021 O.3     1  UNL1       -0.4384
      4 C         -10.5002  -17.2484   23.0640 C.3     1  UNL1        0.1706
      5 C         -11.7399  -16.5092   22.6559 C.3     1  UNL1        0.1145
      6 N         -13.0851  -16.9917   23.1115 N.3     1  UNL1       -0.2697
      7 C         -13.1906  -18.2135   23.9753 C.3     1  UNL1        0.0723
      8 C         -11.9509  -18.9528   24.3833 C.3     1  UNL1        0.0209
      9 C         -10.6057  -18.4702   23.9277 C.3     1  UNL1        0.0427
     10 C         -11.1279  -17.4736   23.2766 C.3     1  UNL1        0.0209
     11 C         -11.7891  -17.0793   23.0590 C.3     1  UNL1        0.0723
     12 C          -9.1797  -17.8808   23.3902 C.3     1  UNL1        0.1428
     13 N          -8.1027  -17.0720   22.7300 N.am    1  UNL1       -0.2214
     14 C          -6.6295  -17.3472   22.7930 C.ar    1  UNL1        0.0573
     15 C          -5.7632  -16.5793   23.7469 C.ar    1  UNL1        0.0181
     16 C          -4.2901  -16.8545   23.8098 C.ar    1  UNL1        0.0388
     17 C          -3.6832  -17.8975   22.9189 C.ar    1  UNL1        0.1460
     18 O          -2.2732  -18.3841   22.7591 O.2     1  UNL1       -0.4499
     19 C          -2.2682  -19.4527   21.7064 C.ar    1  UNL1        0.1862
     20 C          -3.6749  -19.6265   21.2157 C.ar    1  UNL1        0.0751
     21 BR         -4.1277  -20.5920   20.1608 Br      1  UNL1       -0.0456
     22 C          -4.5494  -18.6654   21.9651 C.ar    1  UNL1        0.0451
     23 C          -6.0226  -18.3902   21.9021 C.ar    1  UNL1        0.0186
@<TRIPOS>BOND
     1     1     2    2
     2     2     3    1
     3     3     4    1
     4     4     5    1
     5     5     6    1
     6     6     7    1
     7     7     8    1
     8     8     9    1
     9     9    10    1
    10    10    11    1
    11     4    12    1
    12    12    13    1
    13    13    14    1
    14    14    15   ar
    15    15    16   ar
    16    16    17   ar
    17    17    18   ar
    18    18    19   ar
    19    19    20   ar
    20    20    21    1
    21    20    22   ar
    22    22    23   ar
    23    13     2   am
    24    23    14   ar
    25     9     4    1
    26    22    17   ar
    27    11     6    1
@<TRIPOS>MOLECULE
*****
 23 27 0 0 0
SMALL
GASTEIGER

@<TRIPOS>ATOM
      1 O          -6.6728  -15.2786   24.4118 O.2     1  UNL1       -0.2258
      2 C          -6.1670  -16.4653   23.6464 C.2     1  UNL1        0.4086
      3 O          -4.7280  -16.7952   23.3809 O.3     1  UNL1       -0.4384
      4 C          -4.6829  -18.0643   22.5825 C.3     1  UNL1        0.1706
      5 C          -3.3324  -17.4882   22.8893 C.3     1  UNL1        0.1145
      6 N          -2.0937  -18.1812   22.4040 N.3     1  UNL1       -0.2697
      7 C          -2.2055  -19.4501   21.6121 C.3     1  UNL1        0.0723
      8 C          -3.5561  -20.0261   21.3054 C.3     1  UNL1        0.0209
      9 C          -4.7948  -19.3332   21.7906 C.3     1  UNL1        0.0427
     10 C          -4.1049  -18.3876   22.3561 C.3     1  UNL1        0.0209
     11 C          -3.3846  -18.0804   22.5197 C.3     1  UNL1        0.0723
     12 C          -6.0941  -18.5187   22.3546 C.3     1  UNL1        0.1428
     13 N          -7.0113  -17.5305   23.0121 N.am    1  UNL1       -0.2214
     14 C          -8.5098  -17.5961   23.0318 C.ar    1  UNL1        0.0573
     15 C          -9.2181  -18.2160   24.1997 C.ar    1  UNL1        0.0181
     16 C         -10.7165  -18.2815   24.2193 C.ar    1  UNL1        0.0388
     17 C         -11.5066  -17.7272   23.0710 C.ar    1  UNL1        0.1460
     18 O         -12.9821  -17.6503   22.8122 O.2     1  UNL1       -0.4499
     19 C         -13.1857  -16.9829   21.4844 C.ar    1  UNL1        0.1862
     20 C         -11.8360  -16.6473   20.9225 C.ar    1  UNL1        0.0751
     21 BR        -11.5707  -15.9706   19.6105 Br      1  UNL1       -0.0456
     22 C         -10.7983  -17.1073   21.9032 C.ar    1  UNL1        0.0451
     23 C          -9.2998  -17.0418   21.8835 C.ar    1  UNL1        0.0186
@<TRIPOS>BOND
     1     1     2    2
     2     2     3    1
     3     3     4    1
     4     4     5    1
     5     5     6    1
     6     6     7    1
     7     7     8    1
     8     8     9    1
     9     9    10    1
    10    10    11    1
    11     4    12    1
    12    12    13    1
    13    13    14    1
    14    14    15   ar
    15    15    16   ar
    16    16    17   ar
    17    17    18   ar
    18    18    19   ar
    19    19    20   ar
    20    20    21    1
    21    20    22   ar
    22    22    23   ar
    23    13     2   am
    24    23    14   ar
    25     9     4    1
    26    22    17   ar
    27    11     6    1
@<TRIPOS>MOLECULE
*****
 23 27 0 0 0
SMALL
GASTEIGER

@<TRIPOS>ATOM
      1 O          -8.6494  -19.2890   18.6245 O.2     1  UNL1       -0.2258
      2 C          -8.9899  -19.1779   20.0811 C.2     1  UNL1        0.4086
      3 O         -10.3513  -18.9085   20.6503 O.3     1  UNL1       -0.4384
      4 C         -10.2316  -18.8808   22.1452 C.3     1  UNL1        0.1706
      5 C         -11.6236  -18.6415   21.6402 C.3     1  UNL1        0.1145
      6 N         -12.7428  -18.4033   22.6100 N.3     1  UNL1       -0.2697
      7 C         -12.4700  -18.4044   24.0850 C.3     1  UNL1        0.0723
      8 C         -11.0780  -18.6437   24.5901 C.3     1  UNL1        0.0209
      9 C          -9.9588  -18.8818   23.6202 C.3     1  UNL1        0.0427
     10 C         -10.7539  -18.7696   22.5978 C.3     1  UNL1        0.0209
     11 C         -11.4963  -18.6420   22.3285 C.3     1  UNL1        0.0723
     12 C          -8.7962  -19.1330   22.5000 C.3     1  UNL1        0.1428
     13 N          -8.0287  -19.3167   21.2243 N.am    1  UNL1       -0.2214
     14 C          -6.5583  -19.5909   21.1117 C.ar    1  UNL1        0.0573
     15 C          -6.0726  -20.7560   20.3012 C.ar    1  UNL1        0.0181
     16 C          -4.6023  -21.0302   20.1886 C.ar    1  UNL1        0.0388
     17 C          -3.6176  -20.1394   20.8864 C.ar    1  UNL1        0.1460
     18 O          -2.1193  -20.1608   20.9573 O.2     1  UNL1       -0.4499
     19 C          -1.6791  -19.0090   21.8115 C.ar    1  UNL1        0.1862
     20 C          -2.9053  -18.2758   22.2685 C.ar    1  UNL1        0.0751
     21 BR         -2.9292  -17.0578   23.1436 Br      1  UNL1       -0.0456
     22 C          -4.1033  -18.9744   21.6968 C.ar    1  UNL1        0.0451
     23 C          -5.5737  -18.7001   21.8094 C.ar    1  UNL1        0.0186
@<TRIPOS>BOND
     1     1     2    2
     2     2     3    1
     3     3     4    1
     4     4     5    1
     5     5     6    1
     6     6     7    1
     7     7     8    1
     8     8     9    1
     9     9    10    1
    10    10    11    1
    11     4    12    1
    12    12    13    1
    13    13    14    1
    14    14    15   ar
    15    15    16   ar
    16    16    17   ar
    17    17    18   ar
    18    18    19   ar
    19    19    20   ar
    20    20    21    1
    21    20    22   ar
    22    22    23   ar
    23    13     2   am
    24    23    14   ar
    25     9     4    1
    26    22    17   ar
    27    11     6    1
@<TRIPOS>MOLECULE
*****
 23 27 0 0 0
SMALL
GASTEIGER

@<TRIPOS>ATOM
      1 O          -8.7328  -21.1719   24.1265 O.2     1  UNL1       -0.2258
      2 C          -9.2053  -19.9526   23.3915 C.2     1  UNL1        0.4086
      3 O         -10.5246  -19.2647   23.5815 O.3     1  UNL1       -0.4384
      4 C         -10.5762  -18.0942   22.6449 C.3     1  UNL1        0.1706
      5 C         -11.8072  -18.2568   23.4865 C.3     1  UNL1        0.1145
      6 N         -12.9462  -17.2913   23.3438 N.3     1  UNL1       -0.2697
      7 C         -12.8543  -16.1631   22.3597 C.3     1  UNL1        0.0723
      8 C         -11.6234  -16.0004   21.5181 C.3     1  UNL1        0.0209
      9 C         -10.4843  -16.9659   21.6607 C.3     1  UNL1        0.0427
     10 C         -11.1078  -17.6436   22.5784 C.3     1  UNL1        0.0209
     11 C         -11.7643  -17.7303   23.0272 C.3     1  UNL1        0.0723
     12 C          -9.2888  -18.0587   21.8760 C.3     1  UNL1        0.1428
     13 N          -8.4415  -19.2073   22.3373 N.am    1  UNL1       -0.2214
     14 C          -7.0711  -19.5504   21.8331 C.ar    1  UNL1        0.0573
     15 C          -6.8982  -20.6305   20.8068 C.ar    1  UNL1        0.0181
     16 C          -5.5278  -20.9735   20.3026 C.ar    1  UNL1        0.0388
     17 C          -4.3303  -20.2364   20.8247 C.ar    1  UNL1        0.1460
     18 O          -2.8667  -20.3537   20.5174 O.2     1  UNL1       -0.4499
     19 C          -2.1352  -19.3461   21.3539 C.ar    1  UNL1        0.1862
     20 C          -3.1465  -18.6061   22.1781 C.ar    1  UNL1        0.0751
     21 BR         -2.8529  -17.5085   23.1574 Br      1  UNL1       -0.0456
     22 C          -4.5032  -19.1563   21.8510 C.ar    1  UNL1        0.0451
     23 C          -5.8736  -18.8133   22.3553 C.ar    1  UNL1        0.0186
@<TRIPOS>BOND
     1     1     2    2
     2     2     3    1
     3     3     4    1
     4     4     5    1
     5     5     6    1
     6     6     7    1
     7     7     8    1
     8     8     9    1
     9     9    10    1
    10    10    11    1
    11     4    12    1
    12    12    13    1
    13    13    14    1
    14    14    15   ar
    15    15    16   ar
    16    16    17   ar
    17    17    18   ar
    18    18    19   ar
    19    19    20   ar
    20    20    21    1
    21    20    22   ar
    22    22    23   ar
    23    13     2   am
    24    23    14   ar
    25     9     4    1
    26    22    17   ar
    27    11     6    1
@<TRIPOS>MOLECULE
*****
 23 27 0 0 0
SMALL
GASTEIGER

@<TRIPOS>ATOM
      1 O          -8.3781  -20.4646   18.6310 O.2     1  UNL1       -0.2258
      2 C          -8.8070  -19.4825   19.6805 C.2     1  UNL1        0.4086
      3 O         -10.1832  -18.9076   19.8404 O.3     1  UNL1       -0.4384
      4 C         -10.1617  -17.9726   21.0131 C.3     1  UNL1        0.1706
      5 C         -11.4988  -18.0783   20.3416 C.3     1  UNL1        0.1145
      6 N         -12.6625  -17.2855   20.8586 N.3     1  UNL1       -0.2697
      7 C         -12.4891  -16.3871   22.0472 C.3     1  UNL1        0.0723
      8 C         -11.1520  -16.2814   22.7187 C.3     1  UNL1        0.0209
      9 C          -9.9883  -17.0742   22.2016 C.3     1  UNL1        0.0427
     10 C         -10.7047  -17.6027   21.2544 C.3     1  UNL1        0.0209
     11 C         -11.4179  -17.6590   20.8962 C.3     1  UNL1        0.0723
     12 C          -8.7721  -17.9696   21.5780 C.3     1  UNL1        0.1428
     13 N          -7.9348  -18.9027   20.7544 N.am    1  UNL1       -0.2214
     14 C          -6.4808  -19.2033   20.9674 C.ar    1  UNL1        0.0573
     15 C          -6.0592  -20.1208   22.0766 C.ar    1  UNL1        0.0181
     16 C          -4.6052  -20.4214   22.2895 C.ar    1  UNL1        0.0388
     17 C          -3.5727  -19.8044   21.3933 C.ar    1  UNL1        0.1460
     18 O          -2.0770  -19.9141   21.3608 O.2     1  UNL1       -0.4499
     19 C          -1.5743  -19.0644   20.2316 C.ar    1  UNL1        0.1862
     20 C          -2.7591  -18.4295   19.5661 C.ar    1  UNL1        0.0751
     21 BR         -2.7165  -17.5004   18.3893 Br      1  UNL1       -0.0456
     22 C          -3.9943  -18.8868   20.2841 C.ar    1  UNL1        0.0451
     23 C          -5.4483  -18.5863   20.0711 C.ar    1  UNL1        0.0186
@<TRIPOS>BOND
     1     1     2    2
     2     2     3    1
     3     3     4    1
     4     4     5    1
     5     5     6    1
     6     6     7    1
     7     7     8    1
     8     8     9    1
     9     9    10    1
    10    10    11    1
    11     4    12    1
    12    12    13    1
    13    13    14    1
    14    14    15   ar
    15    15    16   ar
    16    16    17   ar
    17    17    18   ar
    18    18    19   ar
    19    19    20   ar
    20    20    21    1
    21    20    22   ar
    22    22    23   ar
    23    13     2   am
    24    23    14   ar
    25     9     4    1
    26    22    17   ar
    27    11     6    1
@<TRIPOS>MOLECULE
*****
 23 27 0 0 0
SMALL
GASTEIGER

@<TRIPOS>ATOM
      1 O          -6.8807  -15.8497   23.1149 O.2     1  UNL1       -0.2258
      2 C          -8.0614  -16.6495   22.6500 C.2     1  UNL1        0.4086
      3 O          -9.5036  -16.2775   22.8280 O.3     1  UNL1       -0.4384
      4 C         -10.3408  -17.3599   22.2135 C.3     1  UNL1        0.1706
      5 C         -11.1371  -16.2410   22.8169 C.3     1  UNL1        0.1145
      6 N         -12.6359  -16.2762   22.7687 N.3     1  UNL1       -0.2697
      7 C         -13.3385  -17.4302   22.1171 C.3     1  UNL1        0.0723
      8 C         -12.5422  -18.5491   21.5137 C.3     1  UNL1        0.0209
      9 C         -11.0434  -18.5139   21.5619 C.3     1  UNL1        0.0427
     10 C         -11.0403  -17.3763   22.1910 C.3     1  UNL1        0.0209
     11 C         -11.4650  -16.7796   22.5128 C.3     1  UNL1        0.0723
     12 C          -9.4161  -18.4008   21.6557 C.3     1  UNL1        0.1428
     13 N          -8.0073  -17.9618   21.9254 N.am    1  UNL1       -0.2214
     14 C          -6.7630  -18.7047   21.5385 C.ar    1  UNL1        0.0573
     15 C          -6.8548  -19.9111   20.6518 C.ar    1  UNL1        0.0181
     16 C          -5.6104  -20.6539   20.2649 C.ar    1  UNL1        0.0388
     17 C          -4.2743  -20.1904   20.7647 C.ar    1  UNL1        0.1460
     18 O          -2.8856  -20.7166   20.5528 O.2     1  UNL1       -0.4499
     19 C          -1.9356  -19.8354   21.3085 C.ar    1  UNL1        0.1862
     20 C          -2.7371  -18.7647   21.9875 C.ar    1  UNL1        0.0751
     21 BR         -2.1894  -17.6672   22.8509 Br      1  UNL1       -0.0456
     22 C          -4.1825  -18.9841   21.6514 C.ar    1  UNL1        0.0451
     23 C          -5.4268  -18.2412   22.0383 C.ar    1  UNL1        0.0186
@<TRIPOS>BOND
     1     1     2    2
     2     2     3    1
     3     3     4    1
     4     4     5    1
     5     5     6    1
     6     6     7    1
     7     7     8    1
     8     8     9    1
     9     9    10    1
    10    10    11    1
    11     4    12    1
    12    12    13    1
    13    13    14    1
    14    14    15   ar
    15    15    16   ar
    16    16    17   ar
    17    17    18   ar
    18    18    19   ar
    19    19    20   ar
    20    20    21    1
    21    20    22   ar
    22    22    23   ar
    23    13     2   am
    24    23    14   ar
    25     9     4    1
    26    22    17   ar
    27    11     6    1
@<TRIPOS>MOLECULE
*****
 23 27 0 0 0
SMALL
GASTEIGER

@<TRIPOS>ATOM
      1 O          -8.7990  -20.4179   23.7257 O.2     1  UNL1       -0.2258
      2 C          -9.2273  -19.2582   22.8762 C.2     1  UNL1        0.4086
      3 O         -10.6350  -18.9333   22.4725 O.3     1  UNL1       -0.4384
      4 C         -10.6009  -17.6941   21.6280 C.3     1  UNL1        0.1706
      5 C         -11.9770  -18.2539   21.8345 C.3     1  UNL1        0.1145
      6 N         -13.1634  -17.5750   21.2168 N.3     1  UNL1       -0.2697
      7 C         -12.9736  -16.3362   20.3926 C.3     1  UNL1        0.0723
      8 C         -11.5974  -15.7764   20.1861 C.3     1  UNL1        0.0209
      9 C         -10.4110  -16.4553   20.8039 C.3     1  UNL1        0.0427
     10 C         -11.1545  -17.3773   21.3398 C.3     1  UNL1        0.0209
     11 C         -11.8885  -17.6758   21.4499 C.3     1  UNL1        0.0723
     12 C          -9.1721  -17.2531   21.5097 C.3     1  UNL1        0.1428
     13 N          -8.3231  -18.2197   22.2811 N.am    1  UNL1       -0.2214
     14 C          -6.8319  -18.1586   22.4311 C.ar    1  UNL1        0.0573
     15 C          -6.2177  -17.2520   23.4563 C.ar    1  UNL1        0.0181
     16 C          -4.7266  -17.1910   23.6062 C.ar    1  UNL1        0.0388
     17 C          -3.8495  -18.0364   22.7310 C.ar    1  UNL1        0.1460
     18 O          -2.3593  -18.1870   22.6495 O.2     1  UNL1       -0.4499
     19 C          -2.0524  -19.1866   21.5740 C.ar    1  UNL1        0.1862
     20 C          -3.3530  -19.6538   20.9908 C.ar    1  UNL1        0.0751
     21 BR         -3.5146  -20.6559   19.8864 Br      1  UNL1       -0.0456
     22 C          -4.4637  -18.9429   21.7058 C.ar    1  UNL1        0.0451
     23 C          -5.9549  -19.0040   21.5559 C.ar    1  UNL1        0.0186
@<TRIPOS>BOND
     1     1     2    2
     2     2     3    1
     3     3     4    1
     4     4     5    1
     5     5     6    1
     6     6     7    1
     7     7     8    1
     8     8     9    1
     9     9    10    1
    10    10    11    1
    11     4    12    1
    12    12    13    1
    13    13    14    1
    14    14    15   ar
    15    15    16   ar
    16    16    17   ar
    17    17    18   ar
    18    18    19   ar
    19    19    20   ar
    20    20    21    1
    21    20    22   ar
    22    22    23   ar
    23    13     2   am
    24    23    14   ar
    25     9     4    1
    26    22    17   ar
    27    11     6    1
@<TRIPOS>MOLECULE
*****
 23 27 0 0 0
SMALL
GASTEIGER

@<TRIPOS>ATOM
      1 O          -7.2272  -16.3890   23.9016 O.2     1  UNL1       -0.2258
      2 C          -6.6644  -17.3846   22.9310 C.2     1  UNL1        0.4086
      3 O          -5.2227  -17.7809   22.8108 O.3     1  UNL1       -0.4384
      4 C          -5.1118  -18.7999   21.7157 C.3     1  UNL1        0.1706
      5 C          -3.8050  -18.4636   22.3707 C.3     1  UNL1        0.1145
      6 N          -2.5426  -19.1318   21.9126 N.3     1  UNL1       -0.2697
      7 C          -2.5870  -20.1363   20.7996 C.3     1  UNL1        0.0723
      8 C          -3.8938  -20.4726   20.1445 C.3     1  UNL1        0.0209
      9 C          -5.1562  -19.8044   20.6026 C.3     1  UNL1        0.0427
     10 C          -4.5227  -19.1117   21.5019 C.3     1  UNL1        0.0209
     11 C          -3.8257  -18.9324   21.8513 C.3     1  UNL1        0.0723
     12 C          -6.4850  -19.0334   21.1590 C.3     1  UNL1        0.1428
     13 N          -7.4446  -18.1587   21.9101 N.am    1  UNL1       -0.2214
     14 C          -8.9244  -18.0731   21.6806 C.ar    1  UNL1        0.0573
     15 C          -9.4551  -17.7848   20.3076 C.ar    1  UNL1        0.0181
     16 C         -10.9349  -17.6993   20.0782 C.ar    1  UNL1        0.0388
     17 C         -11.8841  -17.9021   21.2218 C.ar    1  UNL1        0.1460
     18 O         -13.3820  -17.8774   21.2995 O.2     1  UNL1       -0.4499
     19 C         -13.7770  -18.1504   22.7205 C.ar    1  UNL1        0.1862
     20 C         -12.5234  -18.3438   23.5211 C.ar    1  UNL1        0.0751
     21 BR        -12.4521  -18.6389   24.9900 Br      1  UNL1       -0.0456
     22 C         -11.3535  -18.1904   22.5948 C.ar    1  UNL1        0.0451
     23 C          -9.8737  -18.2759   22.8242 C.ar    1  UNL1        0.0186
@<TRIPOS>BOND
     1     1     2    2
     2     2     3    1
     3     3     4    1
     4     4     5    1
     5     5     6    1
     6     6     7    1
     7     7     8    1
     8     8     9    1
     9     9    10    1
    10    10    11    1
    11     4    12    1
    12    12    13    1
    13    13    14    1
    14    14    15   ar
    15    15    16   ar
    16    16    17   ar
    17    17    18   ar
    18    18    19   ar
    19    19    20   ar
    20    20    21    1
    21    20    22   ar
    22    22    23   ar
    23    13     2   am
    24    23    14   ar
    25     9     4    1
    26    22    17   ar
    27    11     6    1
