@<TRIPOS>MOLECULE
*****
 39 43 0 0 0
SMALL
GASTEIGER

@<TRIPOS>ATOM
      1 C           2.4160    0.9587   22.7188 C.3     1  UNL1        0.1408
      2 C           1.5220    1.6776   23.6851 C.3     1  UNL1        0.1231
      3 N           1.9078    1.2591   25.0729 N.am    1  UNL1       -0.2783
      4 C           1.5938    1.4447   26.5279 C.2     1  UNL1        0.2253
      5 O           0.5284    2.3366   27.0930 O.2     1  UNL1       -0.2749
      6 C           2.5321    0.5819   27.3184 C.3     1  UNL1        0.0807
      7 C           2.9179    0.1634   28.7062 C.3     1  UNL1        0.0360
      8 C           4.0504   -0.8142   28.5975 C.3     1  UNL1        0.0889
      9 C           3.9696   -0.8338   30.0952 C.3     1  UNL1        0.0293
     10 O           5.1660   -1.7959   28.8020 O.3     1  UNL1       -0.3867
     11 C           4.3645   -0.9999   27.1426 C.3     1  UNL1        0.0291
     12 C           3.4261   -0.1371   26.3520 C.3     1  UNL1        0.0296
     13 C           3.0403    0.2814   24.9642 C.3     1  UNL1        0.0823
     14 C           3.3543    0.0958   23.5093 C.3     1  UNL1        0.0694
     15 H           5.2854   -1.9566   29.7511 H       1  UNL1        0.2102
     16 C           4.4198   -0.7961   22.9441 C.ar    1  UNL1       -0.0183
     17 C           4.3181   -2.2835   23.1092 C.ar    1  UNL1       -0.0018
     18 C           5.3835   -3.1754   22.5440 C.ar    1  UNL1        0.0293
     19 C           6.5506   -2.5798   21.8137 C.ar    1  UNL1        0.1401
     20 F           7.6160   -3.4718   21.2485 F       1  UNL1       -0.2042
     21 C           6.6522   -1.0924   21.6485 C.ar    1  UNL1        0.0293
     22 C           5.5868   -0.2006   22.2138 C.ar    1  UNL1       -0.0018
     23 O           2.3783    1.0810   21.2242 O.3     1  UNL1       -0.3522
     24 C           0.5596   -0.5075   20.2657 C.3     1  UNL1        0.0370
     25 C           1.9990   -0.1024   20.3843 C.3     1  UNL1        0.1375
     26 C           3.0590   -0.8808   19.6628 C.ar    1  UNL1        0.0044
     27 C           4.1033   -0.1614   18.8616 C.ar    1  UNL1        0.0019
     28 C           5.1633   -0.9398   18.1401 C.ar    1  UNL1        0.0711
     29 C           5.1791   -2.4376   18.2200 C.ar    1  UNL1        0.0077
     30 C           4.1348   -3.1570   19.0213 C.ar    1  UNL1        0.0711
     31 C           3.0748   -2.3786   19.7427 C.ar    1  UNL1        0.0019
     32 C           6.2075   -0.2204   17.3389 C.3     1  UNL1        0.4186
     33 F           7.2517    0.4989   16.5376 F       1  UNL1       -0.1659
     34 F           7.2423   -0.5818   18.3630 F       1  UNL1       -0.1659
     35 F           5.1728    0.1409   16.3148 F       1  UNL1       -0.1659
     36 C           4.1506   -4.6548   19.1011 C.3     1  UNL1        0.4186
     37 F           4.1663   -6.1526   19.1809 F       1  UNL1       -0.1659
     38 F           2.6739   -4.6843   18.8388 F       1  UNL1       -0.1659
     39 F           5.6271   -4.6253   19.3633 F       1  UNL1       -0.1659
@<TRIPOS>BOND
     1    25    24    1
     2    25    23    1
     3     1    23    1
     4     1     2    1
     5     2     3    1
     6     3     4   am
     7     4     5    2
     8     4     6    1
     9     6     7    1
    10     7     8    1
    11     8     9    1
    12     8    10    1
    13     8    11    1
    14    12    11    1
    15    12    13    1
    16    13    14    1
    17    14    16    1
    18    16    17   ar
    19    17    18   ar
    20    18    19   ar
    21    19    20    1
    22    19    21   ar
    23    21    22   ar
    24    25    26    1
    25    26    27   ar
    26    27    28   ar
    27    28    32    1
    28    32    33    1
    29    32    34    1
    30    32    35    1
    31    28    29   ar
    32    29    30   ar
    33    30    36    1
    34    36    37    1
    35    36    38    1
    36    36    39    1
    37    30    31   ar
    38    14     1    1
    39    22    16   ar
    40    31    26   ar
    41    13     3    1
    42    12     6    1
    43    10    15    1
@<TRIPOS>MOLECULE
*****
 39 43 0 0 0
SMALL
GASTEIGER

@<TRIPOS>ATOM
      1 C           2.4116    0.9665   22.7191 C.3     1  UNL1        0.1408
      2 C           1.5175    1.6788   23.6901 C.3     1  UNL1        0.1231
      3 N           1.9094    1.2583   25.0755 N.am    1  UNL1       -0.2783
      4 C           1.5991    1.4386   26.5320 C.2     1  UNL1        0.2253
      5 O           0.5315    2.3243   27.1028 O.2     1  UNL1       -0.2749
      6 C           2.5437    0.5777   27.3173 C.3     1  UNL1        0.0807
      7 C           2.9356    0.1572   28.7028 C.3     1  UNL1        0.0360
      8 C           4.0720   -0.8151   28.5879 C.3     1  UNL1        0.0889
      9 C           3.9959   -0.8391   30.0858 C.3     1  UNL1        0.0293
     10 O           5.1925   -1.7924   28.7863 O.3     1  UNL1       -0.3867
     11 C           4.3824   -0.9955   27.1315 C.3     1  UNL1        0.0291
     12 C           3.4378   -0.1346   26.3462 C.3     1  UNL1        0.0296
     13 C           3.0459    0.2859   24.9607 C.3     1  UNL1        0.0823
     14 C           3.3562    0.1056   23.5044 C.3     1  UNL1        0.0694
     15 H           5.3155   -1.9551   29.7346 H       1  UNL1        0.2102
     16 C           4.4238   -0.7801   22.9334 C.ar    1  UNL1       -0.0183
     17 C           4.3307   -2.2682   23.0974 C.ar    1  UNL1       -0.0018
     18 C           5.3983   -3.1538   22.5265 C.ar    1  UNL1        0.0293
     19 C           6.5589   -2.5514   21.7916 C.ar    1  UNL1        0.1401
     20 F           7.6265   -3.4371   21.2207 F       1  UNL1       -0.2042
     21 C           6.6520   -1.0633   21.6277 C.ar    1  UNL1        0.0293
     22 C           5.5844   -0.1776   22.1986 C.ar    1  UNL1       -0.0018
     23 O           2.3688    1.0927   21.2250 O.3     1  UNL1       -0.3522
     24 C           0.5450   -0.4876   20.2623 C.3     1  UNL1        0.0370
     25 C           1.9859   -0.0884   20.3833 C.3     1  UNL1        0.1375
     26 C           3.0438   -0.8703   19.6626 C.ar    1  UNL1        0.0044
     27 C           3.0605   -2.3677   19.7506 C.ar    1  UNL1        0.0019
     28 C           4.1183   -3.1496   19.0299 C.ar    1  UNL1        0.0711
     29 C           5.1596   -2.4342   18.2211 C.ar    1  UNL1        0.0077
     30 C           5.1429   -0.9368   18.1331 C.ar    1  UNL1        0.0711
     31 C           4.0850   -0.1549   18.8538 C.ar    1  UNL1        0.0019
     32 C           4.1351   -4.6469   19.1179 C.3     1  UNL1        0.4186
     33 F           4.1517   -6.1442   19.2059 F       1  UNL1       -0.1659
     34 F           5.6118   -4.6151   19.3793 F       1  UNL1       -0.1659
     35 F           2.6583   -4.6787   18.8565 F       1  UNL1       -0.1659
     36 C           6.1841   -0.2214   17.3244 C.3     1  UNL1        0.4186
     37 F           7.2254    0.4940   16.5156 F       1  UNL1       -0.1659
     38 F           7.2258   -0.5910   18.3385 F       1  UNL1       -0.1659
     39 F           5.1426    0.1482   16.3103 F       1  UNL1       -0.1659
@<TRIPOS>BOND
     1    25    24    1
     2    25    23    1
     3     1    23    1
     4     1     2    1
     5     2     3    1
     6     3     4   am
     7     4     5    2
     8     4     6    1
     9     6     7    1
    10     7     8    1
    11     8     9    1
    12     8    10    1
    13     8    11    1
    14    12    11    1
    15    12    13    1
    16    13    14    1
    17    14    16    1
    18    16    17   ar
    19    17    18   ar
    20    18    19   ar
    21    19    20    1
    22    19    21   ar
    23    21    22   ar
    24    25    26    1
    25    26    27   ar
    26    27    28   ar
    27    28    32    1
    28    32    33    1
    29    32    34    1
    30    32    35    1
    31    28    29   ar
    32    29    30   ar
    33    30    36    1
    34    36    37    1
    35    36    38    1
    36    36    39    1
    37    30    31   ar
    38    14     1    1
    39    22    16   ar
    40    31    26   ar
    41    13     3    1
    42    12     6    1
    43    10    15    1
@<TRIPOS>MOLECULE
*****
 39 43 0 0 0
SMALL
GASTEIGER

@<TRIPOS>ATOM
      1 C           3.4260    0.1005   23.2939 C.3     1  UNL1        0.1408
      2 C           2.6933   -0.0454   24.5945 C.3     1  UNL1        0.1231
      3 N           3.5935   -0.7635   25.5557 N.am    1  UNL1       -0.2783
      4 C           3.6971   -1.2976   26.9536 C.2     1  UNL1        0.2253
      5 O           2.6341   -1.2177   28.0089 O.2     1  UNL1       -0.2749
      6 C           5.0503   -1.9255   27.1109 C.3     1  UNL1        0.0807
      7 C           5.9505   -2.6436   28.0721 C.3     1  UNL1        0.0360
      8 C           7.2396   -2.9415   27.3654 C.3     1  UNL1        0.0889
      9 C           7.6297   -3.5650   28.6726 C.3     1  UNL1        0.0293
     10 O           8.6103   -3.3697   26.9320 O.3     1  UNL1       -0.3867
     11 C           7.1361   -2.4074   25.9675 C.3     1  UNL1        0.0291
     12 C           5.7830   -1.7795   25.8102 C.3     1  UNL1        0.0296
     13 C           4.8827   -1.0614   24.8490 C.3     1  UNL1        0.0823
     14 C           4.7791   -0.5274   23.4512 C.3     1  UNL1        0.0694
     15 H           9.0571   -3.8168   27.6678 H       1  UNL1        0.2102
     16 C           5.8421   -0.6073   22.3958 C.ar    1  UNL1       -0.0183
     17 C           6.3784   -1.9421   21.9709 C.ar    1  UNL1       -0.0018
     18 C           7.4414   -2.0219   20.9156 C.ar    1  UNL1        0.0293
     19 C           7.9680   -0.7669   20.2851 C.ar    1  UNL1        0.1401
     20 F           9.0310   -0.8467   19.2297 F       1  UNL1       -0.2042
     21 C           7.4318    0.5680   20.7100 C.ar    1  UNL1        0.0293
     22 C           6.3688    0.6478   21.7653 C.ar    1  UNL1       -0.0018
     23 O           2.8983    0.7588   22.0536 O.3     1  UNL1       -0.3522
     24 C           0.8281   -0.1339   20.7623 C.3     1  UNL1        0.0370
     25 C           2.3149   -0.0756   20.9520 C.3     1  UNL1        0.1375
     26 C           3.2183   -0.8516   20.0401 C.ar    1  UNL1        0.0044
     27 C           4.1280   -0.1281   19.0919 C.ar    1  UNL1        0.0019
     28 C           5.0314   -0.9041   18.1800 C.ar    1  UNL1        0.0711
     29 C           5.0252   -2.4037   18.2163 C.ar    1  UNL1        0.0077
     30 C           4.1155   -3.1272   19.1645 C.ar    1  UNL1        0.0711
     31 C           3.2121   -2.3512   20.0764 C.ar    1  UNL1        0.0019
     32 C           5.9411   -0.1807   17.2318 C.3     1  UNL1        0.4186
     33 F           6.8508    0.5427   16.2836 F       1  UNL1       -0.1659
     34 F           5.0050    0.9914   17.2280 F       1  UNL1       -0.1659
     35 F           6.8772   -1.3529   17.2356 F       1  UNL1       -0.1659
     36 C           4.1093   -4.6268   19.2008 C.3     1  UNL1        0.4186
     37 F           4.1031   -6.1264   19.2371 F       1  UNL1       -0.1659
     38 F           5.5777   -4.6255   19.5070 F       1  UNL1       -0.1659
     39 F           2.6410   -4.6281   18.8946 F       1  UNL1       -0.1659
@<TRIPOS>BOND
     1    25    24    1
     2    25    23    1
     3     1    23    1
     4     1     2    1
     5     2     3    1
     6     3     4   am
     7     4     5    2
     8     4     6    1
     9     6     7    1
    10     7     8    1
    11     8     9    1
    12     8    10    1
    13     8    11    1
    14    12    11    1
    15    12    13    1
    16    13    14    1
    17    14    16    1
    18    16    17   ar
    19    17    18   ar
    20    18    19   ar
    21    19    20    1
    22    19    21   ar
    23    21    22   ar
    24    25    26    1
    25    26    27   ar
    26    27    28   ar
    27    28    32    1
    28    32    33    1
    29    32    34    1
    30    32    35    1
    31    28    29   ar
    32    29    30   ar
    33    30    36    1
    34    36    37    1
    35    36    38    1
    36    36    39    1
    37    30    31   ar
    38    14     1    1
    39    22    16   ar
    40    31    26   ar
    41    13     3    1
    42    12     6    1
    43    10    15    1
@<TRIPOS>MOLECULE
*****
 39 43 0 0 0
SMALL
GASTEIGER

@<TRIPOS>ATOM
      1 C           7.1989   -3.8865   20.8902 C.3     1  UNL1        0.1408
      2 C           8.0892   -5.0437   21.2333 C.3     1  UNL1        0.1231
      3 N           8.0512   -5.2326   22.7209 N.am    1  UNL1       -0.2783
      4 C           8.5780   -6.0646   23.8524 C.2     1  UNL1        0.2253
      5 O           9.5266   -7.2202   23.7299 O.2     1  UNL1       -0.2749
      6 C           7.9897   -5.5383   25.1279 C.3     1  UNL1        0.0807
      7 C           7.9517   -5.7272   26.6155 C.3     1  UNL1        0.0360
      8 C           7.0379   -4.6866   27.1916 C.3     1  UNL1        0.0889
      9 C           7.3889   -5.3291   28.5008 C.3     1  UNL1        0.0293
     10 O           6.1974   -3.7803   28.0415 O.3     1  UNL1       -0.3867
     11 C           6.5110   -3.8545   26.0602 C.3     1  UNL1        0.0291
     12 C           7.0993   -4.3809   24.7847 C.3     1  UNL1        0.0296
     13 C           7.1373   -4.1920   23.2971 C.3     1  UNL1        0.0823
     14 C           6.6106   -3.3601   22.1656 C.3     1  UNL1        0.0694
     15 H           6.2853   -4.0369   28.9728 H       1  UNL1        0.2102
     16 C           5.6620   -2.2045   22.2881 C.ar    1  UNL1       -0.0183
     17 C           4.2728   -2.4264   22.8086 C.ar    1  UNL1       -0.0018
     18 C           3.3243   -1.2709   22.9310 C.ar    1  UNL1        0.0293
     19 C           3.7650    0.1066   22.5330 C.ar    1  UNL1        0.1401
     20 F           2.8164    1.2622   22.6555 F       1  UNL1       -0.2042
     21 C           5.1541    0.3285   22.0126 C.ar    1  UNL1        0.0293
     22 C           6.1027   -0.8270   21.8901 C.ar    1  UNL1       -0.0018
     23 O           6.9418   -3.3497   19.5133 O.3     1  UNL1       -0.3522
     24 C           4.7634   -4.5280   18.7283 C.3     1  UNL1        0.0370
     25 C           5.5386   -3.2706   18.9891 C.3     1  UNL1        0.1375
     26 C           4.9106   -1.9341   18.7257 C.ar    1  UNL1        0.0044
     27 C           3.5140   -1.6557   19.1972 C.ar    1  UNL1        0.0019
     28 C           2.8860   -0.3192   18.9338 C.ar    1  UNL1        0.0711
     29 C           3.6544    0.7389   18.1989 C.ar    1  UNL1        0.0077
     30 C           5.0510    0.4604   17.7274 C.ar    1  UNL1        0.0711
     31 C           5.6790   -0.8761   17.9908 C.ar    1  UNL1        0.0019
     32 C           1.4896   -0.0407   19.4052 C.3     1  UNL1        0.4186
     33 F           0.0931    0.2378   19.8767 F       1  UNL1       -0.1659
     34 F           1.5062   -1.3100   20.2044 F       1  UNL1       -0.1659
     35 F           1.4729    1.2286   18.6061 F       1  UNL1       -0.1659
     36 C           5.8194    1.5185   16.9925 C.3     1  UNL1        0.4186
     37 F           6.5879    2.5765   16.2577 F       1  UNL1       -0.1659
     38 F           4.9521    2.5761   17.6083 F       1  UNL1       -0.1659
     39 F           6.6868    0.4609   16.3768 F       1  UNL1       -0.1659
@<TRIPOS>BOND
     1    25    24    1
     2    25    23    1
     3     1    23    1
     4     1     2    1
     5     2     3    1
     6     3     4   am
     7     4     5    2
     8     4     6    1
     9     6     7    1
    10     7     8    1
    11     8     9    1
    12     8    10    1
    13     8    11    1
    14    12    11    1
    15    12    13    1
    16    13    14    1
    17    14    16    1
    18    16    17   ar
    19    17    18   ar
    20    18    19   ar
    21    19    20    1
    22    19    21   ar
    23    21    22   ar
    24    25    26    1
    25    26    27   ar
    26    27    28   ar
    27    28    32    1
    28    32    33    1
    29    32    34    1
    30    32    35    1
    31    28    29   ar
    32    29    30   ar
    33    30    36    1
    34    36    37    1
    35    36    38    1
    36    36    39    1
    37    30    31   ar
    38    14     1    1
    39    22    16   ar
    40    31    26   ar
    41    13     3    1
    42    12     6    1
    43    10    15    1
@<TRIPOS>MOLECULE
*****
 39 43 0 0 0
SMALL
GASTEIGER

@<TRIPOS>ATOM
      1 C           7.2106   -3.9087   20.8563 C.3     1  UNL1        0.1408
      2 C           8.0859   -5.0792   21.1931 C.3     1  UNL1        0.1231
      3 N           8.0073   -5.3059   22.6737 N.am    1  UNL1       -0.2783
      4 C           8.4998   -6.1694   23.7971 C.2     1  UNL1        0.2253
      5 O           9.4457   -7.3266   23.6701 O.2     1  UNL1       -0.2749
      6 C           7.8802   -5.6726   25.0696 C.3     1  UNL1        0.0807
      7 C           7.8017   -5.8993   26.5503 C.3     1  UNL1        0.0360
      8 C           6.8777   -4.8688   27.1286 C.3     1  UNL1        0.0889
      9 C           7.1907   -5.5465   28.4296 C.3     1  UNL1        0.0293
     10 O           6.0193   -3.9800   27.9788 O.3     1  UNL1       -0.3867
     11 C           6.3853   -4.0053   26.0053 C.3     1  UNL1        0.0291
     12 C           7.0048   -4.5021   24.7328 C.3     1  UNL1        0.0296
     13 C           7.0834   -4.2754   23.2521 C.3     1  UNL1        0.0823
     14 C           6.5910   -3.4119   22.1288 C.3     1  UNL1        0.0694
     15 H           6.0811   -4.2609   28.9052 H       1  UNL1        0.2102
     16 C           5.6450   -2.2547   22.2557 C.ar    1  UNL1       -0.0183
     17 C           4.2536   -2.4763   22.7703 C.ar    1  UNL1       -0.0018
     18 C           3.3077   -1.3191   22.8972 C.ar    1  UNL1        0.0293
     19 C           3.7532    0.0598   22.5095 C.ar    1  UNL1        0.1401
     20 F           2.8072    1.2170   22.6365 F       1  UNL1       -0.2042
     21 C           5.1446    0.2814   21.9949 C.ar    1  UNL1        0.0293
     22 C           6.0905   -0.8758   21.8680 C.ar    1  UNL1       -0.0018
     23 O           6.9929   -3.3354   19.4873 O.3     1  UNL1       -0.3522
     24 C           4.8421   -4.5002   18.6114 C.3     1  UNL1        0.0370
     25 C           5.6059   -3.2474   18.9230 C.3     1  UNL1        0.1375
     26 C           4.9827   -1.9067   18.6703 C.ar    1  UNL1        0.0044
     27 C           5.7611   -0.8397   17.9591 C.ar    1  UNL1        0.0019
     28 C           5.1379    0.5010   17.7064 C.ar    1  UNL1        0.0711
     29 C           3.7362    0.7750   18.1649 C.ar    1  UNL1        0.0077
     30 C           2.9577   -0.2919   18.8761 C.ar    1  UNL1        0.0711
     31 C           3.5809   -1.6327   19.1288 C.ar    1  UNL1        0.0019
     32 C           5.9163    1.5679   16.9952 C.3     1  UNL1        0.4186
     33 F           6.6948    2.6347   16.2840 F       1  UNL1       -0.1659
     34 F           5.0709    2.6205   17.6489 F       1  UNL1       -0.1659
     35 F           6.7618    0.5152   16.3415 F       1  UNL1       -0.1659
     36 C           1.5560   -0.0180   19.3346 C.3     1  UNL1        0.4186
     37 F           0.1543    0.2559   19.7931 F       1  UNL1       -0.1659
     38 F           1.5964   -1.2476   20.1928 F       1  UNL1       -0.1659
     39 F           1.5156    1.2115   18.4764 F       1  UNL1       -0.1659
@<TRIPOS>BOND
     1    25    24    1
     2    25    23    1
     3     1    23    1
     4     1     2    1
     5     2     3    1
     6     3     4   am
     7     4     5    2
     8     4     6    1
     9     6     7    1
    10     7     8    1
    11     8     9    1
    12     8    10    1
    13     8    11    1
    14    12    11    1
    15    12    13    1
    16    13    14    1
    17    14    16    1
    18    16    17   ar
    19    17    18   ar
    20    18    19   ar
    21    19    20    1
    22    19    21   ar
    23    21    22   ar
    24    25    26    1
    25    26    27   ar
    26    27    28   ar
    27    28    32    1
    28    32    33    1
    29    32    34    1
    30    32    35    1
    31    28    29   ar
    32    29    30   ar
    33    30    36    1
    34    36    37    1
    35    36    38    1
    36    36    39    1
    37    30    31   ar
    38    14     1    1
    39    22    16   ar
    40    31    26   ar
    41    13     3    1
    42    12     6    1
    43    10    15    1
@<TRIPOS>MOLECULE
*****
 39 43 0 0 0
SMALL
GASTEIGER

@<TRIPOS>ATOM
      1 C           3.0717    0.0198   24.4906 C.3     1  UNL1        0.1408
      2 C           2.8609    0.2177   25.9624 C.3     1  UNL1        0.1231
      3 N           1.6071    1.0200   26.1474 N.am    1  UNL1       -0.2783
      4 C           0.7019    1.6382   27.1714 C.2     1  UNL1        0.2253
      5 O           0.8877    1.5856   28.6589 O.2     1  UNL1       -0.2749
      6 C          -0.4216    2.3182   26.4467 C.3     1  UNL1        0.0807
      7 C          -1.6754    3.1206   26.6317 C.3     1  UNL1        0.0360
      8 C          -2.2396    3.4185   25.2741 C.3     1  UNL1        0.0889
      9 C          -3.3094    4.1301   26.0481 C.3     1  UNL1        0.0293
     10 O          -3.0274    3.8652   24.0784 O.3     1  UNL1       -0.3867
     11 C          -1.3344    2.8003   24.2501 C.3     1  UNL1        0.0291
     12 C          -0.2109    2.1203   24.9748 C.3     1  UNL1        0.0296
     13 C           1.0429    1.3180   24.7898 C.3     1  UNL1        0.0823
     14 C           1.9481    0.6998   23.7659 C.3     1  UNL1        0.0694
     15 H          -3.8025    4.3691   24.3718 H       1  UNL1        0.2102
     16 C           1.7623    0.7524   22.2783 C.ar    1  UNL1       -0.0183
     17 C           2.1383    1.9900   21.5188 C.ar    1  UNL1       -0.0018
     18 C           1.9526    2.0425   20.0313 C.ar    1  UNL1        0.0293
     19 C           1.3908    0.8574   19.3033 C.ar    1  UNL1        0.1401
     20 F           1.2050    0.9100   17.8157 F       1  UNL1       -0.2042
     21 C           1.0148   -0.3802   20.0628 C.ar    1  UNL1        0.0293
     22 C           1.2006   -0.4327   21.5503 C.ar    1  UNL1       -0.0018
     23 O           4.2067   -0.7270   23.8549 O.3     1  UNL1       -0.3522
     24 C           5.6534    1.0601   22.6453 C.3     1  UNL1        0.0370
     25 C           4.8423   -0.2009   22.6023 C.3     1  UNL1        0.1375
     26 C           4.6669   -0.9359   21.3065 C.ar    1  UNL1        0.0044
     27 C           4.9328   -0.2372   20.0060 C.ar    1  UNL1        0.0019
     28 C           4.7574   -0.9722   18.7102 C.ar    1  UNL1        0.0711
     29 C           4.3160   -2.4058   18.7149 C.ar    1  UNL1        0.0077
     30 C           4.0501   -3.1044   20.0154 C.ar    1  UNL1        0.0711
     31 C           4.2255   -2.3695   21.3112 C.ar    1  UNL1        0.0019
     32 C           5.0232   -0.2736   17.4098 C.3     1  UNL1        0.4186
     33 F           5.2892    0.4250   16.1093 F       1  UNL1       -0.1659
     34 F           3.7197   -0.7825   16.8697 F       1  UNL1       -0.1659
     35 F           6.3269    0.2354   17.9498 F       1  UNL1       -0.1659
     36 C           3.6087   -4.5380   20.0201 C.3     1  UNL1        0.4186
     37 F           3.1674   -5.9716   20.0247 F       1  UNL1       -0.1659
     38 F           4.1009   -4.6850   21.4294 F       1  UNL1       -0.1659
     39 F           3.1166   -4.3911   18.6108 F       1  UNL1       -0.1659
@<TRIPOS>BOND
     1    25    24    1
     2    25    23    1
     3     1    23    1
     4     1     2    1
     5     2     3    1
     6     3     4   am
     7     4     5    2
     8     4     6    1
     9     6     7    1
    10     7     8    1
    11     8     9    1
    12     8    10    1
    13     8    11    1
    14    12    11    1
    15    12    13    1
    16    13    14    1
    17    14    16    1
    18    16    17   ar
    19    17    18   ar
    20    18    19   ar
    21    19    20    1
    22    19    21   ar
    23    21    22   ar
    24    25    26    1
    25    26    27   ar
    26    27    28   ar
    27    28    32    1
    28    32    33    1
    29    32    34    1
    30    32    35    1
    31    28    29   ar
    32    29    30   ar
    33    30    36    1
    34    36    37    1
    35    36    38    1
    36    36    39    1
    37    30    31   ar
    38    14     1    1
    39    22    16   ar
    40    31    26   ar
    41    13     3    1
    42    12     6    1
    43    10    15    1
@<TRIPOS>MOLECULE
*****
 39 43 0 0 0
SMALL
GASTEIGER

@<TRIPOS>ATOM
      1 C           1.8586    1.9299   21.4329 C.3     1  UNL1        0.1408
      2 C           0.6026    2.7035   21.7042 C.3     1  UNL1        0.1231
      3 N           0.2149    2.4713   23.1345 N.am    1  UNL1       -0.2783
      4 C          -0.8010    2.8059   24.1862 C.2     1  UNL1        0.2253
      5 O          -1.9958    3.6949   24.0067 O.2     1  UNL1       -0.2749
      6 C          -0.4124    2.0954   25.4488 C.3     1  UNL1        0.0807
      7 C          -0.8001    1.8631   26.8791 C.3     1  UNL1        0.0360
      8 C           0.2163    0.9459   27.4918 C.3     1  UNL1        0.0889
      9 C          -0.6237    1.0952   28.7254 C.3     1  UNL1        0.0293
     10 O           1.0572    0.0598   28.3623 O.3     1  UNL1       -0.3867
     11 C           1.2323    0.6112   26.4401 C.3     1  UNL1        0.0291
     12 C           0.8437    1.3217   25.1775 C.3     1  UNL1        0.0296
     13 C           1.2314    1.5540   23.7472 C.3     1  UNL1        0.0823
     14 C           2.2472    1.2194   22.6956 C.3     1  UNL1        0.0694
     15 H           0.6695    0.0172   29.2505 H       1  UNL1        0.2102
     16 C           3.4420    0.3303   22.8750 C.ar    1  UNL1       -0.0183
     17 C           4.8247    0.9040   22.7803 C.ar    1  UNL1       -0.0018
     18 C           6.0195    0.0149   22.9597 C.ar    1  UNL1        0.0293
     19 C           5.8315   -1.4478   23.2339 C.ar    1  UNL1        0.1401
     20 F           7.0263   -2.3368   23.4134 F       1  UNL1       -0.2042
     21 C           4.4488   -2.0214   23.3287 C.ar    1  UNL1        0.0293
     22 C           3.2540   -1.1324   23.1492 C.ar    1  UNL1       -0.0018
     23 O           2.5966    1.8760   20.1281 O.3     1  UNL1       -0.3522
     24 C           1.4003    0.5282   18.2566 C.3     1  UNL1        0.0370
     25 C           2.5043    0.6531   19.2643 C.3     1  UNL1        0.1375
     26 C           3.5161   -0.4449   19.4083 C.ar    1  UNL1        0.0044
     27 C           4.9811   -0.1249   19.3672 C.ar    1  UNL1        0.0019
     28 C           5.9929   -1.2229   19.5112 C.ar    1  UNL1        0.0711
     29 C           5.5397   -2.6408   19.6961 C.ar    1  UNL1        0.0077
     30 C           4.0748   -2.9608   19.7372 C.ar    1  UNL1        0.0711
     31 C           3.0630   -1.8628   19.5932 C.ar    1  UNL1        0.0019
     32 C           7.4577   -0.9031   19.4702 C.3     1  UNL1        0.4186
     33 F           8.9227   -0.5832   19.4292 F       1  UNL1       -0.1659
     34 F           7.1655    0.3331   18.6723 F       1  UNL1       -0.1659
     35 F           7.7500   -2.1393   20.2680 F       1  UNL1       -0.1659
     36 C           3.6216   -4.3787   19.9221 C.3     1  UNL1        0.4186
     37 F           3.1685   -5.7966   20.1071 F       1  UNL1       -0.1659
     38 F           4.3536   -4.4420   21.2299 F       1  UNL1       -0.1659
     39 F           2.8897   -4.3154   18.6145 F       1  UNL1       -0.1659
@<TRIPOS>BOND
     1    25    24    1
     2    25    23    1
     3     1    23    1
     4     1     2    1
     5     2     3    1
     6     3     4   am
     7     4     5    2
     8     4     6    1
     9     6     7    1
    10     7     8    1
    11     8     9    1
    12     8    10    1
    13     8    11    1
    14    12    11    1
    15    12    13    1
    16    13    14    1
    17    14    16    1
    18    16    17   ar
    19    17    18   ar
    20    18    19   ar
    21    19    20    1
    22    19    21   ar
    23    21    22   ar
    24    25    26    1
    25    26    27   ar
    26    27    28   ar
    27    28    32    1
    28    32    33    1
    29    32    34    1
    30    32    35    1
    31    28    29   ar
    32    29    30   ar
    33    30    36    1
    34    36    37    1
    35    36    38    1
    36    36    39    1
    37    30    31   ar
    38    14     1    1
    39    22    16   ar
    40    31    26   ar
    41    13     3    1
    42    12     6    1
    43    10    15    1
@<TRIPOS>MOLECULE
*****
 39 43 0 0 0
SMALL
GASTEIGER

@<TRIPOS>ATOM
      1 C           2.7207    0.1824   24.5342 C.3     1  UNL1        0.1408
      2 C           2.4970    0.3578   26.0069 C.3     1  UNL1        0.1231
      3 N           1.2437    1.1607   26.1930 N.am    1  UNL1       -0.2783
      4 C           0.3308    1.7654   27.2183 C.2     1  UNL1        0.2253
      5 O           0.5028    1.6890   28.7064 O.2     1  UNL1       -0.2749
      6 C          -0.7842    2.4599   26.4941 C.3     1  UNL1        0.0807
      7 C          -2.0375    3.2628   26.6802 C.3     1  UNL1        0.0360
      8 C          -2.5883    3.5836   25.3224 C.3     1  UNL1        0.0889
      9 C          -3.6632    4.2860   26.0976 C.3     1  UNL1        0.0293
     10 O          -3.3639    4.0512   24.1266 O.3     1  UNL1       -0.3867
     11 C          -1.6755    2.9789   24.2971 C.3     1  UNL1        0.0291
     12 C          -0.5605    2.2844   25.0213 C.3     1  UNL1        0.0296
     13 C           0.6928    1.4815   24.8352 C.3     1  UNL1        0.0823
     14 C           1.6057    0.8768   23.8100 C.3     1  UNL1        0.0694
     15 H          -4.1403    4.5527   24.4208 H       1  UNL1        0.2102
     16 C           1.4337    0.9532   22.3218 C.ar    1  UNL1       -0.0183
     17 C           1.7523    2.2257   21.5943 C.ar    1  UNL1       -0.0018
     18 C           1.5804    2.3020   20.1062 C.ar    1  UNL1        0.0293
     19 C           1.0897    1.1059   19.3455 C.ar    1  UNL1        0.1401
     20 F           0.9177    1.1823   17.8573 F       1  UNL1       -0.2042
     21 C           0.7711   -0.1665   20.0730 C.ar    1  UNL1        0.0293
     22 C           0.9430   -0.2429   21.5612 C.ar    1  UNL1       -0.0018
     23 O           3.8594   -0.5576   23.8973 O.3     1  UNL1       -0.3522
     24 C           5.2363    1.3014   22.7148 C.3     1  UNL1        0.0370
     25 C           4.5117   -0.0109   22.6621 C.3     1  UNL1        0.1375
     26 C           4.4393   -0.7764   21.3742 C.ar    1  UNL1        0.0044
     27 C           4.0377   -2.2217   21.3823 C.ar    1  UNL1        0.0019
     28 C           3.9654   -2.9873   20.0945 C.ar    1  UNL1        0.0711
     29 C           4.2947   -2.3077   18.7984 C.ar    1  UNL1        0.0077
     30 C           4.6963   -0.8624   18.7903 C.ar    1  UNL1        0.0711
     31 C           4.7686   -0.0968   20.0782 C.ar    1  UNL1        0.0019
     32 C           3.5637   -4.4324   20.1025 C.3     1  UNL1        0.4186
     33 F           3.1621   -5.8776   20.1107 F       1  UNL1       -0.1659
     34 F           3.1143   -4.3156   18.6762 F       1  UNL1       -0.1659
     35 F           4.0132   -4.5493   21.5289 F       1  UNL1       -0.1659
     36 C           5.0256   -0.1827   17.4943 C.3     1  UNL1        0.4186
     37 F           5.3549    0.4969   16.1982 F       1  UNL1       -0.1659
     38 F           3.5645   -0.1053   17.1636 F       1  UNL1       -0.1659
     39 F           6.4866   -0.2601   17.8249 F       1  UNL1       -0.1659
@<TRIPOS>BOND
     1    25    24    1
     2    25    23    1
     3     1    23    1
     4     1     2    1
     5     2     3    1
     6     3     4   am
     7     4     5    2
     8     4     6    1
     9     6     7    1
    10     7     8    1
    11     8     9    1
    12     8    10    1
    13     8    11    1
    14    12    11    1
    15    12    13    1
    16    13    14    1
    17    14    16    1
    18    16    17   ar
    19    17    18   ar
    20    18    19   ar
    21    19    20    1
    22    19    21   ar
    23    21    22   ar
    24    25    26    1
    25    26    27   ar
    26    27    28   ar
    27    28    32    1
    28    32    33    1
    29    32    34    1
    30    32    35    1
    31    28    29   ar
    32    29    30   ar
    33    30    36    1
    34    36    37    1
    35    36    38    1
    36    36    39    1
    37    30    31   ar
    38    14     1    1
    39    22    16   ar
    40    31    26   ar
    41    13     3    1
    42    12     6    1
    43    10    15    1
@<TRIPOS>MOLECULE
*****
 39 43 0 0 0
SMALL
GASTEIGER

@<TRIPOS>ATOM
      1 C         -15.7313   -3.6667   19.7410 C.3     1  UNL1        0.1408
      2 C         -17.1273   -4.0863   20.0945 C.3     1  UNL1        0.1231
      3 N         -17.2537   -5.5553   19.8189 N.am    1  UNL1       -0.2783
      4 C         -18.1945   -6.7226   19.8670 C.2     1  UNL1        0.2253
      5 O         -19.6214   -6.6864   20.3283 O.2     1  UNL1       -0.2749
      6 C         -17.4581   -7.9323   19.3729 C.3     1  UNL1        0.0807
      7 C         -17.5845   -9.4013   19.0973 C.3     1  UNL1        0.0360
      8 C         -16.2665   -9.8897   18.5734 C.3     1  UNL1        0.0889
      9 C         -16.9622  -11.2169   18.5092 C.3     1  UNL1        0.0293
     10 O         -15.0940  -10.6555   18.0361 O.3     1  UNL1       -0.3867
     11 C         -15.3256   -8.7224   18.5253 C.3     1  UNL1        0.0291
     12 C         -16.0620   -7.5127   19.0194 C.3     1  UNL1        0.0296
     13 C         -15.9356   -6.0437   19.2950 C.3     1  UNL1        0.0823
     14 C         -14.9948   -4.8765   19.2469 C.3     1  UNL1        0.0694
     15 H         -15.3429  -11.5852   17.9154 H       1  UNL1        0.2102
     16 C         -13.5679   -4.9126   18.7856 C.ar    1  UNL1       -0.0183
     17 C         -12.4881   -4.3180   19.6402 C.ar    1  UNL1       -0.0018
     18 C         -11.0613   -4.3541   19.1788 C.ar    1  UNL1        0.0293
     19 C         -10.7143   -4.9850   17.8629 C.ar    1  UNL1        0.1401
     20 F          -9.2873   -5.0211   17.4016 F       1  UNL1       -0.2042
     21 C         -11.7941   -5.5796   17.0083 C.ar    1  UNL1        0.0293
     22 C         -13.2209   -5.5434   17.4696 C.ar    1  UNL1       -0.0018
     23 O         -15.1701   -2.2808   19.8606 O.3     1  UNL1       -0.3522
     24 C         -16.9027   -0.9567   18.4480 C.3     1  UNL1        0.0370
     25 C         -15.4780   -1.2540   18.8113 C.3     1  UNL1        0.1375
     26 C         -14.3613   -0.5244   18.1254 C.ar    1  UNL1        0.0044
     27 C         -13.1117   -1.2587   17.7385 C.ar    1  UNL1        0.0019
     28 C         -11.9950   -0.5291   17.0526 C.ar    1  UNL1        0.0711
     29 C         -12.1277    0.9348   16.7535 C.ar    1  UNL1        0.0077
     30 C         -13.3772    1.6691   17.1403 C.ar    1  UNL1        0.0711
     31 C         -14.4940    0.9395   17.8263 C.ar    1  UNL1        0.0019
     32 C         -10.7455   -1.2633   16.6657 C.3     1  UNL1        0.4186
     33 F          -9.4960   -1.9975   16.2789 F       1  UNL1       -0.1659
     34 F         -11.5754   -2.3714   16.0883 F       1  UNL1       -0.1659
     35 F          -9.9156   -0.1552   17.2432 F       1  UNL1       -0.1659
     36 C         -13.5099    3.1330   16.8412 C.3     1  UNL1        0.4186
     37 F         -13.6426    4.5969   16.5421 F       1  UNL1       -0.1659
     38 F         -14.7421    3.1956   17.6943 F       1  UNL1       -0.1659
     39 F         -12.2778    3.0704   15.9882 F       1  UNL1       -0.1659
@<TRIPOS>BOND
     1    25    24    1
     2    25    23    1
     3     1    23    1
     4     1     2    1
     5     2     3    1
     6     3     4   am
     7     4     5    2
     8     4     6    1
     9     6     7    1
    10     7     8    1
    11     8     9    1
    12     8    10    1
    13     8    11    1
    14    12    11    1
    15    12    13    1
    16    13    14    1
    17    14    16    1
    18    16    17   ar
    19    17    18   ar
    20    18    19   ar
    21    19    20    1
    22    19    21   ar
    23    21    22   ar
    24    25    26    1
    25    26    27   ar
    26    27    28   ar
    27    28    32    1
    28    32    33    1
    29    32    34    1
    30    32    35    1
    31    28    29   ar
    32    29    30   ar
    33    30    36    1
    34    36    37    1
    35    36    38    1
    36    36    39    1
    37    30    31   ar
    38    14     1    1
    39    22    16   ar
    40    31    26   ar
    41    13     3    1
    42    12     6    1
    43    10    15    1
