@<TRIPOS>MOLECULE
*****
 28 30 0 0 0
SMALL
GASTEIGER

@<TRIPOS>ATOM
      1 O          -5.0812  -14.7957   25.5005 O.2     1  UNL1       -0.2684
      2 C          -5.6155  -15.8039   24.5267 C.2     1  UNL1        0.2648
      3 N          -4.6725  -16.7107   23.7929 N.am    1  UNL1       -0.1797
      4 C          -5.2068  -17.7189   22.8191 C.2     1  UNL1        0.0557
      5 C          -4.2638  -18.6257   22.0853 C.3     1  UNL1        0.0691
      6 C          -4.7981  -19.6338   21.1116 C.2     1  UNL1       -0.0161
      7 C          -6.2753  -19.7352   20.8717 C.2     1  UNL1        0.0676
      8 C          -7.2183  -18.8284   21.6055 C.2     1  UNL1        0.0045
      9 C          -6.6840  -17.8202   22.5792 C.2     1  UNL1        0.0115
     10 C          -7.6270  -16.9133   23.3131 C.2     1  UNL1        0.0044
     11 C          -7.0927  -15.9052   24.2868 C.2     1  UNL1        0.0358
     12 C          -9.1042  -17.0147   23.0732 C.ar    1  UNL1        0.0344
     13 C          -9.9393  -17.9342   23.9142 C.ar    1  UNL1        0.0144
     14 C         -11.4165  -18.0355   23.6743 C.ar    1  UNL1        0.0579
     15 CL        -12.2515  -18.9550   24.5153 Cl      1  UNL1       -0.0822
     16 C         -12.0586  -17.2174   22.5934 C.ar    1  UNL1        0.0145
     17 C         -11.2236  -16.2979   21.7525 C.ar    1  UNL1        0.0375
     18 C          -9.7463  -16.1966   21.9924 C.ar    1  UNL1        0.1336
     19 O          -8.9113  -15.2771   21.1513 O.3     1  UNL1       -0.5055
     20 H          -9.3124  -14.7660   20.4761 H       1  UNL1        0.2922
     21 C          -6.8096  -20.7434   19.8979 C.3     1  UNL1        0.4183
     22 F          -7.3439  -21.7515   18.9242 F       1  UNL1       -0.1659
     23 F          -5.8685  -21.7736   20.4482 F       1  UNL1       -0.1659
     24 F          -7.7507  -19.7131   19.3477 F       1  UNL1       -0.1659
     25 C          -8.0356  -14.9983   25.0207 C.3     1  UNL1        0.0627
     26 C          -8.3241  -15.2336   26.4737 C.3     1  UNL1        0.1420
     27 O          -7.3476  -14.7753   27.5160 O.3     1  UNL1       -0.3816
     28 H          -6.5232  -15.2793   27.4305 H       1  UNL1        0.2105
@<TRIPOS>BOND
     1     1     2    2
     2     2     3    1
     3     3     4    2
     4     4     5    1
     5     5     6    1
     6     6     7    2
     7     7    21    1
     8    21    22    1
     9    21    23    1
    10    21    24    1
    11     7     8    1
    12     8     9    2
    13     9    10    1
    14    10    12    1
    15    12    13   ar
    16    13    14   ar
    17    14    15    1
    18    14    16   ar
    19    16    17   ar
    20    17    18   ar
    21    18    19    1
    22    10    11    2
    23    11    25    1
    24    25    26    1
    25    26    27    1
    26    11     2    1
    27     9     4    1
    28    18    12   ar
    29    19    20    1
    30    27    28    1
@<TRIPOS>MOLECULE
*****
 28 30 0 0 0
SMALL
GASTEIGER

@<TRIPOS>ATOM
      1 O          -5.3673  -14.7081   25.6283 O.2     1  UNL1       -0.2684
      2 C          -5.8154  -15.7625   24.6599 C.2     1  UNL1        0.2648
      3 N          -4.7998  -16.5871   23.9261 N.am    1  UNL1       -0.1797
      4 C          -5.2478  -17.6414   22.9577 C.2     1  UNL1        0.0557
      5 C          -4.2322  -18.4661   22.2239 C.3     1  UNL1        0.0691
      6 C          -4.6802  -19.5203   21.2555 C.2     1  UNL1       -0.0161
      7 C          -6.1439  -19.7500   21.0211 C.2     1  UNL1        0.0676
      8 C          -7.1595  -18.9254   21.7549 C.2     1  UNL1        0.0045
      9 C          -6.7114  -17.8711   22.7232 C.2     1  UNL1        0.0115
     10 C          -7.7270  -17.0465   23.4571 C.2     1  UNL1        0.0044
     11 C          -7.2790  -15.9922   24.4254 C.2     1  UNL1        0.0358
     12 C          -9.1907  -17.2761   23.2226 C.ar    1  UNL1        0.0344
     13 C          -9.8715  -16.6371   22.0486 C.ar    1  UNL1        0.0144
     14 C         -11.3351  -16.8668   21.8141 C.ar    1  UNL1        0.0579
     15 CL        -12.0160  -16.2278   20.6401 Cl      1  UNL1       -0.0822
     16 C         -12.1180  -17.7355   22.7536 C.ar    1  UNL1        0.0145
     17 C         -11.4372  -18.3745   23.9275 C.ar    1  UNL1        0.0375
     18 C          -9.9735  -18.1448   24.1620 C.ar    1  UNL1        0.1336
     19 O          -9.2927  -18.7838   25.3360 O.3     1  UNL1       -0.5055
     20 H          -9.7817  -19.3265   25.9228 H       1  UNL1        0.2922
     21 C          -6.5919  -20.8044   20.0527 C.3     1  UNL1        0.4183
     22 F          -7.0399  -21.8587   19.0843 F       1  UNL1       -0.1659
     23 F          -5.3420  -21.5871   20.3265 F       1  UNL1       -0.1659
     24 F          -7.8418  -20.0217   19.7789 F       1  UNL1       -0.1659
     25 C          -8.2946  -15.1675   25.1593 C.3     1  UNL1        0.0627
     26 C          -8.4964  -15.3629   26.6327 C.3     1  UNL1        0.1420
     27 O          -8.4743  -16.7447   27.2159 O.3     1  UNL1       -0.3816
     28 H          -9.2314  -17.2496   26.8800 H       1  UNL1        0.2105
@<TRIPOS>BOND
     1     1     2    2
     2     2     3    1
     3     3     4    2
     4     4     5    1
     5     5     6    1
     6     6     7    2
     7     7    21    1
     8    21    22    1
     9    21    23    1
    10    21    24    1
    11     7     8    1
    12     8     9    2
    13     9    10    1
    14    10    12    1
    15    12    13   ar
    16    13    14   ar
    17    14    15    1
    18    14    16   ar
    19    16    17   ar
    20    17    18   ar
    21    18    19    1
    22    10    11    2
    23    11    25    1
    24    25    26    1
    25    26    27    1
    26    11     2    1
    27     9     4    1
    28    18    12   ar
    29    19    20    1
    30    27    28    1
@<TRIPOS>MOLECULE
*****
 28 30 0 0 0
SMALL
GASTEIGER

@<TRIPOS>ATOM
      1 O         -12.1880  -17.5866   19.8385 O.2     1  UNL1       -0.2684
      2 C         -10.8102  -17.8215   20.3833 C.2     1  UNL1        0.2648
      3 N          -9.8734  -18.7557   19.6765 N.am    1  UNL1       -0.1797
      4 C          -8.4957  -18.9906   20.2214 C.2     1  UNL1        0.0557
      5 C          -7.5589  -19.9248   19.5146 C.3     1  UNL1        0.0691
      6 C          -6.1812  -20.1597   20.0594 C.2     1  UNL1       -0.0161
      7 C          -5.7404  -19.4603   21.3110 C.2     1  UNL1        0.0676
      8 C          -6.6772  -18.5261   22.0178 C.2     1  UNL1        0.0045
      9 C          -8.0548  -18.2912   21.4730 C.2     1  UNL1        0.0115
     10 C          -8.9917  -17.3570   22.1798 C.2     1  UNL1        0.0044
     11 C         -10.3694  -17.1221   21.6349 C.2     1  UNL1        0.0358
     12 C          -8.5509  -16.6576   23.4314 C.ar    1  UNL1        0.0344
     13 C          -8.9163  -17.2199   24.7731 C.ar    1  UNL1        0.0144
     14 C          -8.4755  -16.5206   26.0248 C.ar    1  UNL1        0.0579
     15 CL         -8.8408  -17.0828   27.3665 Cl      1  UNL1       -0.0822
     16 C          -7.6692  -15.2588   25.9346 C.ar    1  UNL1        0.0145
     17 C          -7.3038  -14.6966   24.5928 C.ar    1  UNL1        0.0375
     18 C          -7.7446  -15.3960   23.3412 C.ar    1  UNL1        0.1336
     19 O          -7.3792  -14.8336   21.9994 O.3     1  UNL1       -0.5055
     20 H          -6.8756  -14.0455   21.9432 H       1  UNL1        0.2922
     21 C          -4.3627  -19.6952   21.8558 C.3     1  UNL1        0.4183
     22 F          -2.9850  -19.9300   22.4006 F       1  UNL1       -0.1659
     23 F          -4.0442  -20.5648   20.6758 F       1  UNL1       -0.1659
     24 F          -4.6811  -18.8256   23.0358 F       1  UNL1       -0.1659
     25 C         -11.3063  -16.1879   22.3417 C.3     1  UNL1        0.0627
     26 C         -12.5558  -16.7190   22.9793 C.3     1  UNL1        0.1420
     27 O         -12.5762  -18.1072   23.5471 O.3     1  UNL1       -0.3816
     28 H         -12.4736  -18.7517   22.8294 H       1  UNL1        0.2105
@<TRIPOS>BOND
     1     1     2    2
     2     2     3    1
     3     3     4    2
     4     4     5    1
     5     5     6    1
     6     6     7    2
     7     7    21    1
     8    21    22    1
     9    21    23    1
    10    21    24    1
    11     7     8    1
    12     8     9    2
    13     9    10    1
    14    10    12    1
    15    12    13   ar
    16    13    14   ar
    17    14    15    1
    18    14    16   ar
    19    16    17   ar
    20    17    18   ar
    21    18    19    1
    22    10    11    2
    23    11    25    1
    24    25    26    1
    25    26    27    1
    26    11     2    1
    27     9     4    1
    28    18    12   ar
    29    19    20    1
    30    27    28    1
@<TRIPOS>MOLECULE
*****
 28 30 0 0 0
SMALL
GASTEIGER

@<TRIPOS>ATOM
      1 O          -4.2320  -18.9273   20.2532 O.2     1  UNL1       -0.2684
      2 C          -5.1139  -18.3303   21.3096 C.2     1  UNL1        0.2648
      3 N          -4.5078  -17.5608   22.4456 N.am    1  UNL1       -0.1797
      4 C          -5.3897  -16.9638   23.5020 C.2     1  UNL1        0.0557
      5 C          -4.7837  -16.1943   24.6380 C.3     1  UNL1        0.0691
      6 C          -5.6656  -15.5974   25.6944 C.2     1  UNL1       -0.0161
      7 C          -7.1535  -15.7699   25.6147 C.2     1  UNL1        0.0676
      8 C          -7.7595  -16.5394   24.4787 C.2     1  UNL1        0.0045
      9 C          -6.8777  -17.1364   23.4223 C.2     1  UNL1        0.0115
     10 C          -7.4837  -17.9059   22.2862 C.2     1  UNL1        0.0044
     11 C          -6.6018  -18.5028   21.2299 C.2     1  UNL1        0.0358
     12 C          -8.9716  -18.0784   22.2065 C.ar    1  UNL1        0.0344
     13 C          -9.8125  -17.0351   21.5324 C.ar    1  UNL1        0.0144
     14 C         -11.3005  -17.2076   21.4528 C.ar    1  UNL1        0.0579
     15 CL        -12.1414  -16.1644   20.7787 Cl      1  UNL1       -0.0822
     16 C         -11.9474  -18.4235   22.0472 C.ar    1  UNL1        0.0145
     17 C         -11.1064  -19.4667   22.7212 C.ar    1  UNL1        0.0375
     18 C          -9.6185  -19.2942   22.8009 C.ar    1  UNL1        0.1336
     19 O          -8.7776  -20.3375   23.4750 O.3     1  UNL1       -0.5055
     20 H          -9.1817  -21.0970   23.8463 H       1  UNL1        0.2922
     21 C          -8.0354  -15.1729   26.6711 C.3     1  UNL1        0.4183
     22 F          -8.9172  -14.5760   27.7275 F       1  UNL1       -0.1659
     23 F          -9.1831  -15.1594   25.7054 F       1  UNL1       -0.1659
     24 F          -6.8877  -15.1865   27.6368 F       1  UNL1       -0.1659
     25 C          -7.2078  -19.2724   20.0938 C.3     1  UNL1        0.0627
     26 C          -7.1352  -20.7705   20.0795 C.3     1  UNL1        0.1420
     27 O          -5.8035  -21.4575   20.1477 O.3     1  UNL1       -0.3816
     28 H          -5.2977  -21.2627   19.3433 H       1  UNL1        0.2105
@<TRIPOS>BOND
     1     1     2    2
     2     2     3    1
     3     3     4    2
     4     4     5    1
     5     5     6    1
     6     6     7    2
     7     7    21    1
     8    21    22    1
     9    21    23    1
    10    21    24    1
    11     7     8    1
    12     8     9    2
    13     9    10    1
    14    10    12    1
    15    12    13   ar
    16    13    14   ar
    17    14    15    1
    18    14    16   ar
    19    16    17   ar
    20    17    18   ar
    21    18    19    1
    22    10    11    2
    23    11    25    1
    24    25    26    1
    25    26    27    1
    26    11     2    1
    27     9     4    1
    28    18    12   ar
    29    19    20    1
    30    27    28    1
@<TRIPOS>MOLECULE
*****
 28 30 0 0 0
SMALL
GASTEIGER

@<TRIPOS>ATOM
      1 O          -6.9580  -15.0474   25.8932 O.2     1  UNL1       -0.2684
      2 C          -6.7107  -16.0327   24.7895 C.2     1  UNL1        0.2648
      3 N          -5.3058  -16.3877   24.4020 N.am    1  UNL1       -0.1797
      4 C          -5.0585  -17.3731   23.2983 C.2     1  UNL1        0.0557
      5 C          -3.6536  -17.7281   22.9108 C.3     1  UNL1        0.0691
      6 C          -3.4064  -18.7134   21.8071 C.2     1  UNL1       -0.0161
      7 C          -4.5640  -19.3436   21.0910 C.2     1  UNL1        0.0676
      8 C          -5.9688  -18.9885   21.4785 C.2     1  UNL1        0.0045
      9 C          -6.2161  -18.0033   22.5822 C.2     1  UNL1        0.0115
     10 C          -7.6210  -17.6482   22.9698 C.2     1  UNL1        0.0044
     11 C          -7.8683  -16.6629   24.0734 C.2     1  UNL1        0.0358
     12 C          -8.7786  -18.2784   22.2537 C.ar    1  UNL1        0.0344
     13 C          -9.4722  -17.5357   21.1502 C.ar    1  UNL1        0.0144
     14 C         -10.6298  -18.1659   20.4341 C.ar    1  UNL1        0.0579
     15 CL        -11.3234  -17.4233   19.3308 Cl      1  UNL1       -0.0822
     16 C         -11.0938  -19.5388   20.8215 C.ar    1  UNL1        0.0145
     17 C         -10.4003  -20.2814   21.9248 C.ar    1  UNL1        0.0375
     18 C          -9.2427  -19.6512   22.6409 C.ar    1  UNL1        0.1336
     19 O          -8.5491  -20.3939   23.7443 O.3     1  UNL1       -0.5055
     20 H          -8.8390  -21.2514   23.9863 H       1  UNL1        0.2922
     21 C          -4.3166  -20.3289   19.9873 C.3     1  UNL1        0.4183
     22 F          -4.0693  -21.3142   18.8837 F       1  UNL1       -0.1659
     23 F          -3.1340  -19.5250   19.5346 F       1  UNL1       -0.1659
     24 F          -5.4993  -21.1328   20.4400 F       1  UNL1       -0.1659
     25 C          -9.2732  -16.3078   24.4610 C.3     1  UNL1        0.0627
     26 C         -10.1727  -17.3494   25.0577 C.3     1  UNL1        0.1420
     27 O          -9.5955  -18.4368   25.9146 O.3     1  UNL1       -0.3816
     28 H          -9.0246  -19.0054   25.3745 H       1  UNL1        0.2105
@<TRIPOS>BOND
     1     1     2    2
     2     2     3    1
     3     3     4    2
     4     4     5    1
     5     5     6    1
     6     6     7    2
     7     7    21    1
     8    21    22    1
     9    21    23    1
    10    21    24    1
    11     7     8    1
    12     8     9    2
    13     9    10    1
    14    10    12    1
    15    12    13   ar
    16    13    14   ar
    17    14    15    1
    18    14    16   ar
    19    16    17   ar
    20    17    18   ar
    21    18    19    1
    22    10    11    2
    23    11    25    1
    24    25    26    1
    25    26    27    1
    26    11     2    1
    27     9     4    1
    28    18    12   ar
    29    19    20    1
    30    27    28    1
@<TRIPOS>MOLECULE
*****
 28 30 0 0 0
SMALL
GASTEIGER

@<TRIPOS>ATOM
      1 O         -10.2174   -6.1595   17.2629 O.2     1  UNL1       -0.2684
      2 C         -11.6386   -6.1639   17.7428 C.2     1  UNL1        0.2648
      3 N         -12.3413   -7.4651   17.9938 N.am    1  UNL1       -0.1797
      4 C         -13.7625   -7.4696   18.4738 C.2     1  UNL1        0.0557
      5 C         -14.4653   -8.7707   18.7248 C.3     1  UNL1        0.0691
      6 C         -15.8864   -8.7751   19.2047 C.2     1  UNL1       -0.0161
      7 C         -16.6048   -7.4784   19.4336 C.2     1  UNL1        0.0676
      8 C         -15.9020   -6.1772   19.1826 C.2     1  UNL1        0.0045
      9 C         -14.4809   -6.1728   18.7027 C.2     1  UNL1        0.0115
     10 C         -13.7780   -4.8716   18.4517 C.2     1  UNL1        0.0044
     11 C         -12.3569   -4.8672   17.9717 C.2     1  UNL1        0.0358
     12 C         -14.4964   -3.5748   18.6806 C.ar    1  UNL1        0.0344
     13 C         -15.2502   -2.9266   17.5573 C.ar    1  UNL1        0.0144
     14 C         -15.9686   -1.6298   17.7863 C.ar    1  UNL1        0.0579
     15 CL        -16.7224   -0.9816   16.6631 Cl      1  UNL1       -0.0822
     16 C         -15.9331   -0.9813   19.1384 C.ar    1  UNL1        0.0145
     17 C         -15.1793   -1.6296   20.2615 C.ar    1  UNL1        0.0375
     18 C         -14.4609   -2.9263   20.0326 C.ar    1  UNL1        0.1336
     19 O         -13.7071   -3.5745   21.1559 O.3     1  UNL1       -0.5055
     20 H         -13.6849   -3.1694   22.0005 H       1  UNL1        0.2922
     21 C         -18.0259   -7.4828   19.9135 C.3     1  UNL1        0.4183
     22 F         -19.4471   -7.4872   20.3934 F       1  UNL1       -0.1659
     23 F         -17.9312   -8.9558   20.1805 F       1  UNL1       -0.1659
     24 F         -18.1207   -6.0099   19.6465 F       1  UNL1       -0.1659
     25 C         -11.6541   -3.5660   17.7207 C.3     1  UNL1        0.0627
     26 C         -10.7375   -2.9955   18.7621 C.3     1  UNL1        0.1420
     27 O          -9.5829   -3.8068   19.2705 O.3     1  UNL1       -0.3816
     28 H          -9.9177   -4.5782   19.7539 H       1  UNL1        0.2105
@<TRIPOS>BOND
     1     1     2    2
     2     2     3    1
     3     3     4    2
     4     4     5    1
     5     5     6    1
     6     6     7    2
     7     7    21    1
     8    21    22    1
     9    21    23    1
    10    21    24    1
    11     7     8    1
    12     8     9    2
    13     9    10    1
    14    10    12    1
    15    12    13   ar
    16    13    14   ar
    17    14    15    1
    18    14    16   ar
    19    16    17   ar
    20    17    18   ar
    21    18    19    1
    22    10    11    2
    23    11    25    1
    24    25    26    1
    25    26    27    1
    26    11     2    1
    27     9     4    1
    28    18    12   ar
    29    19    20    1
    30    27    28    1
@<TRIPOS>MOLECULE
*****
 28 30 0 0 0
SMALL
GASTEIGER

@<TRIPOS>ATOM
      1 O         -12.7417  -17.9798   21.1931 O.2     1  UNL1       -0.2684
      2 C         -11.4191  -17.6961   21.8412 C.2     1  UNL1        0.2648
      3 N         -11.3053  -16.6097   22.8692 N.am    1  UNL1       -0.1797
      4 C          -9.9826  -16.3259   23.5173 C.2     1  UNL1        0.0557
      5 C          -9.8689  -15.2395   24.5453 C.3     1  UNL1        0.0691
      6 C          -8.5462  -14.9557   25.1934 C.2     1  UNL1       -0.0161
      7 C          -7.3373  -15.7584   24.8135 C.2     1  UNL1        0.0676
      8 C          -7.4511  -16.8448   23.7856 C.2     1  UNL1        0.0045
      9 C          -8.7737  -17.1286   23.1375 C.2     1  UNL1        0.0115
     10 C          -8.8875  -18.2150   22.1095 C.2     1  UNL1        0.0044
     11 C         -10.2102  -18.4987   21.4614 C.2     1  UNL1        0.0358
     12 C          -7.6786  -19.0177   21.7296 C.ar    1  UNL1        0.0344
     13 C          -6.7359  -18.5037   20.6822 C.ar    1  UNL1        0.0144
     14 C          -5.5270  -19.3064   20.3023 C.ar    1  UNL1        0.0579
     15 CL         -4.5842  -18.7924   19.2550 Cl      1  UNL1       -0.0822
     16 C          -5.2609  -20.6231   20.9699 C.ar    1  UNL1        0.0145
     17 C          -6.2036  -21.1370   22.0173 C.ar    1  UNL1        0.0375
     18 C          -7.4125  -20.3343   22.3971 C.ar    1  UNL1        0.1336
     19 O          -8.3553  -20.8483   23.4446 O.3     1  UNL1       -0.5055
     20 H          -8.1890  -21.6708   23.8615 H       1  UNL1        0.2922
     21 C          -6.0146  -15.4746   25.4617 C.3     1  UNL1        0.4183
     22 F          -4.6920  -15.1909   26.1099 F       1  UNL1       -0.1659
     23 F          -5.3813  -15.3366   24.1090 F       1  UNL1       -0.1659
     24 F          -6.6479  -15.6127   26.8144 F       1  UNL1       -0.1659
     25 C         -10.3240  -19.5852   20.4334 C.3     1  UNL1        0.0627
     26 C          -9.8545  -19.3417   19.0297 C.3     1  UNL1        0.1420
     27 O          -8.8264  -20.2449   18.4155 O.3     1  UNL1       -0.3816
     28 H          -7.9850  -20.1452   18.8877 H       1  UNL1        0.2105
@<TRIPOS>BOND
     1     1     2    2
     2     2     3    1
     3     3     4    2
     4     4     5    1
     5     5     6    1
     6     6     7    2
     7     7    21    1
     8    21    22    1
     9    21    23    1
    10    21    24    1
    11     7     8    1
    12     8     9    2
    13     9    10    1
    14    10    12    1
    15    12    13   ar
    16    13    14   ar
    17    14    15    1
    18    14    16   ar
    19    16    17   ar
    20    17    18   ar
    21    18    19    1
    22    10    11    2
    23    11    25    1
    24    25    26    1
    25    26    27    1
    26    11     2    1
    27     9     4    1
    28    18    12   ar
    29    19    20    1
    30    27    28    1
@<TRIPOS>MOLECULE
*****
 28 30 0 0 0
SMALL
GASTEIGER

@<TRIPOS>ATOM
      1 O          -5.0905  -15.5356   25.4980 O.2     1  UNL1       -0.2684
      2 C          -5.9039  -16.2046   24.4298 C.2     1  UNL1        0.2648
      3 N          -7.3609  -15.8798   24.2826 N.am    1  UNL1       -0.1797
      4 C          -8.1742  -16.5488   23.2144 C.2     1  UNL1        0.0557
      5 C          -9.6312  -16.2240   23.0672 C.3     1  UNL1        0.0691
      6 C         -10.4445  -16.8930   21.9990 C.2     1  UNL1       -0.0161
      7 C          -9.8008  -17.8868   21.0782 C.2     1  UNL1        0.0676
      8 C          -8.3439  -18.2116   21.2254 C.2     1  UNL1        0.0045
      9 C          -7.5306  -17.5426   22.2935 C.2     1  UNL1        0.0115
     10 C          -6.0735  -17.8674   22.4408 C.2     1  UNL1        0.0044
     11 C          -5.2602  -17.1984   23.5090 C.2     1  UNL1        0.0358
     12 C          -5.4299  -18.8613   21.5200 C.ar    1  UNL1        0.0344
     13 C          -4.3691  -18.4148   20.5579 C.ar    1  UNL1        0.0144
     14 C          -3.7255  -19.4086   19.6370 C.ar    1  UNL1        0.0579
     15 CL         -2.6648  -18.9622   18.6749 Cl      1  UNL1       -0.0822
     16 C          -4.1425  -20.8489   19.6782 C.ar    1  UNL1        0.0145
     17 C          -5.2032  -21.2953   20.6403 C.ar    1  UNL1        0.0375
     18 C          -5.8469  -20.3015   21.5612 C.ar    1  UNL1        0.1336
     19 O          -6.9076  -20.7480   22.5233 O.3     1  UNL1       -0.5055
     20 H          -7.1681  -21.6477   22.5490 H       1  UNL1        0.2922
     21 C         -10.6142  -18.5558   20.0100 C.3     1  UNL1        0.4183
     22 F         -11.4275  -19.2248   18.9419 F       1  UNL1       -0.1659
     23 F         -11.8099  -17.7444   20.4121 F       1  UNL1       -0.1659
     24 F          -9.4185  -19.3673   19.6078 F       1  UNL1       -0.1659
     25 C          -3.8032  -17.5232   23.6563 C.3     1  UNL1        0.0627
     26 C          -2.7802  -16.7512   22.8770 C.3     1  UNL1        0.1420
     27 O          -3.1875  -15.5276   22.1110 O.3     1  UNL1       -0.3816
     28 H          -3.7837  -15.7815   21.3892 H       1  UNL1        0.2105
@<TRIPOS>BOND
     1     1     2    2
     2     2     3    1
     3     3     4    2
     4     4     5    1
     5     5     6    1
     6     6     7    2
     7     7    21    1
     8    21    22    1
     9    21    23    1
    10    21    24    1
    11     7     8    1
    12     8     9    2
    13     9    10    1
    14    10    12    1
    15    12    13   ar
    16    13    14   ar
    17    14    15    1
    18    14    16   ar
    19    16    17   ar
    20    17    18   ar
    21    18    19    1
    22    10    11    2
    23    11    25    1
    24    25    26    1
    25    26    27    1
    26    11     2    1
    27     9     4    1
    28    18    12   ar
    29    19    20    1
    30    27    28    1
