@<TRIPOS>MOLECULE
*****
 48 52 0 0 0
SMALL
GASTEIGER

@<TRIPOS>ATOM
      1 N           5.8678   -2.6668   19.8848 N.am    1  UNL1       -0.2724
      2 C           5.9492   -3.5025   21.1278 C.2     1  UNL1        0.2491
      3 O           4.8095   -4.4031   21.5020 O.2     1  UNL1       -0.2727
      4 C           7.0075   -1.7663   19.5105 C.3     1  UNL1        0.1111
      5 C           6.9816   -0.3197   19.9065 C.3     1  UNL1        0.0939
      6 N           6.9038    0.7451   18.8528 N.3     1  UNL1       -0.2712
      7 C           6.5154    1.1247   16.3122 C.3     1  UNL1        0.0188
      8 C           7.2247    0.4128   17.4257 C.3     1  UNL1        0.0722
      9 C           6.5050    2.1420   19.2262 C.3     1  UNL1        0.0722
     10 C           7.1307    2.8079   20.4158 C.3     1  UNL1        0.0188
     11 C           4.6467   -2.7318   19.0160 C.3     1  UNL1        0.1202
     12 C           3.6208   -1.6394   19.0814 C.ar    1  UNL1       -0.0023
     13 C           2.5473   -1.6805   20.1282 C.ar    1  UNL1       -0.0026
     14 C           1.5213   -0.5882   20.1937 C.ar    1  UNL1       -0.0003
     15 C           1.5689    0.5452   19.2123 C.ar    1  UNL1       -0.0000
     16 C           2.6425    0.5864   18.1655 C.ar    1  UNL1       -0.0003
     17 C           3.6684   -0.5060   18.1000 C.ar    1  UNL1       -0.0026
     18 C           0.5430    1.6376   19.2778 C.ar    1  UNL1       -0.0000
     19 C          -0.3665    1.7421   20.4659 C.ar    1  UNL1       -0.0001
     20 C          -1.3924    2.8344   20.5314 C.ar    1  UNL1        0.0039
     21 C          -1.5088    3.8222   19.4087 C.ar    1  UNL1        0.0714
     22 C          -0.5993    3.7178   18.2204 C.ar    1  UNL1        0.0039
     23 C           0.4266    2.6254   18.1549 C.ar    1  UNL1       -0.0001
     24 C          -2.5348    4.9146   19.4741 C.3     1  UNL1        0.4186
     25 F          -3.5607    6.0069   19.5396 F       1  UNL1       -0.1659
     26 F          -2.2981    5.0485   20.9493 F       1  UNL1       -0.1659
     27 F          -2.7714    4.7807   17.9990 F       1  UNL1       -0.1659
     28 C           7.1703   -3.4376   21.9965 C.3     1  UNL1        0.1931
     29 N           7.0946   -3.8721   23.4302 N.ar    1  UNL1       -0.3030
     30 C           6.4117   -3.0013   24.4428 C.ar    1  UNL1        0.1747
     31 N           6.3361   -3.4358   25.8765 N.ar    1  UNL1       -0.1847
     32 C           6.9434   -4.7410   26.2976 C.ar    1  UNL1        0.2779
     33 O           6.8678   -5.1755   27.7313 O.2     1  UNL1       -0.2654
     34 C           7.6264   -5.6119   25.2851 C.ar    1  UNL1        0.0474
     35 C           7.7020   -5.1774   23.8513 C.ar    1  UNL1        0.0399
     36 C           8.3849   -6.0482   22.8388 C.3     1  UNL1        0.0437
     37 C           8.9922   -7.3535   23.2599 C.3     1  UNL1        0.0066
     38 C           8.9165   -7.7880   24.6936 C.3     1  UNL1        0.0053
     39 C           8.2336   -6.9172   25.7062 C.3     1  UNL1        0.0324
     40 S           5.8044   -1.6959   24.0217 S.3     1  UNL1       -0.0724
     41 C           4.3226   -1.5903   23.8145 C.3     1  UNL1        0.0913
     42 C           3.7207   -0.2978   23.3487 C.ar    1  UNL1       -0.0108
     43 C           4.4486    0.5513   22.3490 C.ar    1  UNL1       -0.0011
     44 C           3.8467    1.8438   21.8831 C.ar    1  UNL1        0.0293
     45 C           2.5169    2.2873   22.4169 C.ar    1  UNL1        0.1401
     46 F           1.9149    3.5798   21.9510 F       1  UNL1       -0.2042
     47 C           1.7889    1.4383   23.4165 C.ar    1  UNL1        0.0293
     48 C           2.3908    0.1457   23.8824 C.ar    1  UNL1       -0.0011
@<TRIPOS>BOND
     1     7     8    1
     2     8     6    1
     3     6     9    1
     4     9    10    1
     5     6     5    1
     6     5     4    1
     7     4     1    1
     8     1    11    1
     9    11    12    1
    10    12    13   ar
    11    13    14   ar
    12    14    15   ar
    13    15    18    1
    14    18    19   ar
    15    19    20   ar
    16    20    21   ar
    17    21    24    1
    18    24    25    1
    19    24    26    1
    20    24    27    1
    21    21    22   ar
    22    22    23   ar
    23    15    16   ar
    24    16    17   ar
    25     1     2   am
    26     2     3    2
    27     2    28    1
    28    28    29    1
    29    29    30   ar
    30    30    40    1
    31    40    41    1
    32    41    42    1
    33    42    43   ar
    34    43    44   ar
    35    44    45   ar
    36    45    46    1
    37    45    47   ar
    38    47    48   ar
    39    30    31   ar
    40    31    32   ar
    41    32    33    2
    42    32    34   ar
    43    34    35   ar
    44    35    36    1
    45    36    37    1
    46    37    38    1
    47    38    39    1
    48    17    12   ar
    49    35    29   ar
    50    23    18   ar
    51    48    42   ar
    52    39    34    1
@<TRIPOS>MOLECULE
*****
 48 52 0 0 0
SMALL
GASTEIGER

@<TRIPOS>ATOM
      1 N           3.8569   -0.4764   29.8048 N.am    1  UNL1       -0.2724
      2 C           4.2356   -1.1520   28.5202 C.2     1  UNL1        0.2491
      3 O           3.1680   -1.6580   27.5958 O.2     1  UNL1       -0.2727
      4 C           4.9244    0.0296   30.7291 C.3     1  UNL1        0.1111
      5 C           4.5495    0.6185   32.0567 C.3     1  UNL1        0.0939
      6 N           4.7996   -0.1546   33.3176 N.3     1  UNL1       -0.2712
      7 C           4.4258   -2.7243   33.2347 C.3     1  UNL1        0.0188
      8 C           5.3544   -1.5464   33.2464 C.3     1  UNL1        0.0722
      9 C           4.4949    0.4641   34.6497 C.3     1  UNL1        0.0722
     10 C           4.9994   -0.1781   35.9078 C.3     1  UNL1        0.0188
     11 C           2.4107   -0.3068   30.1650 C.3     1  UNL1        0.1202
     12 C           1.4862    0.4206   29.2342 C.ar    1  UNL1       -0.0023
     13 C           1.9383    1.6840   28.5639 C.ar    1  UNL1       -0.0026
     14 C           1.0138    2.4113   27.6331 C.ar    1  UNL1       -0.0003
     15 C          -0.3626    1.8752   27.3726 C.ar    1  UNL1       -0.0000
     16 C          -0.8147    0.6117   28.0429 C.ar    1  UNL1       -0.0003
     17 C           0.1097   -0.1156   28.9737 C.ar    1  UNL1       -0.0026
     18 C          -1.2871    2.6026   26.4418 C.ar    1  UNL1       -0.0000
     19 C          -0.9198    2.7669   24.9968 C.ar    1  UNL1       -0.0001
     20 C          -1.8442    3.4942   24.0659 C.ar    1  UNL1        0.0039
     21 C          -3.1359    4.0572   24.5801 C.ar    1  UNL1        0.0714
     22 C          -3.5033    3.8930   26.0252 C.ar    1  UNL1        0.0039
     23 C          -2.5788    3.1656   26.9560 C.ar    1  UNL1       -0.0001
     24 C          -4.0604    4.7846   23.6493 C.3     1  UNL1        0.4186
     25 F          -4.9848    5.5119   22.7185 F       1  UNL1       -0.1659
     26 F          -5.1064    3.7313   23.8652 F       1  UNL1       -0.1659
     27 F          -3.0144    5.8378   23.4335 F       1  UNL1       -0.1659
     28 C           5.6817   -1.3216   28.1599 C.3     1  UNL1        0.1931
     29 N           6.1829   -2.6493   27.6740 N.ar    1  UNL1       -0.3030
     30 C           6.2796   -2.9214   26.2021 C.ar    1  UNL1        0.1747
     31 N           6.7808   -4.2491   25.7161 N.ar    1  UNL1       -0.1847
     32 C           7.1852   -5.3046   26.7021 C.ar    1  UNL1        0.2779
     33 O           7.6864   -6.6323   26.2162 O.2     1  UNL1       -0.2654
     34 C           7.0885   -5.0326   28.1741 C.ar    1  UNL1        0.0474
     35 C           6.5873   -3.7049   28.6600 C.ar    1  UNL1        0.0399
     36 C           6.4906   -3.4328   30.1319 C.3     1  UNL1        0.0437
     37 C           6.8950   -4.4883   31.1179 C.3     1  UNL1        0.0066
     38 C           7.3962   -5.8160   30.6320 C.3     1  UNL1        0.0053
     39 C           7.4929   -6.0881   29.1601 C.3     1  UNL1        0.0324
     40 S           5.8752   -1.8658   25.2160 S.3     1  UNL1       -0.0724
     41 C           4.4896   -1.8676   24.6415 C.3     1  UNL1        0.0913
     42 C           4.2779   -2.2044   23.1953 C.ar    1  UNL1       -0.0108
     43 C           4.7668   -3.5138   22.6507 C.ar    1  UNL1       -0.0011
     44 C           4.5551   -3.8506   21.2045 C.ar    1  UNL1        0.0293
     45 C           3.8543   -2.8781   20.3027 C.ar    1  UNL1        0.1401
     46 F           3.6426   -3.2150   18.8565 F       1  UNL1       -0.2042
     47 C           3.3654   -1.5688   20.8472 C.ar    1  UNL1        0.0293
     48 C           3.5771   -1.2319   22.2935 C.ar    1  UNL1       -0.0011
@<TRIPOS>BOND
     1     7     8    1
     2     8     6    1
     3     6     9    1
     4     9    10    1
     5     6     5    1
     6     5     4    1
     7     4     1    1
     8     1    11    1
     9    11    12    1
    10    12    13   ar
    11    13    14   ar
    12    14    15   ar
    13    15    18    1
    14    18    19   ar
    15    19    20   ar
    16    20    21   ar
    17    21    24    1
    18    24    25    1
    19    24    26    1
    20    24    27    1
    21    21    22   ar
    22    22    23   ar
    23    15    16   ar
    24    16    17   ar
    25     1     2   am
    26     2     3    2
    27     2    28    1
    28    28    29    1
    29    29    30   ar
    30    30    40    1
    31    40    41    1
    32    41    42    1
    33    42    43   ar
    34    43    44   ar
    35    44    45   ar
    36    45    46    1
    37    45    47   ar
    38    47    48   ar
    39    30    31   ar
    40    31    32   ar
    41    32    33    2
    42    32    34   ar
    43    34    35   ar
    44    35    36    1
    45    36    37    1
    46    37    38    1
    47    38    39    1
    48    17    12   ar
    49    35    29   ar
    50    23    18   ar
    51    48    42   ar
    52    39    34    1
@<TRIPOS>MOLECULE
*****
 48 52 0 0 0
SMALL
GASTEIGER

@<TRIPOS>ATOM
      1 N           2.7825    0.8759   29.3619 N.am    1  UNL1       -0.2724
      2 C           3.5377    0.6992   30.6458 C.2     1  UNL1        0.2491
      3 O           4.9822    1.0957   30.7269 O.2     1  UNL1       -0.2727
      4 C           1.3381    0.4794   29.2808 C.3     1  UNL1        0.1111
      5 C           0.2956    1.5068   28.9524 C.3     1  UNL1        0.0939
      6 N           0.5846    2.9632   29.1656 N.3     1  UNL1       -0.2712
      7 C           1.4922    4.3252   27.1479 C.3     1  UNL1        0.0188
      8 C           0.3586    3.9434   28.0529 C.3     1  UNL1        0.0722
      9 C           1.0996    3.4394   30.4915 C.3     1  UNL1        0.0722
     10 C           0.4352    4.5923   31.1839 C.3     1  UNL1        0.0188
     11 C           3.4716    1.4491   28.1592 C.3     1  UNL1        0.1202
     12 C           3.6096    0.6279   26.9115 C.ar    1  UNL1       -0.0023
     13 C           4.5460   -0.5435   26.8844 C.ar    1  UNL1       -0.0026
     14 C           4.6840   -1.3647   25.6368 C.ar    1  UNL1       -0.0003
     15 C           3.8855   -1.0145   24.4162 C.ar    1  UNL1       -0.0000
     16 C           2.9490    0.1570   24.4433 C.ar    1  UNL1       -0.0003
     17 C           2.8111    0.9782   25.6909 C.ar    1  UNL1       -0.0026
     18 C           4.0235   -1.8357   23.1686 C.ar    1  UNL1       -0.0000
     19 C           3.3970   -1.3667   21.8889 C.ar    1  UNL1       -0.0001
     20 C           3.5350   -2.1879   20.6413 C.ar    1  UNL1        0.0039
     21 C           4.2994   -3.4780   20.6733 C.ar    1  UNL1        0.0714
     22 C           4.9259   -3.9471   21.9530 C.ar    1  UNL1        0.0039
     23 C           4.7880   -3.1259   23.2007 C.ar    1  UNL1       -0.0001
     24 C           4.4374   -4.2992   19.4257 C.3     1  UNL1        0.4186
     25 F           4.5754   -5.1204   18.1780 F       1  UNL1       -0.1659
     26 F           5.8969   -4.4915   19.7136 F       1  UNL1       -0.1659
     27 F           2.9779   -4.1070   19.1377 F       1  UNL1       -0.1659
     28 C           2.8487    0.1260   31.8485 C.3     1  UNL1        0.1931
     29 N           3.5194    0.1707   33.1895 N.ar    1  UNL1       -0.3030
     30 C           4.4440   -0.9357   33.6028 C.ar    1  UNL1        0.1747
     31 N           5.1148   -0.8911   34.9437 N.ar    1  UNL1       -0.1847
     32 C           4.8609    0.2600   35.8713 C.ar    1  UNL1        0.2779
     33 O           5.5316    0.3047   37.2123 O.2     1  UNL1       -0.2654
     34 C           3.9363    1.3665   35.4580 C.ar    1  UNL1        0.0474
     35 C           3.2655    1.3219   34.1171 C.ar    1  UNL1        0.0399
     36 C           2.3409    2.4283   33.7038 C.3     1  UNL1        0.0437
     37 C           2.0871    3.5794   34.6314 C.3     1  UNL1        0.0066
     38 C           2.7578    3.6241   35.9723 C.3     1  UNL1        0.0053
     39 C           3.6824    2.5176   36.3856 C.3     1  UNL1        0.0324
     40 S           4.6979   -2.0869   32.6752 S.3     1  UNL1       -0.0724
     41 C           6.0923   -2.6082   32.4909 C.3     1  UNL1        0.0913
     42 C           6.4231   -3.4610   31.3022 C.ar    1  UNL1       -0.0108
     43 C           6.3309   -2.8879   29.9190 C.ar    1  UNL1       -0.0011
     44 C           6.6618   -3.7407   28.7302 C.ar    1  UNL1        0.0293
     45 C           7.0848   -5.1667   28.9245 C.ar    1  UNL1        0.1401
     46 F           7.4156   -6.0195   27.7358 F       1  UNL1       -0.2042
     47 C           7.1769   -5.7398   30.3076 C.ar    1  UNL1        0.0293
     48 C           6.8461   -4.8870   31.4965 C.ar    1  UNL1       -0.0011
@<TRIPOS>BOND
     1     7     8    1
     2     8     6    1
     3     6     9    1
     4     9    10    1
     5     6     5    1
     6     5     4    1
     7     4     1    1
     8     1    11    1
     9    11    12    1
    10    12    13   ar
    11    13    14   ar
    12    14    15   ar
    13    15    18    1
    14    18    19   ar
    15    19    20   ar
    16    20    21   ar
    17    21    24    1
    18    24    25    1
    19    24    26    1
    20    24    27    1
    21    21    22   ar
    22    22    23   ar
    23    15    16   ar
    24    16    17   ar
    25     1     2   am
    26     2     3    2
    27     2    28    1
    28    28    29    1
    29    29    30   ar
    30    30    40    1
    31    40    41    1
    32    41    42    1
    33    42    43   ar
    34    43    44   ar
    35    44    45   ar
    36    45    46    1
    37    45    47   ar
    38    47    48   ar
    39    30    31   ar
    40    31    32   ar
    41    32    33    2
    42    32    34   ar
    43    34    35   ar
    44    35    36    1
    45    36    37    1
    46    37    38    1
    47    38    39    1
    48    17    12   ar
    49    35    29   ar
    50    23    18   ar
    51    48    42   ar
    52    39    34    1
@<TRIPOS>MOLECULE
*****
 48 52 0 0 0
SMALL
GASTEIGER

@<TRIPOS>ATOM
      1 N           6.0599   -1.2366   30.9842 N.am    1  UNL1       -0.2724
      2 C           5.5438    0.0769   31.4926 C.2     1  UNL1        0.2491
      3 O           6.0204    1.3590   30.8769 O.2     1  UNL1       -0.2727
      4 C           5.5833   -2.5187   31.5998 C.3     1  UNL1        0.1111
      5 C           6.5559   -3.4228   32.2973 C.3     1  UNL1        0.0939
      6 N           7.4453   -4.3277   31.4971 N.3     1  UNL1       -0.2712
      7 C           6.6525   -5.1294   29.1564 C.3     1  UNL1        0.0188
      8 C           6.8446   -5.3872   30.6215 C.3     1  UNL1        0.0722
      9 C           8.9354   -4.1730   31.5724 C.3     1  UNL1        0.0722
     10 C           9.5359   -2.8318   31.8735 C.3     1  UNL1        0.0188
     11 C           7.0527   -1.2679   29.8601 C.3     1  UNL1        0.1202
     12 C           6.5916   -1.5443   28.4598 C.ar    1  UNL1       -0.0023
     13 C           7.5919   -1.8770   27.3927 C.ar    1  UNL1       -0.0026
     14 C           7.1309   -2.1533   25.9923 C.ar    1  UNL1       -0.0003
     15 C           5.6695   -2.0970   25.6590 C.ar    1  UNL1       -0.0000
     16 C           4.6691   -1.7643   26.7261 C.ar    1  UNL1       -0.0003
     17 C           5.1302   -1.4879   28.1265 C.ar    1  UNL1       -0.0026
     18 C           5.2084   -2.3734   24.2587 C.ar    1  UNL1       -0.0000
     19 C           4.2530   -1.4339   23.5844 C.ar    1  UNL1       -0.0001
     20 C           3.7920   -1.7103   22.1841 C.ar    1  UNL1        0.0039
     21 C           4.2863   -2.9262   21.4579 C.ar    1  UNL1        0.0714
     22 C           5.2417   -3.8657   22.1321 C.ar    1  UNL1        0.0039
     23 C           5.7028   -3.5893   23.5325 C.ar    1  UNL1       -0.0001
     24 C           3.8252   -3.2025   20.0576 C.3     1  UNL1        0.4186
     25 F           3.3641   -3.4789   18.6572 F       1  UNL1       -0.1659
     26 F           2.8678   -2.0512   20.1455 F       1  UNL1       -0.1659
     27 F           4.7826   -4.3539   19.9696 F       1  UNL1       -0.1659
     28 C           4.5510    0.1082   32.6166 C.3     1  UNL1        0.1931
     29 N           3.3880    1.0540   32.5639 N.ar    1  UNL1       -0.3030
     30 C           3.2384    2.1179   33.6106 C.ar    1  UNL1        0.1747
     31 N           2.0753    3.0637   33.5579 N.ar    1  UNL1       -0.1847
     32 C           1.0618    2.9456   32.4584 C.ar    1  UNL1        0.2779
     33 O          -0.1012    3.8914   32.4057 O.2     1  UNL1       -0.2654
     34 C           1.2114    1.8816   31.4116 C.ar    1  UNL1        0.0474
     35 C           2.3745    0.9358   31.4643 C.ar    1  UNL1        0.0399
     36 C           2.5240   -0.1280   30.4176 C.3     1  UNL1        0.0437
     37 C           1.5106   -0.2461   29.3181 C.3     1  UNL1        0.0066
     38 C           0.3475    0.6996   29.2654 C.3     1  UNL1        0.0053
     39 C           0.1979    1.7635   30.3121 C.3     1  UNL1        0.0324
     40 S           4.2519    2.2360   34.7102 S.3     1  UNL1       -0.0724
     41 C           3.9710    3.1070   35.8986 C.3     1  UNL1        0.0913
     42 C           3.1159    2.5940   37.0190 C.ar    1  UNL1       -0.0108
     43 C           1.9781    3.4244   37.5349 C.ar    1  UNL1       -0.0011
     44 C           1.1229    2.9114   38.6553 C.ar    1  UNL1        0.0293
     45 C           1.4054    1.5681   39.2600 C.ar    1  UNL1        0.1401
     46 F           0.5502    1.0551   40.3804 F       1  UNL1       -0.2042
     47 C           2.5431    0.7377   38.7442 C.ar    1  UNL1        0.0293
     48 C           3.3984    1.2507   37.6237 C.ar    1  UNL1       -0.0011
@<TRIPOS>BOND
     1     7     8    1
     2     8     6    1
     3     6     9    1
     4     9    10    1
     5     6     5    1
     6     5     4    1
     7     4     1    1
     8     1    11    1
     9    11    12    1
    10    12    13   ar
    11    13    14   ar
    12    14    15   ar
    13    15    18    1
    14    18    19   ar
    15    19    20   ar
    16    20    21   ar
    17    21    24    1
    18    24    25    1
    19    24    26    1
    20    24    27    1
    21    21    22   ar
    22    22    23   ar
    23    15    16   ar
    24    16    17   ar
    25     1     2   am
    26     2     3    2
    27     2    28    1
    28    28    29    1
    29    29    30   ar
    30    30    40    1
    31    40    41    1
    32    41    42    1
    33    42    43   ar
    34    43    44   ar
    35    44    45   ar
    36    45    46    1
    37    45    47   ar
    38    47    48   ar
    39    30    31   ar
    40    31    32   ar
    41    32    33    2
    42    32    34   ar
    43    34    35   ar
    44    35    36    1
    45    36    37    1
    46    37    38    1
    47    38    39    1
    48    17    12   ar
    49    35    29   ar
    50    23    18   ar
    51    48    42   ar
    52    39    34    1
@<TRIPOS>MOLECULE
*****
 48 52 0 0 0
SMALL
GASTEIGER

@<TRIPOS>ATOM
      1 N           4.1948    0.2262   31.3568 N.am    1  UNL1       -0.2724
      2 C           3.6945    1.4953   31.9807 C.2     1  UNL1        0.2491
      3 O           4.3064    2.8106   31.5990 O.2     1  UNL1       -0.2727
      4 C           3.5830   -1.0890   31.7385 C.3     1  UNL1        0.1111
      5 C           4.2248   -1.9355   32.7976 C.3     1  UNL1        0.0939
      6 N           5.6215   -1.6342   33.2544 N.3     1  UNL1       -0.2712
      7 C           6.5561   -3.4447   31.6424 C.3     1  UNL1        0.0188
      8 C           6.7877   -2.3129   32.5991 C.3     1  UNL1        0.0722
      9 C           5.8519   -0.6543   34.3664 C.3     1  UNL1        0.0722
     10 C           4.8595   -0.5430   35.4856 C.3     1  UNL1        0.0188
     11 C           5.3069    0.2725   30.3512 C.3     1  UNL1        0.1202
     12 C           5.0542   -0.1478   28.9337 C.ar    1  UNL1       -0.0023
     13 C           3.9530    0.4969   28.1452 C.ar    1  UNL1       -0.0026
     14 C           3.7003    0.0765   26.7276 C.ar    1  UNL1       -0.0003
     15 C           4.5487   -0.9885   26.0986 C.ar    1  UNL1       -0.0000
     16 C           5.6500   -1.6333   26.8871 C.ar    1  UNL1       -0.0003
     17 C           5.9027   -1.2130   28.3046 C.ar    1  UNL1       -0.0026
     18 C           4.2960   -1.4089   24.6810 C.ar    1  UNL1       -0.0000
     19 C           3.3235   -0.6433   23.8338 C.ar    1  UNL1       -0.0001
     20 C           3.0707   -1.0636   22.4162 C.ar    1  UNL1        0.0039
     21 C           3.7906   -2.2496   21.8460 C.ar    1  UNL1        0.0714
     22 C           4.7632   -3.0153   22.6932 C.ar    1  UNL1        0.0039
     23 C           5.0159   -2.5949   24.1108 C.ar    1  UNL1       -0.0001
     24 C           3.5379   -2.6699   20.4284 C.3     1  UNL1        0.4186
     25 F           3.2851   -3.0903   19.0109 F       1  UNL1       -0.1659
     26 F           2.5334   -1.5658   20.2801 F       1  UNL1       -0.1659
     27 F           4.5423   -3.7741   20.5768 F       1  UNL1       -0.1659
     28 C           2.5825    1.4491   32.9863 C.3     1  UNL1        0.1931
     29 N           1.8706    2.7107   33.3758 N.ar    1  UNL1       -0.3030
     30 C           0.8944    3.3438   32.4292 C.ar    1  UNL1        0.1747
     31 N           0.1825    4.6054   32.8187 N.ar    1  UNL1       -0.1847
     32 C           0.4469    5.2338   34.1547 C.ar    1  UNL1        0.2779
     33 O          -0.2650    6.4953   34.5442 O.2     1  UNL1       -0.2654
     34 C           1.4231    4.6006   35.1014 C.ar    1  UNL1        0.0474
     35 C           2.1350    3.3391   34.7119 C.ar    1  UNL1        0.0399
     36 C           3.1112    2.7059   35.6585 C.3     1  UNL1        0.0437
     37 C           3.3755    3.3343   36.9946 C.3     1  UNL1        0.0066
     38 C           2.6636    4.5959   37.3841 C.3     1  UNL1        0.0053
     39 C           1.6874    5.2290   36.4375 C.3     1  UNL1        0.0324
     40 S           0.6301    2.7154   31.0930 S.3     1  UNL1       -0.0724
     41 C           1.0970    3.3940   29.8395 C.3     1  UNL1        0.0913
     42 C           0.8617    2.7497   28.5056 C.ar    1  UNL1       -0.0108
     43 C          -0.0442    1.5590   28.3971 C.ar    1  UNL1       -0.0011
     44 C          -0.2795    0.9146   27.0632 C.ar    1  UNL1        0.0293
     45 C           0.3910    1.4608   25.8377 C.ar    1  UNL1        0.1401
     46 F           0.1557    0.8164   24.5038 F       1  UNL1       -0.2042
     47 C           1.2969    2.6514   25.9460 C.ar    1  UNL1        0.0293
     48 C           1.5323    3.2959   27.2800 C.ar    1  UNL1       -0.0011
@<TRIPOS>BOND
     1     7     8    1
     2     8     6    1
     3     6     9    1
     4     9    10    1
     5     6     5    1
     6     5     4    1
     7     4     1    1
     8     1    11    1
     9    11    12    1
    10    12    13   ar
    11    13    14   ar
    12    14    15   ar
    13    15    18    1
    14    18    19   ar
    15    19    20   ar
    16    20    21   ar
    17    21    24    1
    18    24    25    1
    19    24    26    1
    20    24    27    1
    21    21    22   ar
    22    22    23   ar
    23    15    16   ar
    24    16    17   ar
    25     1     2   am
    26     2     3    2
    27     2    28    1
    28    28    29    1
    29    29    30   ar
    30    30    40    1
    31    40    41    1
    32    41    42    1
    33    42    43   ar
    34    43    44   ar
    35    44    45   ar
    36    45    46    1
    37    45    47   ar
    38    47    48   ar
    39    30    31   ar
    40    31    32   ar
    41    32    33    2
    42    32    34   ar
    43    34    35   ar
    44    35    36    1
    45    36    37    1
    46    37    38    1
    47    38    39    1
    48    17    12   ar
    49    35    29   ar
    50    23    18   ar
    51    48    42   ar
    52    39    34    1
@<TRIPOS>MOLECULE
*****
 48 52 0 0 0
SMALL
GASTEIGER

@<TRIPOS>ATOM
      1 N           3.8719    0.8486   29.3585 N.am    1  UNL1       -0.2724
      2 C           5.3020    1.0805   29.7472 C.2     1  UNL1        0.2491
      3 O           6.2167    1.8334   28.8270 O.2     1  UNL1       -0.2727
      4 C           2.9573    0.0958   30.2785 C.3     1  UNL1        0.1111
      5 C           1.5776   -0.2780   29.8238 C.3     1  UNL1        0.0939
      6 N           0.4750    0.7385   29.8595 N.3     1  UNL1       -0.2712
      7 C           0.9532    3.2458   30.3440 C.3     1  UNL1        0.0188
      8 C           0.5431    1.8852   30.8241 C.3     1  UNL1        0.0722
      9 C          -0.6955    0.6083   28.9307 C.3     1  UNL1        0.0722
     10 C          -0.5713    1.0466   27.5016 C.3     1  UNL1        0.0188
     11 C           3.3565    1.3696   28.0496 C.3     1  UNL1        0.1202
     12 C           3.5161    0.5524   26.8019 C.ar    1  UNL1       -0.0023
     13 C           2.7701    0.9309   25.5569 C.ar    1  UNL1       -0.0026
     14 C           2.9297    0.1137   24.3092 C.ar    1  UNL1       -0.0003
     15 C           3.8353   -1.0820   24.3066 C.ar    1  UNL1       -0.0000
     16 C           4.5814   -1.4606   25.5516 C.ar    1  UNL1       -0.0003
     17 C           4.4218   -0.6434   26.7993 C.ar    1  UNL1       -0.0026
     18 C           3.9949   -1.8992   23.0589 C.ar    1  UNL1       -0.0000
     19 C           4.7413   -3.1995   23.1043 C.ar    1  UNL1       -0.0001
     20 C           4.9009   -4.0167   21.8567 C.ar    1  UNL1        0.0039
     21 C           4.3140   -3.5336   20.5635 C.ar    1  UNL1        0.0714
     22 C           3.5676   -2.2333   20.5180 C.ar    1  UNL1        0.0039
     23 C           3.4080   -1.4161   21.7657 C.ar    1  UNL1       -0.0001
     24 C           4.4736   -4.3508   19.3159 C.3     1  UNL1        0.4186
     25 F           4.6332   -5.1680   18.0682 F       1  UNL1       -0.1659
     26 F           5.5816   -3.4459   18.8649 F       1  UNL1       -0.1659
     27 F           3.3656   -5.2558   19.7669 F       1  UNL1       -0.1659
     28 C           5.8174    0.5595   31.0559 C.3     1  UNL1        0.1931
     29 N           6.0849   -0.9065   31.2266 N.ar    1  UNL1       -0.3030
     30 C           5.4959   -1.6458   32.3912 C.ar    1  UNL1        0.1747
     31 N           5.7634   -3.1118   32.5619 N.ar    1  UNL1       -0.1847
     32 C           6.6200   -3.8386   31.5679 C.ar    1  UNL1        0.2779
     33 O           6.8875   -5.3047   31.7386 O.2     1  UNL1       -0.2654
     34 C           7.2091   -3.0994   30.4032 C.ar    1  UNL1        0.0474
     35 C           6.9416   -1.6333   30.2325 C.ar    1  UNL1        0.0399
     36 C           7.5306   -0.8940   29.0679 C.3     1  UNL1        0.0437
     37 C           8.3872   -1.6208   28.0739 C.3     1  UNL1        0.0066
     38 C           8.6547   -3.0869   28.2446 C.3     1  UNL1        0.0053
     39 C           8.0656   -3.8261   29.4092 C.3     1  UNL1        0.0324
     40 S           4.6392   -0.9190   33.3853 S.3     1  UNL1       -0.0724
     41 C           5.2478   -0.3747   34.6436 C.3     1  UNL1        0.0913
     42 C           4.4416    0.5149   35.5427 C.ar    1  UNL1       -0.0108
     43 C           3.5898    1.6011   34.9555 C.ar    1  UNL1       -0.0011
     44 C           2.7836    2.4907   35.8546 C.ar    1  UNL1        0.0293
     45 C           2.8291    2.2943   37.3410 C.ar    1  UNL1        0.1401
     46 F           2.0228    3.1839   38.2401 F       1  UNL1       -0.2042
     47 C           3.6808    1.2082   37.9282 C.ar    1  UNL1        0.0293
     48 C           4.4871    0.3185   37.0291 C.ar    1  UNL1       -0.0011
@<TRIPOS>BOND
     1     7     8    1
     2     8     6    1
     3     6     9    1
     4     9    10    1
     5     6     5    1
     6     5     4    1
     7     4     1    1
     8     1    11    1
     9    11    12    1
    10    12    13   ar
    11    13    14   ar
    12    14    15   ar
    13    15    18    1
    14    18    19   ar
    15    19    20   ar
    16    20    21   ar
    17    21    24    1
    18    24    25    1
    19    24    26    1
    20    24    27    1
    21    21    22   ar
    22    22    23   ar
    23    15    16   ar
    24    16    17   ar
    25     1     2   am
    26     2     3    2
    27     2    28    1
    28    28    29    1
    29    29    30   ar
    30    30    40    1
    31    40    41    1
    32    41    42    1
    33    42    43   ar
    34    43    44   ar
    35    44    45   ar
    36    45    46    1
    37    45    47   ar
    38    47    48   ar
    39    30    31   ar
    40    31    32   ar
    41    32    33    2
    42    32    34   ar
    43    34    35   ar
    44    35    36    1
    45    36    37    1
    46    37    38    1
    47    38    39    1
    48    17    12   ar
    49    35    29   ar
    50    23    18   ar
    51    48    42   ar
    52    39    34    1
@<TRIPOS>MOLECULE
*****
 48 52 0 0 0
SMALL
GASTEIGER

@<TRIPOS>ATOM
      1 N           5.4304   -1.1692   31.0590 N.am    1  UNL1       -0.2724
      2 C           4.5952   -0.0133   31.5240 C.2     1  UNL1        0.2491
      3 O           4.7601    1.3351   30.8876 O.2     1  UNL1       -0.2727
      4 C           5.2656   -2.5175   31.6954 C.3     1  UNL1        0.1111
      5 C           6.4167   -3.1512   32.4189 C.3     1  UNL1        0.0939
      6 N           7.4028   -3.9945   31.6663 N.3     1  UNL1       -0.2712
      7 C           6.6948   -5.1339   29.4413 C.3     1  UNL1        0.0188
      8 C           6.9355   -5.2089   30.9199 C.3     1  UNL1        0.0722
      9 C           8.8562   -3.6235   31.6600 C.3     1  UNL1        0.0722
     10 C           9.4511   -2.9422   30.4634 C.3     1  UNL1        0.0188
     11 C           6.4306   -0.9769   29.9577 C.3     1  UNL1        0.1202
     12 C           6.0483   -1.2718   28.5376 C.ar    1  UNL1       -0.0023
     13 C           7.0961   -1.6958   27.5515 C.ar    1  UNL1       -0.0026
     14 C           6.7138   -1.9907   26.1313 C.ar    1  UNL1       -0.0003
     15 C           5.2838   -1.8617   25.6972 C.ar    1  UNL1       -0.0000
     16 C           4.2360   -1.4377   26.6834 C.ar    1  UNL1       -0.0003
     17 C           4.6183   -1.1428   28.1035 C.ar    1  UNL1       -0.0026
     18 C           4.9016   -2.1567   24.2771 C.ar    1  UNL1       -0.0000
     19 C           5.3596   -3.4278   23.6256 C.ar    1  UNL1       -0.0001
     20 C           4.9773   -3.7227   22.2054 C.ar    1  UNL1        0.0039
     21 C           4.1371   -2.7466   21.4367 C.ar    1  UNL1        0.0714
     22 C           3.6790   -1.4754   22.0881 C.ar    1  UNL1        0.0039
     23 C           4.0613   -1.1804   23.5083 C.ar    1  UNL1       -0.0001
     24 C           3.7548   -3.0415   20.0165 C.3     1  UNL1        0.4186
     25 F           3.3726   -3.3365   18.5964 F       1  UNL1       -0.1659
     26 F           2.6738   -2.0044   20.0921 F       1  UNL1       -0.1659
     27 F           4.8359   -4.0786   19.9410 F       1  UNL1       -0.1659
     28 C           3.5951   -0.2056   32.6252 C.3     1  UNL1        0.1931
     29 N           3.3331    0.9020   33.6022 N.ar    1  UNL1       -0.3030
     30 C           2.2592    1.9110   33.3219 C.ar    1  UNL1        0.1747
     31 N           1.9972    3.0185   34.2990 N.ar    1  UNL1       -0.1847
     32 C           2.8091    3.1172   35.5563 C.ar    1  UNL1        0.2779
     33 O           2.5471    4.2247   36.5334 O.2     1  UNL1       -0.2654
     34 C           3.8831    2.1082   35.8367 C.ar    1  UNL1        0.0474
     35 C           4.1451    1.0006   34.8597 C.ar    1  UNL1        0.0399
     36 C           5.2191   -0.0084   35.1399 C.3     1  UNL1        0.0437
     37 C           6.0310    0.0903   36.3973 C.3     1  UNL1        0.0066
     38 C           5.7690    1.1979   37.3743 C.3     1  UNL1        0.0053
     39 C           4.6950    2.2068   37.0941 C.3     1  UNL1        0.0324
     40 S           1.4471    1.8124   32.0645 S.3     1  UNL1       -0.0724
     41 C           1.7857    2.6731   30.8837 C.3     1  UNL1        0.0913
     42 C           1.4307    2.2196   29.4987 C.ar    1  UNL1       -0.0108
     43 C           0.0415    1.7386   29.2000 C.ar    1  UNL1       -0.0011
     44 C          -0.3135    1.2851   27.8150 C.ar    1  UNL1        0.0293
     45 C           0.7205    1.3125   26.7287 C.ar    1  UNL1        0.1401
     46 F           0.3654    0.8590   25.3437 F       1  UNL1       -0.2042
     47 C           2.1095    1.7934   27.0273 C.ar    1  UNL1        0.0293
     48 C           2.4646    2.2469   28.4124 C.ar    1  UNL1       -0.0011
@<TRIPOS>BOND
     1     7     8    1
     2     8     6    1
     3     6     9    1
     4     9    10    1
     5     6     5    1
     6     5     4    1
     7     4     1    1
     8     1    11    1
     9    11    12    1
    10    12    13   ar
    11    13    14   ar
    12    14    15   ar
    13    15    18    1
    14    18    19   ar
    15    19    20   ar
    16    20    21   ar
    17    21    24    1
    18    24    25    1
    19    24    26    1
    20    24    27    1
    21    21    22   ar
    22    22    23   ar
    23    15    16   ar
    24    16    17   ar
    25     1     2   am
    26     2     3    2
    27     2    28    1
    28    28    29    1
    29    29    30   ar
    30    30    40    1
    31    40    41    1
    32    41    42    1
    33    42    43   ar
    34    43    44   ar
    35    44    45   ar
    36    45    46    1
    37    45    47   ar
    38    47    48   ar
    39    30    31   ar
    40    31    32   ar
    41    32    33    2
    42    32    34   ar
    43    34    35   ar
    44    35    36    1
    45    36    37    1
    46    37    38    1
    47    38    39    1
    48    17    12   ar
    49    35    29   ar
    50    23    18   ar
    51    48    42   ar
    52    39    34    1
@<TRIPOS>MOLECULE
*****
 48 52 0 0 0
SMALL
GASTEIGER

@<TRIPOS>ATOM
      1 N           3.5790    0.0854   30.2082 N.am    1  UNL1       -0.2724
      2 C           4.0172   -0.7502   29.0421 C.2     1  UNL1        0.2491
      3 O           2.9938   -1.3864   28.1487 O.2     1  UNL1       -0.2727
      4 C           4.6023    0.7215   31.1016 C.3     1  UNL1        0.1111
      5 C           4.2511    1.9490   31.8890 C.3     1  UNL1        0.0939
      6 N           3.8675    1.8288   33.3342 N.3     1  UNL1       -0.2712
      7 C           1.5541    2.9761   33.0485 C.3     1  UNL1        0.0188
      8 C           2.4325    1.9790   33.7442 C.3     1  UNL1        0.0722
      9 C           4.9190    1.5584   34.3692 C.3     1  UNL1        0.0722
     10 C           4.6222    0.6404   35.5177 C.3     1  UNL1        0.0188
     11 C           2.1175    0.2848   30.4809 C.3     1  UNL1        0.1202
     12 C           1.2378    0.9068   29.4372 C.ar    1  UNL1       -0.0023
     13 C           1.6126    2.2260   28.8297 C.ar    1  UNL1       -0.0026
     14 C           0.7330    2.8480   27.7860 C.ar    1  UNL1       -0.0003
     15 C          -0.5214    2.1507   27.3498 C.ar    1  UNL1       -0.0000
     16 C          -0.8963    0.8314   27.9573 C.ar    1  UNL1       -0.0003
     17 C          -0.0166    0.2095   29.0011 C.ar    1  UNL1       -0.0026
     18 C          -1.4011    2.7727   26.3061 C.ar    1  UNL1       -0.0000
     19 C          -2.7442    3.3213   26.6870 C.ar    1  UNL1       -0.0001
     20 C          -3.6238    3.9433   25.6433 C.ar    1  UNL1        0.0039
     21 C          -3.1604    4.0167   24.2186 C.ar    1  UNL1        0.0714
     22 C          -1.8172    3.4682   23.8376 C.ar    1  UNL1        0.0039
     23 C          -0.9376    2.8462   24.8813 C.ar    1  UNL1       -0.0001
     24 C          -4.0400    4.6387   23.1749 C.3     1  UNL1        0.4186
     25 F          -4.9196    5.2607   22.1312 F       1  UNL1       -0.1659
     26 F          -4.2650    3.2891   22.5602 F       1  UNL1       -0.1659
     27 F          -3.8150    5.9884   23.7896 F       1  UNL1       -0.1659
     28 C           5.4786   -0.9496   28.7694 C.3     1  UNL1        0.1931
     29 N           5.9863   -2.2975   28.3505 N.ar    1  UNL1       -0.3030
     30 C           6.0999   -2.6367   26.8939 C.ar    1  UNL1        0.1747
     31 N           6.6076   -3.9846   26.4750 N.ar    1  UNL1       -0.1847
     32 C           7.0017   -4.9933   27.5129 C.ar    1  UNL1        0.2779
     33 O           7.5094   -6.3412   27.0940 O.2     1  UNL1       -0.2654
     34 C           6.8881   -4.6541   28.9696 C.ar    1  UNL1        0.0474
     35 C           6.3804   -3.3062   29.3885 C.ar    1  UNL1        0.0399
     36 C           6.2668   -2.9670   30.8452 C.3     1  UNL1        0.0437
     37 C           6.6609   -3.9757   31.8830 C.3     1  UNL1        0.0066
     38 C           7.1686   -5.3236   31.4642 C.3     1  UNL1        0.0053
     39 C           7.2822   -5.6628   30.0075 C.3     1  UNL1        0.0324
     40 S           5.7058   -1.6280   25.8559 S.3     1  UNL1       -0.0724
     41 C           4.9206   -2.0579   24.6524 C.3     1  UNL1        0.0913
     42 C           3.8737   -1.1509   24.0767 C.ar    1  UNL1       -0.0108
     43 C           3.5371   -1.2256   22.6169 C.ar    1  UNL1       -0.0011
     44 C           2.4902   -0.3186   22.0412 C.ar    1  UNL1        0.0293
     45 C           1.7799    0.6631   22.9254 C.ar    1  UNL1        0.1401
     46 F           0.7331    1.5701   22.3498 F       1  UNL1       -0.2042
     47 C           2.1165    0.7378   24.3852 C.ar    1  UNL1        0.0293
     48 C           3.1635   -0.1692   24.9609 C.ar    1  UNL1       -0.0011
@<TRIPOS>BOND
     1     7     8    1
     2     8     6    1
     3     6     9    1
     4     9    10    1
     5     6     5    1
     6     5     4    1
     7     4     1    1
     8     1    11    1
     9    11    12    1
    10    12    13   ar
    11    13    14   ar
    12    14    15   ar
    13    15    18    1
    14    18    19   ar
    15    19    20   ar
    16    20    21   ar
    17    21    24    1
    18    24    25    1
    19    24    26    1
    20    24    27    1
    21    21    22   ar
    22    22    23   ar
    23    15    16   ar
    24    16    17   ar
    25     1     2   am
    26     2     3    2
    27     2    28    1
    28    28    29    1
    29    29    30   ar
    30    30    40    1
    31    40    41    1
    32    41    42    1
    33    42    43   ar
    34    43    44   ar
    35    44    45   ar
    36    45    46    1
    37    45    47   ar
    38    47    48   ar
    39    30    31   ar
    40    31    32   ar
    41    32    33    2
    42    32    34   ar
    43    34    35   ar
    44    35    36    1
    45    36    37    1
    46    37    38    1
    47    38    39    1
    48    17    12   ar
    49    35    29   ar
    50    23    18   ar
    51    48    42   ar
    52    39    34    1
@<TRIPOS>MOLECULE
*****
 48 52 0 0 0
SMALL
GASTEIGER

@<TRIPOS>ATOM
      1 N           2.9991    2.2978   30.9952 N.am    1  UNL1       -0.2724
      2 C           3.2593    1.4271   32.1886 C.2     1  UNL1        0.2491
      3 O           2.4806    0.1587   32.3758 O.2     1  UNL1       -0.2727
      4 C           3.7777    3.5661   30.8081 C.3     1  UNL1        0.1111
      5 C           3.2411    4.8613   31.3416 C.3     1  UNL1        0.0939
      6 N           1.9015    5.3615   30.8884 N.3     1  UNL1       -0.2712
      7 C           0.0149    4.2001   32.2456 C.3     1  UNL1        0.0188
      8 C           0.7627    5.4423   31.8614 C.3     1  UNL1        0.0722
      9 C           1.7006    5.7809   29.4623 C.3     1  UNL1        0.0722
     10 C           0.6910    5.0736   28.6077 C.3     1  UNL1        0.0188
     11 C           1.9601    1.9001   29.9890 C.3     1  UNL1        0.1202
     12 C           2.3660    1.1841   28.7349 C.ar    1  UNL1       -0.0023
     13 C           2.3091    1.8935   27.4145 C.ar    1  UNL1       -0.0026
     14 C           2.7150    1.1775   26.1604 C.ar    1  UNL1       -0.0003
     15 C           3.1777   -0.2477   26.2267 C.ar    1  UNL1       -0.0000
     16 C           3.2346   -0.9572   27.5472 C.ar    1  UNL1       -0.0003
     17 C           2.8287   -0.2412   28.8013 C.ar    1  UNL1       -0.0026
     18 C           3.5836   -0.9637   24.9727 C.ar    1  UNL1       -0.0000
     19 C           2.9340   -0.6151   23.6664 C.ar    1  UNL1       -0.0001
     20 C           3.3398   -1.3311   22.4123 C.ar    1  UNL1        0.0039
     21 C           4.3953   -2.3956   22.4645 C.ar    1  UNL1        0.0714
     22 C           5.0450   -2.7442   23.7709 C.ar    1  UNL1        0.0039
     23 C           4.6391   -2.0282   25.0249 C.ar    1  UNL1       -0.0001
     24 C           4.8012   -3.1115   21.2104 C.3     1  UNL1        0.4186
     25 F           5.2070   -3.8275   19.9564 F       1  UNL1       -0.1659
     26 F           5.6875   -4.0164   22.0139 F       1  UNL1       -0.1659
     27 F           3.9149   -2.2066   20.4070 F       1  UNL1       -0.1659
     28 C           4.2982    1.8247   33.1949 C.3     1  UNL1        0.1931
     29 N           4.0640    1.5717   34.6547 N.ar    1  UNL1       -0.3030
     30 C           4.6917    0.3829   35.3200 C.ar    1  UNL1        0.1747
     31 N           4.4575    0.1298   36.7798 N.ar    1  UNL1       -0.1847
     32 C           3.5956    1.0655   37.5744 C.ar    1  UNL1        0.2779
     33 O           3.3614    0.8125   39.0342 O.2     1  UNL1       -0.2654
     34 C           2.9678    2.2545   36.9091 C.ar    1  UNL1        0.0474
     35 C           3.2020    2.5075   35.4493 C.ar    1  UNL1        0.0399
     36 C           2.5743    3.6964   34.7840 C.3     1  UNL1        0.0437
     37 C           1.7124    4.6321   35.5786 C.3     1  UNL1        0.0066
     38 C           1.4782    4.3790   37.0384 C.3     1  UNL1        0.0053
     39 C           2.1059    3.1902   37.7037 C.3     1  UNL1        0.0324
     40 S           5.5537   -0.5530   34.5254 S.3     1  UNL1       -0.0724
     41 C           4.9374   -1.7261   33.8226 C.3     1  UNL1        0.0913
     42 C           5.5169   -2.2138   32.5279 C.ar    1  UNL1       -0.0108
     43 C           5.4265   -1.3610   31.2972 C.ar    1  UNL1       -0.0011
     44 C           6.0061   -1.8487   30.0025 C.ar    1  UNL1        0.0293
     45 C           6.6760   -3.1893   29.9384 C.ar    1  UNL1        0.1401
     46 F           7.2555   -3.6770   28.6438 F       1  UNL1       -0.2042
     47 C           6.7663   -4.0421   31.1691 C.ar    1  UNL1        0.0293
     48 C           6.1868   -3.5544   32.4638 C.ar    1  UNL1       -0.0011
@<TRIPOS>BOND
     1     7     8    1
     2     8     6    1
     3     6     9    1
     4     9    10    1
     5     6     5    1
     6     5     4    1
     7     4     1    1
     8     1    11    1
     9    11    12    1
    10    12    13   ar
    11    13    14   ar
    12    14    15   ar
    13    15    18    1
    14    18    19   ar
    15    19    20   ar
    16    20    21   ar
    17    21    24    1
    18    24    25    1
    19    24    26    1
    20    24    27    1
    21    21    22   ar
    22    22    23   ar
    23    15    16   ar
    24    16    17   ar
    25     1     2   am
    26     2     3    2
    27     2    28    1
    28    28    29    1
    29    29    30   ar
    30    30    40    1
    31    40    41    1
    32    41    42    1
    33    42    43   ar
    34    43    44   ar
    35    44    45   ar
    36    45    46    1
    37    45    47   ar
    38    47    48   ar
    39    30    31   ar
    40    31    32   ar
    41    32    33    2
    42    32    34   ar
    43    34    35   ar
    44    35    36    1
    45    36    37    1
    46    37    38    1
    47    38    39    1
    48    17    12   ar
    49    35    29   ar
    50    23    18   ar
    51    48    42   ar
    52    39    34    1
