@<TRIPOS>MOLECULE
*****
 26 28 0 0 0
SMALL
GASTEIGER

@<TRIPOS>ATOM
      1 C          -7.6062  -19.3659   20.5278 C.2     1  UNL1        0.2461
      2 O          -8.0918  -19.2001   19.1183 O.2     1  UNL1       -0.2701
      3 N          -8.5853  -19.6365   21.6315 N.am    1  UNL1       -0.2969
      4 H          -8.2665  -19.7453   22.5566 H       1  UNL1        0.1501
      5 N           0.1131  -18.2863   19.5948 N.pl3   1  UNL1       -0.3375
      6 C          -1.2937  -18.5418   20.0484 C.ar    1  UNL1        0.1567
      7 N          -1.7217  -18.8804   21.4456 N.ar    1  UNL1       -0.2245
      8 C          -3.2120  -19.0514   21.4453 C.ar    1  UNL1        0.0892
      9 C          -4.1837  -19.3891   22.5368 C.ar    1  UNL1        0.0198
     10 C          -5.6484  -19.4940   22.2310 C.ar    1  UNL1        0.0061
     11 C          -6.1414  -19.2611   20.8336 C.ar    1  UNL1        0.0540
     12 C          -5.1696  -18.9234   19.7420 C.ar    1  UNL1        0.0126
     13 C          -3.7049  -18.8185   20.0479 C.ar    1  UNL1        0.0498
     14 S          -2.5193  -18.5036   19.1846 S.2     1  UNL1       -0.0520
     15 H           0.8549  -18.3348   20.2402 H       1  UNL1        0.1442
     16 H           0.2945  -18.0701   18.6516 H       1  UNL1        0.1442
     17 C         -10.0501  -19.7414   21.3257 C.3     1  UNL1        0.1178
     18 C         -10.9918  -18.6705   21.7906 C.ar    1  UNL1        0.0104
     19 C         -11.7131  -18.8215   23.0971 C.ar    1  UNL1       -0.0014
     20 C         -12.6549  -17.7506   23.5621 C.ar    1  UNL1       -0.0002
     21 C         -12.8754  -16.5286   22.7206 C.ar    1  UNL1        0.0012
     22 C         -12.1541  -16.3776   21.4141 C.ar    1  UNL1        0.0138
     23 C         -11.2123  -17.4486   20.9491 C.ar    1  UNL1        0.0391
     24 N         -10.4910  -17.2975   19.6426 N.pl3   1  UNL1       -0.3572
     25 H         -10.6357  -16.4955   19.0903 H       1  UNL1        0.1423
     26 H          -9.8729  -18.0004   19.3374 H       1  UNL1        0.1423
@<TRIPOS>BOND
     1     5     6    1
     2     6     7   ar
     3     7     8   ar
     4     8     9   ar
     5     9    10   ar
     6    10    11   ar
     7    11     1    1
     8     1     2    2
     9     1     3   am
    10     3    17    1
    11    17    18    1
    12    18    19   ar
    13    19    20   ar
    14    20    21   ar
    15    21    22   ar
    16    22    23   ar
    17    23    24    1
    18    11    12   ar
    19    12    13   ar
    20    13    14   ar
    21    14     6   ar
    22    13     8   ar
    23    23    18   ar
    24     5    15    1
    25     5    16    1
    26     3     4    1
    27    24    25    1
    28    24    26    1
@<TRIPOS>MOLECULE
*****
 26 28 0 0 0
SMALL
GASTEIGER

@<TRIPOS>ATOM
      1 C          -6.7202  -19.7440   21.4437 C.2     1  UNL1        0.2461
      2 O          -6.2162  -20.8202   20.5285 O.2     1  UNL1       -0.2701
      3 N          -5.7699  -19.0346   22.3621 N.am    1  UNL1       -0.2969
      4 H          -6.1007  -18.3282   22.9628 H       1  UNL1        0.1501
      5 N         -13.9008  -17.8388   23.9801 N.pl3   1  UNL1       -0.3375
      6 C         -12.6462  -18.1830   23.2334 C.ar    1  UNL1        0.1567
      7 N         -12.5043  -18.2742   21.7429 N.ar    1  UNL1       -0.2245
      8 C         -11.0837  -18.6439   21.4343 C.ar    1  UNL1        0.0892
      9 C         -10.3653  -18.8733   20.1377 C.ar    1  UNL1        0.0198
     10 C          -8.9108  -19.2400   20.1408 C.ar    1  UNL1        0.0061
     11 C          -8.1748  -19.3773   21.4406 C.ar    1  UNL1        0.0540
     12 C          -8.8932  -19.1479   22.7372 C.ar    1  UNL1        0.0126
     13 C         -10.3476  -18.7812   22.7340 C.ar    1  UNL1        0.0498
     14 S         -11.3133  -18.4963   23.8459 S.2     1  UNL1       -0.0520
     15 H         -14.7308  -17.6478   23.4864 H       1  UNL1        0.1442
     16 H         -13.8941  -17.8039   24.9640 H       1  UNL1        0.1442
     17 C          -4.3153  -19.4013   22.3652 C.3     1  UNL1        0.1178
     18 C          -3.3298  -18.5668   21.6021 C.ar    1  UNL1        0.0104
     19 C          -2.7059  -17.3651   22.2477 C.ar    1  UNL1       -0.0014
     20 C          -1.7204  -16.5306   21.4846 C.ar    1  UNL1       -0.0002
     21 C          -1.3588  -16.8978   20.0758 C.ar    1  UNL1        0.0012
     22 C          -1.9827  -18.0994   19.4303 C.ar    1  UNL1        0.0138
     23 C          -2.9682  -18.9339   20.1934 C.ar    1  UNL1        0.0391
     24 N          -3.5922  -20.1356   19.5479 N.pl3   1  UNL1       -0.3572
     25 H          -3.3548  -20.3766   18.6233 H       1  UNL1        0.1423
     26 H          -4.2390  -20.6833   20.0487 H       1  UNL1        0.1423
@<TRIPOS>BOND
     1     5     6    1
     2     6     7   ar
     3     7     8   ar
     4     8     9   ar
     5     9    10   ar
     6    10    11   ar
     7    11     1    1
     8     1     2    2
     9     1     3   am
    10     3    17    1
    11    17    18    1
    12    18    19   ar
    13    19    20   ar
    14    20    21   ar
    15    21    22   ar
    16    22    23   ar
    17    23    24    1
    18    11    12   ar
    19    12    13   ar
    20    13    14   ar
    21    14     6   ar
    22    13     8   ar
    23    23    18   ar
    24     5    15    1
    25     5    16    1
    26     3     4    1
    27    24    25    1
    28    24    26    1
@<TRIPOS>MOLECULE
*****
 26 28 0 0 0
SMALL
GASTEIGER

@<TRIPOS>ATOM
      1 C          -6.8863  -18.8977   22.4048 C.2     1  UNL1        0.2461
      2 O          -7.3262  -17.6051   23.0258 O.2     1  UNL1       -0.2701
      3 N          -7.7460  -20.1205   22.5294 N.am    1  UNL1       -0.2969
      4 H          -7.4573  -20.9688   22.1218 H       1  UNL1        0.1501
      5 N           0.4586  -17.3212   20.1266 N.pl3   1  UNL1       -0.3375
      6 C          -0.9351  -17.8252   20.3577 C.ar    1  UNL1        0.1567
      7 N          -1.6046  -18.9405   19.6107 N.ar    1  UNL1       -0.2245
      8 C          -2.9874  -19.1069   20.1677 C.ar    1  UNL1        0.0892
      9 C          -4.1018  -20.0496   19.8222 C.ar    1  UNL1        0.0198
     10 C          -5.4014  -19.9798   20.5679 C.ar    1  UNL1        0.0061
     11 C          -5.5866  -18.9674   21.6591 C.ar    1  UNL1        0.0540
     12 C          -4.4722  -18.0248   22.0046 C.ar    1  UNL1        0.0126
     13 C          -3.1726  -18.0945   21.2589 C.ar    1  UNL1        0.0498
     14 S          -1.9042  -17.3024   21.3763 S.2     1  UNL1       -0.0520
     15 H           1.0213  -17.7313   19.4306 H       1  UNL1        0.1442
     16 H           0.8108  -16.5804   20.6711 H       1  UNL1        0.1442
     17 C          -9.0457  -20.0507   23.2752 C.3     1  UNL1        0.1178
     18 C         -10.2117  -19.3163   22.6829 C.ar    1  UNL1        0.0104
     19 C         -10.2817  -19.0901   21.2017 C.ar    1  UNL1       -0.0014
     20 C         -11.4477  -18.3556   20.6094 C.ar    1  UNL1       -0.0002
     21 C         -12.5439  -17.8474   21.4982 C.ar    1  UNL1        0.0012
     22 C         -12.4740  -18.0736   22.9794 C.ar    1  UNL1        0.0138
     23 C         -11.3079  -18.8081   23.5717 C.ar    1  UNL1        0.0391
     24 N         -11.2380  -19.0343   25.0529 N.pl3   1  UNL1       -0.3572
     25 H         -11.9574  -18.7008   25.6363 H       1  UNL1        0.1423
     26 H         -10.4726  -19.5164   25.4417 H       1  UNL1        0.1423
@<TRIPOS>BOND
     1     5     6    1
     2     6     7   ar
     3     7     8   ar
     4     8     9   ar
     5     9    10   ar
     6    10    11   ar
     7    11     1    1
     8     1     2    2
     9     1     3   am
    10     3    17    1
    11    17    18    1
    12    18    19   ar
    13    19    20   ar
    14    20    21   ar
    15    21    22   ar
    16    22    23   ar
    17    23    24    1
    18    11    12   ar
    19    12    13   ar
    20    13    14   ar
    21    14     6   ar
    22    13     8   ar
    23    23    18   ar
    24     5    15    1
    25     5    16    1
    26     3     4    1
    27    24    25    1
    28    24    26    1
@<TRIPOS>MOLECULE
*****
 26 28 0 0 0
SMALL
GASTEIGER

@<TRIPOS>ATOM
      1 C          -6.6978  -17.8779   22.7305 C.2     1  UNL1        0.2461
      2 O          -5.7342  -16.8575   23.2601 O.2     1  UNL1       -0.2701
      3 N          -6.1939  -19.2055   22.2474 N.am    1  UNL1       -0.2969
      4 H          -6.8263  -19.8752   21.8998 H       1  UNL1        0.1501
      5 N         -14.3943  -18.1679   24.2481 N.pl3   1  UNL1       -0.3375
      6 C         -12.9958  -17.9022   23.7752 C.ar    1  UNL1        0.1567
      7 N         -12.5886  -16.8765   22.7593 N.ar    1  UNL1       -0.2245
      8 C         -11.1001  -16.9560   22.5913 C.ar    1  UNL1        0.0892
      9 C         -10.1454  -16.1885   21.7256 C.ar    1  UNL1        0.0198
     10 C          -8.6780  -16.4958   21.7720 C.ar    1  UNL1        0.0061
     11 C          -8.1653  -17.5706   22.6841 C.ar    1  UNL1        0.0540
     12 C          -9.1200  -18.3381   23.5498 C.ar    1  UNL1        0.0126
     13 C         -10.5874  -18.0308   23.5033 C.ar    1  UNL1        0.0498
     14 S         -11.7590  -18.6156   24.2350 S.2     1  UNL1       -0.0520
     15 H         -15.1446  -17.6442   23.8849 H       1  UNL1        0.1442
     16 H         -14.5618  -18.8661   24.9218 H       1  UNL1        0.1442
     17 C          -4.7264  -19.5128   22.2938 C.3     1  UNL1        0.1178
     18 C          -3.7997  -18.9007   21.2856 C.ar    1  UNL1        0.0104
     19 C          -3.8711  -19.3226   19.8479 C.ar    1  UNL1       -0.0014
     20 C          -2.9445  -18.7105   18.8397 C.ar    1  UNL1       -0.0002
     21 C          -1.9462  -17.6764   19.2691 C.ar    1  UNL1        0.0012
     22 C          -1.8748  -17.2545   20.7068 C.ar    1  UNL1        0.0138
     23 C          -2.8016  -17.8667   21.7150 C.ar    1  UNL1        0.0391
     24 N          -2.7301  -17.4448   23.1527 N.pl3   1  UNL1       -0.3572
     25 H          -2.0750  -16.7661   23.4346 H       1  UNL1        0.1423
     26 H          -3.3383  -17.8466   23.8144 H       1  UNL1        0.1423
@<TRIPOS>BOND
     1     5     6    1
     2     6     7   ar
     3     7     8   ar
     4     8     9   ar
     5     9    10   ar
     6    10    11   ar
     7    11     1    1
     8     1     2    2
     9     1     3   am
    10     3    17    1
    11    17    18    1
    12    18    19   ar
    13    19    20   ar
    14    20    21   ar
    15    21    22   ar
    16    22    23   ar
    17    23    24    1
    18    11    12   ar
    19    12    13   ar
    20    13    14   ar
    21    14     6   ar
    22    13     8   ar
    23    23    18   ar
    24     5    15    1
    25     5    16    1
    26     3     4    1
    27    24    25    1
    28    24    26    1
@<TRIPOS>MOLECULE
*****
 26 28 0 0 0
SMALL
GASTEIGER

@<TRIPOS>ATOM
      1 C          -6.5943  -19.7593   20.3322 C.2     1  UNL1        0.2461
      2 O          -6.2622  -21.1113   20.8905 O.2     1  UNL1       -0.2701
      3 N          -5.5148  -18.9121   19.7265 N.am    1  UNL1       -0.2969
      4 H          -5.7328  -18.0247   19.3601 H       1  UNL1        0.1501
      5 N         -13.0134  -15.8696   22.6318 N.pl3   1  UNL1       -0.3375
      6 C         -11.9574  -16.7154   21.9843 C.ar    1  UNL1        0.1567
      7 N         -12.1410  -17.5809   20.7730 N.ar    1  UNL1       -0.2245
      8 C         -10.8294  -18.2447   20.4744 C.ar    1  UNL1        0.0892
      9 C         -10.4119  -19.2048   19.4003 C.ar    1  UNL1        0.0198
     10 C          -9.0003  -19.7097   19.3529 C.ar    1  UNL1        0.0061
     11 C          -8.0060  -19.2544   20.3796 C.ar    1  UNL1        0.0540
     12 C          -8.4235  -18.2942   21.4538 C.ar    1  UNL1        0.0126
     13 C          -9.8351  -17.7894   21.5012 C.ar    1  UNL1        0.0498
     14 S         -10.5323  -16.8443   22.4343 S.2     1  UNL1       -0.0520
     15 H         -13.9251  -15.8508   22.2607 H       1  UNL1        0.1442
     16 H         -12.7949  -15.3332   23.4280 H       1  UNL1        0.1442
     17 C          -4.1030  -19.4170   19.6791 C.3     1  UNL1        0.1178
     18 C          -2.9643  -18.4902   19.9861 C.ar    1  UNL1        0.0104
     19 C          -1.8554  -18.3097   18.9923 C.ar    1  UNL1       -0.0014
     20 C          -0.7167  -17.3829   19.2993 C.ar    1  UNL1       -0.0002
     21 C          -0.6869  -16.6365   20.6002 C.ar    1  UNL1        0.0012
     22 C          -1.7959  -16.8170   21.5939 C.ar    1  UNL1        0.0138
     23 C          -2.9346  -17.7439   21.2869 C.ar    1  UNL1        0.0391
     24 N          -4.0436  -17.9244   22.2806 N.pl3   1  UNL1       -0.3572
     25 H          -4.0241  -17.4346   23.1344 H       1  UNL1        0.1423
     26 H          -4.7910  -18.5327   22.0791 H       1  UNL1        0.1423
@<TRIPOS>BOND
     1     5     6    1
     2     6     7   ar
     3     7     8   ar
     4     8     9   ar
     5     9    10   ar
     6    10    11   ar
     7    11     1    1
     8     1     2    2
     9     1     3   am
    10     3    17    1
    11    17    18    1
    12    18    19   ar
    13    19    20   ar
    14    20    21   ar
    15    21    22   ar
    16    22    23   ar
    17    23    24    1
    18    11    12   ar
    19    12    13   ar
    20    13    14   ar
    21    14     6   ar
    22    13     8   ar
    23    23    18   ar
    24     5    15    1
    25     5    16    1
    26     3     4    1
    27    24    25    1
    28    24    26    1
@<TRIPOS>MOLECULE
*****
 26 28 0 0 0
SMALL
GASTEIGER

@<TRIPOS>ATOM
      1 C          -6.3047  -19.9285   21.7488 C.2     1  UNL1        0.2461
      2 O          -6.1659  -20.8814   20.5987 O.2     1  UNL1       -0.2701
      3 N          -5.0823  -19.4248   22.4572 N.am    1  UNL1       -0.2969
      4 H          -5.1734  -18.7994   23.2120 H       1  UNL1        0.1501
      5 N         -12.7802  -15.5663   22.5631 N.pl3   1  UNL1       -0.3375
      6 C         -11.6780  -16.5835   22.5833 C.ar    1  UNL1        0.1567
      7 N         -11.6883  -17.8798   23.3379 N.ar    1  UNL1       -0.2245
      8 C         -10.3886  -18.5805   23.0735 C.ar    1  UNL1        0.0892
      9 C          -9.8409  -19.8931   23.5500 C.ar    1  UNL1        0.0198
     10 C          -8.4796  -20.3424   23.1084 C.ar    1  UNL1        0.0061
     11 C          -7.6661  -19.4791   22.1903 C.ar    1  UNL1        0.0540
     12 C          -8.2138  -18.1665   21.7138 C.ar    1  UNL1        0.0126
     13 C          -9.5751  -17.7172   22.1554 C.ar    1  UNL1        0.0498
     14 S         -10.3720  -16.4830   21.8525 S.2     1  UNL1       -0.0520
     15 H         -13.6043  -15.7231   23.0784 H       1  UNL1        0.1442
     16 H         -12.6795  -14.7418   22.0347 H       1  UNL1        0.1442
     17 C          -3.7210  -19.8742   22.0157 C.3     1  UNL1        0.1178
     18 C          -2.9433  -19.0534   21.0301 C.ar    1  UNL1        0.0104
     19 C          -3.1416  -19.2625   19.5580 C.ar    1  UNL1       -0.0014
     20 C          -2.3639  -18.4417   18.5724 C.ar    1  UNL1       -0.0002
     21 C          -1.3879  -17.4117   19.0589 C.ar    1  UNL1        0.0012
     22 C          -1.1896  -17.2025   20.5309 C.ar    1  UNL1        0.0138
     23 C          -1.9674  -18.0234   21.5165 C.ar    1  UNL1        0.0391
     24 N          -1.7691  -17.8143   22.9886 N.pl3   1  UNL1       -0.3572
     25 H          -1.1285  -17.1383   23.3079 H       1  UNL1        0.1423
     26 H          -2.2795  -18.3531   23.6355 H       1  UNL1        0.1423
@<TRIPOS>BOND
     1     5     6    1
     2     6     7   ar
     3     7     8   ar
     4     8     9   ar
     5     9    10   ar
     6    10    11   ar
     7    11     1    1
     8     1     2    2
     9     1     3   am
    10     3    17    1
    11    17    18    1
    12    18    19   ar
    13    19    20   ar
    14    20    21   ar
    15    21    22   ar
    16    22    23   ar
    17    23    24    1
    18    11    12   ar
    19    12    13   ar
    20    13    14   ar
    21    14     6   ar
    22    13     8   ar
    23    23    18   ar
    24     5    15    1
    25     5    16    1
    26     3     4    1
    27    24    25    1
    28    24    26    1
@<TRIPOS>MOLECULE
*****
 26 28 0 0 0
SMALL
GASTEIGER

@<TRIPOS>ATOM
      1 C          -5.6876  -16.1405   23.8038 C.2     1  UNL1        0.2461
      2 O          -5.0510  -15.0335   24.5908 O.2     1  UNL1       -0.2701
      3 N          -4.8300  -17.1574   23.1109 N.am    1  UNL1       -0.2969
      4 H          -5.2478  -17.8840   22.5944 H       1  UNL1        0.1501
      5 N         -12.8703  -17.7489   21.0751 N.pl3   1  UNL1       -0.3375
      6 C         -11.6385  -17.3293   21.8213 C.ar    1  UNL1        0.1567
      7 N         -11.6064  -16.6404   23.1533 N.ar    1  UNL1       -0.2245
      8 C         -10.1707  -16.4103   23.5217 C.ar    1  UNL1        0.0892
      9 C          -9.5316  -15.7736   24.7201 C.ar    1  UNL1        0.0198
     10 C          -8.0373  -15.6836   24.8141 C.ar    1  UNL1        0.0061
     11 C          -7.1820  -16.2304   23.7098 C.ar    1  UNL1        0.0540
     12 C          -7.8211  -16.8671   22.5114 C.ar    1  UNL1        0.0126
     13 C          -9.3154  -16.9571   22.4174 C.ar    1  UNL1        0.0498
     14 S         -10.2226  -17.5251   21.3665 S.2     1  UNL1       -0.0520
     15 H         -13.7606  -17.5758   21.4580 H       1  UNL1        0.1442
     16 H         -12.7884  -18.1974   20.2026 H       1  UNL1        0.1442
     17 C          -3.3356  -17.0675   23.2050 C.3     1  UNL1        0.1178
     18 C          -2.4877  -17.4009   22.0135 C.ar    1  UNL1        0.0104
     19 C          -1.5799  -16.3621   21.4246 C.ar    1  UNL1       -0.0014
     20 C          -0.7320  -16.6955   20.2330 C.ar    1  UNL1       -0.0002
     21 C          -0.7918  -18.0679   19.6303 C.ar    1  UNL1        0.0012
     22 C          -1.6996  -19.1067   20.2192 C.ar    1  UNL1        0.0138
     23 C          -2.5475  -18.7732   21.4108 C.ar    1  UNL1        0.0391
     24 N          -3.4553  -19.8120   21.9997 N.pl3   1  UNL1       -0.3572
     25 H          -3.4946  -20.7127   21.6041 H       1  UNL1        0.1423
     26 H          -4.0118  -19.5931   22.7818 H       1  UNL1        0.1423
@<TRIPOS>BOND
     1     5     6    1
     2     6     7   ar
     3     7     8   ar
     4     8     9   ar
     5     9    10   ar
     6    10    11   ar
     7    11     1    1
     8     1     2    2
     9     1     3   am
    10     3    17    1
    11    17    18    1
    12    18    19   ar
    13    19    20   ar
    14    20    21   ar
    15    21    22   ar
    16    22    23   ar
    17    23    24    1
    18    11    12   ar
    19    12    13   ar
    20    13    14   ar
    21    14     6   ar
    22    13     8   ar
    23    23    18   ar
    24     5    15    1
    25     5    16    1
    26     3     4    1
    27    24    25    1
    28    24    26    1
@<TRIPOS>MOLECULE
*****
 26 28 0 0 0
SMALL
GASTEIGER

@<TRIPOS>ATOM
      1 C          -6.5938  -18.5007   22.5232 C.2     1  UNL1        0.2461
      2 O          -6.4550  -19.9542   22.1796 O.2     1  UNL1       -0.2701
      3 N          -5.3835  -17.7014   22.9052 N.am    1  UNL1       -0.2969
      4 H          -5.4746  -16.7474   23.1307 H       1  UNL1        0.1501
      5 N         -13.4449  -15.7688   19.8357 N.pl3   1  UNL1       -0.3375
      6 C         -12.2254  -16.1869   20.6024 C.ar    1  UNL1        0.1567
      7 N         -11.9828  -15.9602   22.0652 N.ar    1  UNL1       -0.2245
      8 C         -10.6417  -16.5383   22.4078 C.ar    1  UNL1        0.0892
      9 C          -9.8787  -16.6084   23.6973 C.ar    1  UNL1        0.0198
     10 C          -8.5295  -17.2625   23.7357 C.ar    1  UNL1        0.0061
     11 C          -7.9432  -17.8466   22.4847 C.ar    1  UNL1        0.0540
     12 C          -8.7062  -17.7765   21.1952 C.ar    1  UNL1        0.0126
     13 C         -10.0555  -17.1224   21.1568 C.ar    1  UNL1        0.0498
     14 S         -11.0342  -16.9052   20.0410 S.2     1  UNL1       -0.0520
     15 H         -14.1784  -15.2996   20.2952 H       1  UNL1        0.1442
     16 H         -13.5119  -15.9636   18.8730 H       1  UNL1        0.1442
     17 C          -4.0341  -18.3555   22.9437 C.3     1  UNL1        0.1178
     18 C          -3.0399  -18.0888   21.8526 C.ar    1  UNL1        0.0104
     19 C          -2.1539  -16.8806   21.9242 C.ar    1  UNL1       -0.0014
     20 C          -1.1597  -16.6138   20.8332 C.ar    1  UNL1       -0.0002
     21 C          -1.0516  -17.5554   19.6704 C.ar    1  UNL1        0.0012
     22 C          -1.9376  -18.7636   19.5988 C.ar    1  UNL1        0.0138
     23 C          -2.9318  -19.0303   20.6899 C.ar    1  UNL1        0.0391
     24 N          -3.8179  -20.2385   20.6183 N.pl3   1  UNL1       -0.3572
     25 H          -3.7469  -20.8564   19.8552 H       1  UNL1        0.1423
     26 H          -4.4704  -20.4136   21.3344 H       1  UNL1        0.1423
@<TRIPOS>BOND
     1     5     6    1
     2     6     7   ar
     3     7     8   ar
     4     8     9   ar
     5     9    10   ar
     6    10    11   ar
     7    11     1    1
     8     1     2    2
     9     1     3   am
    10     3    17    1
    11    17    18    1
    12    18    19   ar
    13    19    20   ar
    14    20    21   ar
    15    21    22   ar
    16    22    23   ar
    17    23    24    1
    18    11    12   ar
    19    12    13   ar
    20    13    14   ar
    21    14     6   ar
    22    13     8   ar
    23    23    18   ar
    24     5    15    1
    25     5    16    1
    26     3     4    1
    27    24    25    1
    28    24    26    1
@<TRIPOS>MOLECULE
*****
 26 28 0 0 0
SMALL
GASTEIGER

@<TRIPOS>ATOM
      1 C         -13.8624   -5.6441   19.6841 C.2     1  UNL1        0.2461
      2 O         -13.7661   -4.4896   20.6369 O.2     1  UNL1       -0.2701
      3 N         -12.6375   -6.1285   18.9665 N.am    1  UNL1       -0.2969
      4 H         -12.7008   -6.8863   18.3411 H       1  UNL1        0.1501
      5 N         -19.1976  -11.1534   18.0085 N.pl3   1  UNL1       -0.3375
      6 C         -18.4068   -9.9289   18.3625 C.ar    1  UNL1        0.1567
      7 N         -18.9716   -8.5775   18.6859 N.ar    1  UNL1       -0.2245
      8 C         -17.8262   -7.6542   18.9785 C.ar    1  UNL1        0.0892
      9 C         -17.7778   -6.2034   19.3564 C.ar    1  UNL1        0.0198
     10 C         -16.4565   -5.5334   19.5915 C.ar    1  UNL1        0.0061
     11 C         -15.1837   -6.3142   19.4489 C.ar    1  UNL1        0.0540
     12 C         -15.2322   -7.7650   19.0710 C.ar    1  UNL1        0.0126
     13 C         -16.5534   -8.4350   18.8358 C.ar    1  UNL1        0.0498
     14 S         -16.9122   -9.8408   18.4551 S.2     1  UNL1       -0.0520
     15 H         -20.1805  -11.1114   17.9734 H       1  UNL1        0.1442
     16 H         -18.7336  -11.9990   17.8112 H       1  UNL1        0.1442
     17 C         -11.3163   -5.4584   19.2017 C.3     1  UNL1        0.1178
     18 C         -10.7686   -4.5022   18.1841 C.ar    1  UNL1        0.0104
     19 C          -9.8932   -5.0069   17.0755 C.ar    1  UNL1       -0.0014
     20 C          -9.3455   -4.0506   16.0578 C.ar    1  UNL1       -0.0002
     21 C          -9.6733   -2.5896   16.1488 C.ar    1  UNL1        0.0012
     22 C         -10.5486   -2.0850   17.2574 C.ar    1  UNL1        0.0138
     23 C         -11.0963   -3.0413   18.2751 C.ar    1  UNL1        0.0391
     24 N         -11.9717   -2.5366   19.3837 N.pl3   1  UNL1       -0.3572
     25 H         -12.1868   -1.5778   19.4434 H       1  UNL1        0.1423
     26 H         -12.3311   -3.1643   20.0516 H       1  UNL1        0.1423
@<TRIPOS>BOND
     1     5     6    1
     2     6     7   ar
     3     7     8   ar
     4     8     9   ar
     5     9    10   ar
     6    10    11   ar
     7    11     1    1
     8     1     2    2
     9     1     3   am
    10     3    17    1
    11    17    18    1
    12    18    19   ar
    13    19    20   ar
    14    20    21   ar
    15    21    22   ar
    16    22    23   ar
    17    23    24    1
    18    11    12   ar
    19    12    13   ar
    20    13    14   ar
    21    14     6   ar
    22    13     8   ar
    23    23    18   ar
    24     5    15    1
    25     5    16    1
    26     3     4    1
    27    24    25    1
    28    24    26    1
