@<TRIPOS>MOLECULE
*****
 30 34 0 0 0
SMALL
GASTEIGER

@<TRIPOS>ATOM
      1 C           0.3396    2.0044   22.5156 C.2     1  UNL1        0.1012
      2 C          -0.4576    3.0576   21.8049 C.2     1  UNL1        0.1182
      3 CL         -0.4399    3.1281   20.3065 Cl      1  UNL1       -0.0771
      4 C          -1.2724    4.0404   22.5923 C.2     1  UNL1        0.2481
      5 N          -1.2902    3.9700   24.0906 N.2     1  UNL1       -0.0293
      6 C          -0.4930    2.9167   24.8013 C.2     1  UNL1        0.4105
      7 N          -0.3168    2.6034   26.2576 N.2     1  UNL1        0.0121
      8 C           0.6069    1.4270   26.3701 C.2     1  UNL1        0.3778
      9 N           1.0017    1.0132   24.9834 N.2     1  UNL1       -0.0450
     10 C           0.3219    1.9339   24.0138 C.3     1  UNL1        0.3609
     11 C           1.0569    0.7782   27.6455 C.ar    1  UNL1        0.1220
     12 C           2.4780    0.6082   28.0945 C.ar    1  UNL1        0.1040
     13 N           2.4643   -0.0895   29.4223 N.ar    1  UNL1       -0.2474
     14 C           3.6687   -0.4609   30.2357 C.3     1  UNL1        0.1538
     15 N           1.0347   -0.3508   29.7939 N.ar    1  UNL1       -0.1733
     16 C           0.1649    0.1855   28.6957 C.ar    1  UNL1        0.0879
     17 C          -1.3338    0.1375   28.6550 C.3     1  UNL1        0.0542
     18 N           2.7842   -0.9440   20.1531 N.3     1  UNL1       -0.2632
     19 C           3.4589   -0.0074   21.1112 C.3     1  UNL1        0.0941
     20 C           2.6441    0.9753   21.8986 C.3     1  UNL1        0.1080
     21 N           1.1544    1.0216   21.7281 N.pl3   1  UNL1       -0.3034
     22 C           0.4797    0.0851   20.7701 C.3     1  UNL1        0.1080
     23 C           1.2947   -0.8976   19.9826 C.3     1  UNL1        0.0941
     24 C           3.5991   -1.9267   19.3657 C.3     1  UNL1        0.1424
     25 C           6.5999    1.1869   16.3355 C.3     1  UNL1        0.0978
     26 C           6.0758   -0.0095   17.0730 C.ar    1  UNL1        0.2368
     27 N           4.8410   -0.0495   17.9238 N.ar    1  UNL1       -0.1934
     28 C           4.6964   -1.4406   18.4659 C.ar    1  UNL1        0.1966
     29 N           5.8419   -2.2604   17.9502 N.ar    1  UNL1       -0.0592
     30 O           6.6943   -1.3759   17.0894 O.2     1  UNL1       -0.3373
@<TRIPOS>BOND
     1    25    26    1
     2    26    27   ar
     3    27    28   ar
     4    28    24    1
     5    24    18    1
     6    18    19    1
     7    19    20    1
     8    20    21    1
     9    21     1    1
    10     1     2    2
    11     2     3    1
    12     2     4    1
    13     4     5    2
    14     5     6    1
    15     6     7    2
    16     7     8    1
    17     8    11    1
    18    11    12   ar
    19    12    13   ar
    20    13    14    1
    21    13    15   ar
    22    15    16   ar
    23    16    17    1
    24     8     9    2
    25     9    10    1
    26    21    22    1
    27    22    23    1
    28    28    29   ar
    29    29    30   ar
    30    30    26   ar
    31    23    18    1
    32    10     1    1
    33    10     6    1
    34    16    11   ar
@<TRIPOS>MOLECULE
*****
 30 34 0 0 0
SMALL
GASTEIGER

@<TRIPOS>ATOM
      1 C           3.5476    0.1828   32.2859 C.2     1  UNL1        0.1012
      2 C           2.5768    0.4831   31.1826 C.2     1  UNL1        0.1182
      3 CL          2.6850   -0.2378   29.8716 Cl      1  UNL1       -0.0771
      4 C           1.4980    1.5043   31.3901 C.2     1  UNL1        0.2481
      5 N           1.3899    2.2253   32.7011 N.2     1  UNL1       -0.0293
      6 C           2.3606    1.9249   33.8045 C.2     1  UNL1        0.4105
      7 N           2.5009    2.4714   35.1943 N.2     1  UNL1        0.0121
      8 C           3.6664    1.7879   35.8457 C.2     1  UNL1        0.3778
      9 N           4.2465    0.8190   34.8584 N.2     1  UNL1       -0.0450
     10 C           3.4395    0.9036   33.5969 C.3     1  UNL1        0.3609
     11 C           4.1645    2.0307   37.2396 C.ar    1  UNL1        0.1220
     12 C           5.4804    2.6478   37.6107 C.ar    1  UNL1        0.1040
     13 N           5.5633    2.6975   39.1075 N.ar    1  UNL1       -0.2474
     14 C           6.7095    3.2386   39.9096 C.3     1  UNL1        0.1538
     15 N           4.2986    2.1112   39.6616 N.ar    1  UNL1       -0.1733
     16 C           3.4341    1.6991   38.5071 C.ar    1  UNL1        0.0879
     17 C           2.0775    1.0664   38.6033 C.3     1  UNL1        0.0542
     18 N           6.7841   -2.8812   31.6632 N.3     1  UNL1       -0.2632
     19 C           5.5884   -3.2138   32.5057 C.3     1  UNL1        0.0941
     20 C           4.5096   -2.1926   32.7132 C.3     1  UNL1        0.1080
     21 N           4.6264   -0.8385   32.0783 N.pl3   1  UNL1       -0.3034
     22 C           5.8220   -0.5058   31.2358 C.3     1  UNL1        0.1080
     23 C           6.9008   -1.5272   31.0283 C.3     1  UNL1        0.0941
     24 C           7.8628   -3.9024   31.4556 C.3     1  UNL1        0.1424
     25 C           6.6399   -6.0728   26.7999 C.3     1  UNL1        0.0978
     26 C           7.2081   -5.8673   28.1729 C.ar    1  UNL1        0.2368
     27 N           7.0369   -4.6439   29.0239 N.ar    1  UNL1       -0.1934
     28 C           7.7701   -4.8697   30.3128 C.ar    1  UNL1        0.1966
     29 N           8.3945   -6.2325   30.2584 N.ar    1  UNL1       -0.0592
     30 O           8.0471   -6.8491   28.9359 O.2     1  UNL1       -0.3373
@<TRIPOS>BOND
     1    25    26    1
     2    26    27   ar
     3    27    28   ar
     4    28    24    1
     5    24    18    1
     6    18    19    1
     7    19    20    1
     8    20    21    1
     9    21     1    1
    10     1     2    2
    11     2     3    1
    12     2     4    1
    13     4     5    2
    14     5     6    1
    15     6     7    2
    16     7     8    1
    17     8    11    1
    18    11    12   ar
    19    12    13   ar
    20    13    14    1
    21    13    15   ar
    22    15    16   ar
    23    16    17    1
    24     8     9    2
    25     9    10    1
    26    21    22    1
    27    22    23    1
    28    28    29   ar
    29    29    30   ar
    30    30    26   ar
    31    23    18    1
    32    10     1    1
    33    10     6    1
    34    16    11   ar
@<TRIPOS>MOLECULE
*****
 30 34 0 0 0
SMALL
GASTEIGER

@<TRIPOS>ATOM
      1 C           4.9594   -0.5422   30.9104 C.2     1  UNL1        0.1012
      2 C           6.0582   -1.5269   30.6400 C.2     1  UNL1        0.1182
      3 CL          7.0644   -1.8397   31.7077 Cl      1  UNL1       -0.0771
      4 C           6.1507   -2.1988   29.3022 C.2     1  UNL1        0.2481
      5 N           5.1445   -1.8860   28.2345 N.2     1  UNL1       -0.0293
      6 C           4.0458   -0.9012   28.5049 C.2     1  UNL1        0.4105
      7 N           2.9186   -0.3964   27.6537 N.2     1  UNL1        0.0121
      8 C           2.1294    0.5875   28.4655 C.2     1  UNL1        0.3778
      9 N           2.7688    0.6908   29.8185 N.2     1  UNL1       -0.0450
     10 C           3.9532   -0.2293   29.8428 C.3     1  UNL1        0.3609
     11 C           0.9141    1.3367   28.0053 C.ar    1  UNL1        0.1220
     12 C           0.9072    2.6769   27.3317 C.ar    1  UNL1        0.1040
     13 N          -0.5188    3.0457   27.0479 N.ar    1  UNL1       -0.2474
     14 C          -0.9880    4.3056   26.3828 C.3     1  UNL1        0.1538
     15 N          -1.3932    1.9334   27.5461 N.ar    1  UNL1       -0.1733
     16 C          -0.5076    0.8771   28.1378 C.ar    1  UNL1        0.0879
     17 C          -0.9636   -0.4123   28.7538 C.3     1  UNL1        0.0542
     18 N           4.6819    1.4736   34.9241 N.3     1  UNL1       -0.2632
     19 C           5.3312    2.1820   33.7723 C.3     1  UNL1        0.0941
     20 C           5.4237    1.5101   32.4344 C.3     1  UNL1        0.1080
     21 N           4.8669    0.1297   32.2483 N.pl3   1  UNL1       -0.3034
     22 C           4.2177   -0.5787   33.4000 C.3     1  UNL1        0.1080
     23 C           4.1252    0.0933   34.7380 C.3     1  UNL1        0.0941
     24 C           4.5894    2.1455   36.2619 C.3     1  UNL1        0.1424
     25 C           1.1937    0.1680   39.7890 C.3     1  UNL1        0.0978
     26 C           1.8113    1.0418   38.7377 C.ar    1  UNL1        0.2368
     27 N           3.1621    0.8504   38.1142 N.ar    1  UNL1       -0.1934
     28 C           3.3721    1.9507   37.1166 C.ar    1  UNL1        0.1966
     29 N           2.1511    2.8220   37.1235 N.ar    1  UNL1       -0.0592
     30 O           1.1865    2.2603   38.1254 O.2     1  UNL1       -0.3373
@<TRIPOS>BOND
     1    25    26    1
     2    26    27   ar
     3    27    28   ar
     4    28    24    1
     5    24    18    1
     6    18    19    1
     7    19    20    1
     8    20    21    1
     9    21     1    1
    10     1     2    2
    11     2     3    1
    12     2     4    1
    13     4     5    2
    14     5     6    1
    15     6     7    2
    16     7     8    1
    17     8    11    1
    18    11    12   ar
    19    12    13   ar
    20    13    14    1
    21    13    15   ar
    22    15    16   ar
    23    16    17    1
    24     8     9    2
    25     9    10    1
    26    21    22    1
    27    22    23    1
    28    28    29   ar
    29    29    30   ar
    30    30    26   ar
    31    23    18    1
    32    10     1    1
    33    10     6    1
    34    16    11   ar
@<TRIPOS>MOLECULE
*****
 30 34 0 0 0
SMALL
GASTEIGER

@<TRIPOS>ATOM
      1 C          -0.2782    2.5425   22.8296 C.2     1  UNL1        0.1012
      2 C          -1.3757    3.3718   22.2317 C.2     1  UNL1        0.1182
      3 CL         -1.3928    3.6420   20.7562 Cl      1  UNL1       -0.0771
      4 C          -2.4561    3.9311   23.1090 C.2     1  UNL1        0.2481
      5 N          -2.4390    3.6609   24.5845 N.2     1  UNL1       -0.0293
      6 C          -1.3415    2.8316   25.1824 C.2     1  UNL1        0.4105
      7 N          -1.0633    2.4007   26.5920 N.2     1  UNL1        0.0121
      8 C           0.1890    1.5751   26.5857 C.2     1  UNL1        0.3778
      9 N           0.6849    1.4958   25.1722 N.2     1  UNL1       -0.0450
     10 C          -0.2610    2.2723   24.3049 C.3     1  UNL1        0.3609
     11 C           0.8326    0.9403   27.7827 C.ar    1  UNL1        0.1220
     12 C           2.2592    1.1137   28.2124 C.ar    1  UNL1        0.1040
     13 N           2.4709    0.3012   29.4554 N.ar    1  UNL1       -0.2474
     14 C           3.7532    0.1846   30.2249 C.3     1  UNL1        0.1538
     15 N           1.1751   -0.3743   29.7940 N.ar    1  UNL1       -0.1733
     16 C           0.1625    0.0208   28.7601 C.ar    1  UNL1        0.0879
     17 C          -1.2688   -0.4255   28.7122 C.3     1  UNL1        0.0542
     18 N           2.9631    0.8647   20.1971 N.3     1  UNL1       -0.2632
     19 C           1.6709    0.1210   20.3622 C.3     1  UNL1        0.0941
     20 C           0.5905    0.6803   21.2396 C.3     1  UNL1        0.1080
     21 N           0.8023    1.9832   21.9521 N.pl3   1  UNL1       -0.3034
     22 C           2.0945    2.7269   21.7871 C.3     1  UNL1        0.1080
     23 C           3.1749    2.1676   20.9096 C.3     1  UNL1        0.0941
     24 C           4.0435    0.3055   19.3197 C.3     1  UNL1        0.1424
     25 C           4.3965   -4.9457   18.8929 C.3     1  UNL1        0.0978
     26 C           4.6586   -3.5269   19.3032 C.ar    1  UNL1        0.2368
     27 N           3.8974   -2.3202   18.8402 N.ar    1  UNL1       -0.1934
     28 C           4.4964   -1.1133   19.4994 C.ar    1  UNL1        0.1966
     29 N           5.6278   -1.5741   20.3698 N.ar    1  UNL1       -0.0592
     30 O           5.7280   -3.0658   20.2485 O.2     1  UNL1       -0.3373
@<TRIPOS>BOND
     1    25    26    1
     2    26    27   ar
     3    27    28   ar
     4    28    24    1
     5    24    18    1
     6    18    19    1
     7    19    20    1
     8    20    21    1
     9    21     1    1
    10     1     2    2
    11     2     3    1
    12     2     4    1
    13     4     5    2
    14     5     6    1
    15     6     7    2
    16     7     8    1
    17     8    11    1
    18    11    12   ar
    19    12    13   ar
    20    13    14    1
    21    13    15   ar
    22    15    16   ar
    23    16    17    1
    24     8     9    2
    25     9    10    1
    26    21    22    1
    27    22    23    1
    28    28    29   ar
    29    29    30   ar
    30    30    26   ar
    31    23    18    1
    32    10     1    1
    33    10     6    1
    34    16    11   ar
@<TRIPOS>MOLECULE
*****
 30 34 0 0 0
SMALL
GASTEIGER

@<TRIPOS>ATOM
      1 C           3.9886    0.2672   33.1008 C.2     1  UNL1        0.1012
      2 C           3.9564    0.8087   34.4993 C.2     1  UNL1        0.1182
      3 CL          4.9355    0.3087   35.5199 Cl      1  UNL1       -0.0771
      4 C           2.9453    1.8501   34.8772 C.2     1  UNL1        0.2481
      5 N           1.9662    2.3501   33.8566 N.2     1  UNL1       -0.0293
      6 C           1.9984    1.8086   32.4581 C.2     1  UNL1        0.4105
      7 N           1.1660    2.1076   31.2467 N.2     1  UNL1        0.0121
      8 C           1.6628    1.2509   30.1200 C.2     1  UNL1        0.3778
      9 N           2.8022    0.4224   30.6352 N.2     1  UNL1       -0.0450
     10 C           3.0096    0.7671   32.0803 C.3     1  UNL1        0.3609
     11 C           1.1161    1.2269   28.7234 C.ar    1  UNL1        0.1220
     12 C           1.8580    1.6172   27.4795 C.ar    1  UNL1        0.1040
     13 N           0.9320    1.4399   26.3127 N.ar    1  UNL1       -0.2474
     14 C           1.2622    1.7143   24.8755 C.3     1  UNL1        0.1538
     15 N          -0.3821    0.9400   26.8356 N.ar    1  UNL1       -0.1733
     16 C          -0.2683    0.8084   28.3255 C.ar    1  UNL1        0.0879
     17 C          -1.3491    0.3405   29.2544 C.3     1  UNL1        0.0542
     18 N           7.0222   -2.8574   31.9673 N.3     1  UNL1       -0.2632
     19 C           5.7274   -3.2657   32.6053 C.3     1  UNL1        0.0941
     20 C           4.7163   -2.2242   32.9831 C.3     1  UNL1        0.1080
     21 N           4.9998   -0.7743   32.7230 N.pl3   1  UNL1       -0.3034
     22 C           6.2945   -0.3660   32.0850 C.3     1  UNL1        0.1080
     23 C           7.3057   -1.4076   31.7072 C.3     1  UNL1        0.0941
     24 C           8.0333   -3.8988   31.5894 C.3     1  UNL1        0.1424
     25 C           8.4583   -7.8326   28.0929 C.3     1  UNL1        0.0978
     26 C           7.9788   -6.6027   28.8052 C.ar    1  UNL1        0.2368
     27 N           8.5748   -6.0165   30.0507 N.ar    1  UNL1       -0.1934
     28 C           7.7835   -4.7946   30.4124 C.ar    1  UNL1        0.1966
     29 N           6.6985   -4.6257   29.3905 N.ar    1  UNL1       -0.0592
     30 O           6.8193   -5.7432   28.3972 O.2     1  UNL1       -0.3373
@<TRIPOS>BOND
     1    25    26    1
     2    26    27   ar
     3    27    28   ar
     4    28    24    1
     5    24    18    1
     6    18    19    1
     7    19    20    1
     8    20    21    1
     9    21     1    1
    10     1     2    2
    11     2     3    1
    12     2     4    1
    13     4     5    2
    14     5     6    1
    15     6     7    2
    16     7     8    1
    17     8    11    1
    18    11    12   ar
    19    12    13   ar
    20    13    14    1
    21    13    15   ar
    22    15    16   ar
    23    16    17    1
    24     8     9    2
    25     9    10    1
    26    21    22    1
    27    22    23    1
    28    28    29   ar
    29    29    30   ar
    30    30    26   ar
    31    23    18    1
    32    10     1    1
    33    10     6    1
    34    16    11   ar
@<TRIPOS>MOLECULE
*****
 30 34 0 0 0
SMALL
GASTEIGER

@<TRIPOS>ATOM
      1 C           6.6393   -2.2869   20.2629 C.2     1  UNL1        0.1012
      2 C           7.5281   -1.8764   19.1265 C.2     1  UNL1        0.1182
      3 CL          6.9687   -1.0750   17.9885 Cl      1  UNL1       -0.0771
      4 C           8.9763   -2.2671   19.1280 C.2     1  UNL1        0.2481
      5 N           9.5357   -3.0685   20.2661 N.2     1  UNL1       -0.0293
      6 C           8.6469   -3.4790   21.4024 C.2     1  UNL1        0.4105
      7 N           8.9135   -4.2651   22.6518 N.2     1  UNL1        0.0121
      8 C           7.6301   -4.3602   23.4223 C.2     1  UNL1        0.3778
      9 N           6.5702   -3.6328   22.6492 N.2     1  UNL1       -0.0450
     10 C           7.1986   -3.0882   21.4009 C.3     1  UNL1        0.3609
     11 C           7.4398   -5.0599   24.7354 C.ar    1  UNL1        0.1220
     12 C           6.8636   -4.4551   25.9813 C.ar    1  UNL1        0.1040
     13 N           6.8601   -5.5086   27.0491 N.ar    1  UNL1       -0.2474
     14 C           6.3688   -5.3364   28.4559 C.3     1  UNL1        0.1538
     15 N           7.4341   -6.7645   26.4632 N.ar    1  UNL1       -0.1733
     16 C           7.7924   -6.4871   25.0332 C.ar    1  UNL1        0.0879
     17 C           8.3971   -7.4653   24.0701 C.3     1  UNL1        0.0542
     18 N           2.2946   -1.1146   20.2581 N.3     1  UNL1       -0.2632
     19 C           2.7510   -2.3055   19.4685 C.3     1  UNL1        0.0941
     20 C           4.1992   -2.6963   19.4701 C.3     1  UNL1        0.1080
     21 N           5.1911   -1.8961   20.2613 N.pl3   1  UNL1       -0.3034
     22 C           4.7348   -0.7051   21.0508 C.3     1  UNL1        0.1080
     23 C           3.2865   -0.3144   21.0492 C.3     1  UNL1        0.0941
     24 C           0.8465   -0.7238   20.2564 C.3     1  UNL1        0.1424
     25 C           0.1265    3.7622   17.5659 C.3     1  UNL1        0.0978
     26 C           0.1172    2.7398   18.6635 C.ar    1  UNL1        0.2368
     27 N           0.6703    1.3481   18.5768 N.ar    1  UNL1       -0.1934
     28 C           0.4482    0.6778   19.9001 C.ar    1  UNL1        0.1966
     29 N          -0.2422    1.6551   20.8047 N.ar    1  UNL1       -0.0592
     30 O          -0.4467    2.9295   20.0404 O.2     1  UNL1       -0.3373
@<TRIPOS>BOND
     1    25    26    1
     2    26    27   ar
     3    27    28   ar
     4    28    24    1
     5    24    18    1
     6    18    19    1
     7    19    20    1
     8    20    21    1
     9    21     1    1
    10     1     2    2
    11     2     3    1
    12     2     4    1
    13     4     5    2
    14     5     6    1
    15     6     7    2
    16     7     8    1
    17     8    11    1
    18    11    12   ar
    19    12    13   ar
    20    13    14    1
    21    13    15   ar
    22    15    16   ar
    23    16    17    1
    24     8     9    2
    25     9    10    1
    26    21    22    1
    27    22    23    1
    28    28    29   ar
    29    29    30   ar
    30    30    26   ar
    31    23    18    1
    32    10     1    1
    33    10     6    1
    34    16    11   ar
@<TRIPOS>MOLECULE
*****
 30 34 0 0 0
SMALL
GASTEIGER

@<TRIPOS>ATOM
      1 C           8.3300   -6.1172   27.3061 C.2     1  UNL1        0.1012
      2 C           9.0624   -7.4188   27.4451 C.2     1  UNL1        0.1182
      3 CL          9.5334   -7.8739   28.7946 Cl      1  UNL1       -0.0771
      4 C           9.3236   -8.2653   26.2348 C.2     1  UNL1        0.2481
      5 N           8.8525   -7.8102   24.8853 N.2     1  UNL1       -0.0293
      6 C           8.1202   -6.5086   24.7463 C.2     1  UNL1        0.4105
      7 N           7.5401   -5.8056   23.5549 N.2     1  UNL1        0.0121
      8 C           6.9204   -4.5246   24.0291 C.2     1  UNL1        0.3778
      9 N           7.1174   -4.4358   25.5134 N.2     1  UNL1       -0.0450
     10 C           7.8589   -5.6620   25.9567 C.3     1  UNL1        0.3609
     11 C           6.2255   -3.5103   23.1697 C.ar    1  UNL1        0.1220
     12 C           4.8399   -2.9762   23.3815 C.ar    1  UNL1        0.1040
     13 N           4.5523   -1.9879   22.2904 N.ar    1  UNL1       -0.2474
     14 C           3.2802   -1.2124   22.1160 C.3     1  UNL1        0.1538
     15 N           5.7602   -1.9110   21.4043 N.ar    1  UNL1       -0.1733
     16 C           6.7944   -2.8520   21.9478 C.ar    1  UNL1        0.0879
     17 C           8.1579   -3.0924   21.3707 C.3     1  UNL1        0.0542
     18 N           7.5463   -3.5774   30.9374 N.3     1  UNL1       -0.2632
     19 C           8.6725   -3.2314   30.0089 C.3     1  UNL1        0.0941
     20 C           8.9337   -4.0779   28.7986 C.3     1  UNL1        0.1080
     21 N           8.0687   -5.2706   28.5165 N.pl3   1  UNL1       -0.3034
     22 C           6.9426   -5.6167   29.4449 C.3     1  UNL1        0.1080
     23 C           6.6814   -4.7701   30.6553 C.3     1  UNL1        0.0941
     24 C           7.2851   -2.7309   32.1477 C.3     1  UNL1        0.1424
     25 C           3.0492    0.4121   31.9016 C.3     1  UNL1        0.0978
     26 C           3.9719   -0.7124   32.2679 C.ar    1  UNL1        0.2368
     27 N           5.3672   -0.9110   31.7541 N.ar    1  UNL1       -0.1934
     28 C           5.9189   -2.1570   32.3810 C.ar    1  UNL1        0.1966
     29 N           4.8647   -2.7285   33.2822 N.ar    1  UNL1       -0.0592
     30 O           3.6614   -1.8357   33.2123 O.2     1  UNL1       -0.3373
@<TRIPOS>BOND
     1    25    26    1
     2    26    27   ar
     3    27    28   ar
     4    28    24    1
     5    24    18    1
     6    18    19    1
     7    19    20    1
     8    20    21    1
     9    21     1    1
    10     1     2    2
    11     2     3    1
    12     2     4    1
    13     4     5    2
    14     5     6    1
    15     6     7    2
    16     7     8    1
    17     8    11    1
    18    11    12   ar
    19    12    13   ar
    20    13    14    1
    21    13    15   ar
    22    15    16   ar
    23    16    17    1
    24     8     9    2
    25     9    10    1
    26    21    22    1
    27    22    23    1
    28    28    29   ar
    29    29    30   ar
    30    30    26   ar
    31    23    18    1
    32    10     1    1
    33    10     6    1
    34    16    11   ar
@<TRIPOS>MOLECULE
*****
 30 34 0 0 0
SMALL
GASTEIGER

@<TRIPOS>ATOM
      1 C           2.6235    0.3753   27.2219 C.2     1  UNL1        0.1012
      2 C           3.2040    0.0350   28.5624 C.2     1  UNL1        0.1182
      3 CL          2.6670    0.6902   29.8004 Cl      1  UNL1       -0.0771
      4 C           4.3213   -0.9604   28.6651 C.2     1  UNL1        0.2481
      5 N           4.8583   -1.6155   27.4271 N.2     1  UNL1       -0.0293
      6 C           4.2778   -1.2752   26.0865 C.2     1  UNL1        0.4105
      7 N           4.5991   -1.7557   24.7024 N.2     1  UNL1        0.0121
      8 C           3.6803   -1.0572   23.7443 C.2     1  UNL1        0.3778
      9 N           2.7911   -0.1451   24.5363 N.2     1  UNL1       -0.0450
     10 C           3.1603   -0.2798   25.9839 C.3     1  UNL1        0.3609
     11 C           3.6551   -1.2390   22.2556 C.ar    1  UNL1        0.1220
     12 C           3.2290   -0.2117   21.2491 C.ar    1  UNL1        0.1040
     13 N           3.3622   -0.8177   19.8834 N.ar    1  UNL1       -0.2474
     14 C           3.0430   -0.1408   18.5835 C.3     1  UNL1        0.1538
     15 N           3.8706   -2.2196   20.0459 N.ar    1  UNL1       -0.1733
     16 C           4.0516   -2.4799   21.5120 C.ar    1  UNL1        0.0879
     17 C           4.5429   -3.7570   22.1266 C.3     1  UNL1        0.0542
     18 N          -0.7288    3.3616   26.9140 N.3     1  UNL1       -0.2632
     19 C          -1.0256    1.9348   27.2694 C.3     1  UNL1        0.0941
     20 C           0.0917    0.9394   27.3720 C.3     1  UNL1        0.1080
     21 N           1.5061    1.3708   27.1192 N.pl3   1  UNL1       -0.3034
     22 C           1.8029    2.7975   26.7639 C.3     1  UNL1        0.1080
     23 C           0.6854    3.7929   26.6613 C.3     1  UNL1        0.0941
     24 C          -1.8462    4.3570   26.8114 C.3     1  UNL1        0.1424
     25 C          -5.0887    3.1057   22.8362 C.3     1  UNL1        0.0978
     26 C          -4.5720    3.4448   24.2030 C.ar    1  UNL1        0.2368
     27 N          -3.1432    3.7304   24.5596 N.ar    1  UNL1       -0.1934
     28 C          -3.0816    4.0199   26.0301 C.ar    1  UNL1        0.1966
     29 N          -4.4722    3.9132   26.5823 N.ar    1  UNL1       -0.0592
     30 O          -5.3933    3.5577   25.4531 O.2     1  UNL1       -0.3373
@<TRIPOS>BOND
     1    25    26    1
     2    26    27   ar
     3    27    28   ar
     4    28    24    1
     5    24    18    1
     6    18    19    1
     7    19    20    1
     8    20    21    1
     9    21     1    1
    10     1     2    2
    11     2     3    1
    12     2     4    1
    13     4     5    2
    14     5     6    1
    15     6     7    2
    16     7     8    1
    17     8    11    1
    18    11    12   ar
    19    12    13   ar
    20    13    14    1
    21    13    15   ar
    22    15    16   ar
    23    16    17    1
    24     8     9    2
    25     9    10    1
    26    21    22    1
    27    22    23    1
    28    28    29   ar
    29    29    30   ar
    30    30    26   ar
    31    23    18    1
    32    10     1    1
    33    10     6    1
    34    16    11   ar
@<TRIPOS>MOLECULE
*****
 30 34 0 0 0
SMALL
GASTEIGER

@<TRIPOS>ATOM
      1 C           6.4867   -3.5181   24.9091 C.2     1  UNL1        0.1012
      2 C           7.0488   -4.6448   25.7244 C.2     1  UNL1        0.1182
      3 CL          6.9265   -4.6225   27.2193 Cl      1  UNL1       -0.0771
      4 C           7.7331   -5.7936   25.0449 C.2     1  UNL1        0.2481
      5 N           7.8554   -5.8158   23.5500 N.2     1  UNL1       -0.0293
      6 C           7.2933   -4.6892   22.7347 C.2     1  UNL1        0.4105
      7 N           7.2633   -4.4378   21.2562 N.2     1  UNL1        0.0121
      8 C           6.5604   -3.1335   21.0221 C.2     1  UNL1        0.3778
      9 N           6.1560   -2.5788   22.3558 N.2     1  UNL1       -0.0450
     10 C           6.6090   -3.5403   23.4143 C.3     1  UNL1        0.3609
     11 C           6.3064   -2.4958   19.6883 C.ar    1  UNL1        0.1220
     12 C           6.8700   -1.1891   19.2142 C.ar    1  UNL1        0.1040
     13 N           6.3562   -0.9385   17.8274 N.ar    1  UNL1       -0.2474
     14 C           6.6687    0.2544   16.9735 C.3     1  UNL1        0.1538
     15 N           5.4751   -2.0905   17.4443 N.ar    1  UNL1       -0.1733
     16 C           5.4444   -3.0530   18.5945 C.ar    1  UNL1        0.0879
     17 C           4.6849   -4.3456   18.6424 C.3     1  UNL1        0.0542
     18 N           4.4337   -0.0715   26.9479 N.3     1  UNL1       -0.2632
     19 C           5.8585   -0.4002   27.2828 C.3     1  UNL1        0.0941
     20 C           6.5428   -1.5490   26.6032 C.3     1  UNL1        0.1080
     21 N           5.8024   -2.3692   25.5887 N.pl3   1  UNL1       -0.3034
     22 C           4.3777   -2.0405   25.2538 C.3     1  UNL1        0.1080
     23 C           3.6934   -0.8916   25.9334 C.3     1  UNL1        0.0941
     24 C           3.7495    1.0773   27.6274 C.3     1  UNL1        0.1424
     25 C          -1.2813    0.2405   28.9961 C.3     1  UNL1        0.0978
     26 C           0.2016    0.4532   29.0728 C.ar    1  UNL1        0.2368
     27 N           1.1225    0.6710   27.9089 N.ar    1  UNL1       -0.1934
     28 C           2.5139    0.8379   28.4437 C.ar    1  UNL1        0.1966
     29 N           2.4531    0.7232   29.9381 N.ar    1  UNL1       -0.0592
     30 O           1.0240    0.4855   30.3269 O.2     1  UNL1       -0.3373
@<TRIPOS>BOND
     1    25    26    1
     2    26    27   ar
     3    27    28   ar
     4    28    24    1
     5    24    18    1
     6    18    19    1
     7    19    20    1
     8    20    21    1
     9    21     1    1
    10     1     2    2
    11     2     3    1
    12     2     4    1
    13     4     5    2
    14     5     6    1
    15     6     7    2
    16     7     8    1
    17     8    11    1
    18    11    12   ar
    19    12    13   ar
    20    13    14    1
    21    13    15   ar
    22    15    16   ar
    23    16    17    1
    24     8     9    2
    25     9    10    1
    26    21    22    1
    27    22    23    1
    28    28    29   ar
    29    29    30   ar
    30    30    26   ar
    31    23    18    1
    32    10     1    1
    33    10     6    1
    34    16    11   ar
