@<TRIPOS>MOLECULE
*****
 26 29 0 0 0
SMALL
GASTEIGER

@<TRIPOS>ATOM
      1 C          -8.4779  -17.0821   23.9321 C.ar    1  UNL1        0.0686
      2 C          -7.4397  -17.5098   22.9376 C.ar    1  UNL1        0.1144
      3 N          -6.1046  -17.0322   23.4269 N.ar    1  UNL1       -0.2064
      4 C          -6.3177  -16.3093   24.7238 C.ar    1  UNL1        0.0838
      5 C          -5.3656  -15.6270   25.6607 C.ar    1  UNL1        0.0190
      6 C          -5.8803  -14.9755   26.9099 C.ar    1  UNL1        0.0015
      7 C          -7.3472  -15.0063   27.2222 C.ar    1  UNL1        0.0001
      8 C          -8.2992  -15.6886   26.2852 C.ar    1  UNL1        0.0028
      9 C          -7.7845  -16.3401   25.0361 C.ar    1  UNL1        0.0324
     10 C         -14.3702  -18.1512   23.5600 C.3     1  UNL1        0.0897
     11 N         -12.8972  -17.8840   23.6530 N.3     1  UNL1       -0.2686
     12 C         -12.2853  -16.7698   22.8567 C.3     1  UNL1        0.0938
     13 C         -10.8122  -16.5025   22.9498 C.3     1  UNL1        0.1082
     14 N          -9.9510  -17.3494   23.8391 N.pl3   1  UNL1       -0.3034
     15 C         -10.5629  -18.4637   24.6354 C.3     1  UNL1        0.1082
     16 C         -12.0359  -18.7309   24.5424 C.3     1  UNL1        0.0938
     17 S          -4.7876  -17.2409   22.7399 S.O2    1  UNL1        0.0860
     18 O          -4.4333  -15.8038   22.9826 O.2     1  UNL1       -0.1476
     19 O          -5.1419  -18.6781   22.4971 O.2     1  UNL1       -0.1476
     20 C          -3.4706  -17.4497   22.0529 C.ar    1  UNL1        0.1278
     21 C          -2.5373  -16.2926   21.8528 C.ar    1  UNL1        0.0227
     22 C          -1.2204  -16.5014   21.1658 C.ar    1  UNL1        0.0310
     23 C          -0.8367  -17.8674   20.6788 C.ar    1  UNL1        0.1402
     24 F           0.4803  -18.0761   19.9918 F       1  UNL1       -0.2042
     25 C          -1.7700  -19.0244   20.8789 C.ar    1  UNL1        0.0310
     26 C          -3.0870  -18.8156   21.5659 C.ar    1  UNL1        0.0227
@<TRIPOS>BOND
     1    10    11    1
     2    11    12    1
     3    12    13    1
     4    13    14    1
     5    14     1    1
     6     1     2   ar
     7     2     3   ar
     8     3    17    1
     9    17    18    2
    10    17    19    2
    11    17    20    1
    12    20    21   ar
    13    21    22   ar
    14    22    23   ar
    15    23    24    1
    16    23    25   ar
    17    25    26   ar
    18     3     4   ar
    19     4     5   ar
    20     5     6   ar
    21     6     7   ar
    22     7     8   ar
    23     8     9   ar
    24    14    15    1
    25    15    16    1
    26    16    11    1
    27     9     1   ar
    28    26    20   ar
    29     9     4   ar
@<TRIPOS>MOLECULE
*****
 26 29 0 0 0
SMALL
GASTEIGER

@<TRIPOS>ATOM
      1 C          -5.5684  -17.0867   23.1236 C.ar    1  UNL1        0.0686
      2 C          -6.9265  -17.5859   22.7283 C.ar    1  UNL1        0.1144
      3 N          -7.9141  -17.0979   23.7465 N.ar    1  UNL1       -0.2064
      4 C          -7.1663  -16.2971   24.7709 C.ar    1  UNL1        0.0838
      5 C          -7.6181  -15.5733   26.0046 C.ar    1  UNL1        0.0190
      6 C          -6.6203  -14.8426   26.8532 C.ar    1  UNL1        0.0015
      7 C          -5.1705  -14.8357   26.4683 C.ar    1  UNL1        0.0001
      8 C          -4.7187  -15.5594   25.2346 C.ar    1  UNL1        0.0028
      9 C          -5.7165  -16.2901   24.3860 C.ar    1  UNL1        0.0324
     10 C          -0.4429  -18.0983   20.1729 C.3     1  UNL1        0.0897
     11 N          -1.7243  -17.8454   20.9106 N.3     1  UNL1       -0.2686
     12 C          -1.9575  -16.5219   21.5767 C.3     1  UNL1        0.0938
     13 C          -3.2389  -16.2690   22.3144 C.3     1  UNL1        0.1082
     14 N          -4.2870  -17.3396   22.3859 N.pl3   1  UNL1       -0.3034
     15 C          -4.0537  -18.6632   21.7197 C.3     1  UNL1        0.1082
     16 C          -2.7724  -18.9161   20.9821 C.3     1  UNL1        0.0938
     17 S          -9.3903  -17.3640   23.7411 S.O2    1  UNL1        0.0860
     18 O          -9.5747  -16.3196   22.6805 O.2     1  UNL1       -0.1476
     19 O          -9.2058  -18.4085   24.8018 O.2     1  UNL1       -0.1476
     20 C         -10.8665  -17.6302   23.7359 C.ar    1  UNL1        0.1278
     21 C         -11.7520  -16.9264   22.7507 C.ar    1  UNL1        0.0227
     22 C         -13.2281  -17.1926   22.7455 C.ar    1  UNL1        0.0310
     23 C         -13.8189  -18.1626   23.7255 C.ar    1  UNL1        0.1402
     24 F         -15.2950  -18.4287   23.7202 F       1  UNL1       -0.2042
     25 C         -12.9333  -18.8663   24.7106 C.ar    1  UNL1        0.0310
     26 C         -11.4571  -18.6001   24.7158 C.ar    1  UNL1        0.0227
@<TRIPOS>BOND
     1    10    11    1
     2    11    12    1
     3    12    13    1
     4    13    14    1
     5    14     1    1
     6     1     2   ar
     7     2     3   ar
     8     3    17    1
     9    17    18    2
    10    17    19    2
    11    17    20    1
    12    20    21   ar
    13    21    22   ar
    14    22    23   ar
    15    23    24    1
    16    23    25   ar
    17    25    26   ar
    18     3     4   ar
    19     4     5   ar
    20     5     6   ar
    21     6     7   ar
    22     7     8   ar
    23     8     9   ar
    24    14    15    1
    25    15    16    1
    26    16    11    1
    27     9     1   ar
    28    26    20   ar
    29     9     4   ar
@<TRIPOS>MOLECULE
*****
 26 29 0 0 0
SMALL
GASTEIGER

@<TRIPOS>ATOM
      1 C           7.1111   -4.5577   25.9268 C.ar    1  UNL1        0.0686
      2 C           6.4021   -3.7138   24.9093 C.ar    1  UNL1        0.1144
      3 N           6.7631   -4.2287   23.5475 N.ar    1  UNL1       -0.2064
      4 C           7.6951   -5.3908   23.7232 C.ar    1  UNL1        0.0838
      5 C           8.3757   -6.2900   22.7343 C.ar    1  UNL1        0.0190
      6 C           9.2713   -7.3926   23.2159 C.ar    1  UNL1        0.0015
      7 C           9.4864   -7.5960   24.6864 C.ar    1  UNL1        0.0001
      8 C           8.8058   -6.6968   25.6753 C.ar    1  UNL1        0.0028
      9 C           7.9102   -5.5941   25.1938 C.ar    1  UNL1        0.0324
     10 C           6.8044   -3.9028   31.8831 C.3     1  UNL1        0.0897
     11 N           6.8811   -4.0666   30.3940 N.3     1  UNL1       -0.2686
     12 C           7.1747   -2.8810   29.5233 C.3     1  UNL1        0.0938
     13 C           7.2514   -3.0448   28.0342 C.3     1  UNL1        0.1082
     14 N           7.0344   -4.3940   27.4158 N.pl3   1  UNL1       -0.3034
     15 C           6.7407   -5.5796   28.2866 C.3     1  UNL1        0.1082
     16 C           6.6641   -5.4159   29.7757 C.3     1  UNL1        0.0938
     17 S           6.2773   -3.6781   22.2395 S.O2    1  UNL1        0.0860
     18 O           4.9651   -4.3787   22.4319 O.2     1  UNL1       -0.1476
     19 O           7.5896   -2.9775   22.0470 O.2     1  UNL1       -0.1476
     20 C           5.7916   -3.1275   20.9314 C.ar    1  UNL1        0.1278
     21 C           6.7439   -2.9723   19.7829 C.ar    1  UNL1        0.0227
     22 C           6.2582   -2.4217   18.4750 C.ar    1  UNL1        0.0310
     23 C           4.8201   -2.0262   18.3154 C.ar    1  UNL1        0.1402
     24 F           4.3344   -1.4757   17.0074 F       1  UNL1       -0.2042
     25 C           3.8677   -2.1814   19.4638 C.ar    1  UNL1        0.0310
     26 C           4.3535   -2.7320   20.7718 C.ar    1  UNL1        0.0227
@<TRIPOS>BOND
     1    10    11    1
     2    11    12    1
     3    12    13    1
     4    13    14    1
     5    14     1    1
     6     1     2   ar
     7     2     3   ar
     8     3    17    1
     9    17    18    2
    10    17    19    2
    11    17    20    1
    12    20    21   ar
    13    21    22   ar
    14    22    23   ar
    15    23    24    1
    16    23    25   ar
    17    25    26   ar
    18     3     4   ar
    19     4     5   ar
    20     5     6   ar
    21     6     7   ar
    22     7     8   ar
    23     8     9   ar
    24    14    15    1
    25    15    16    1
    26    16    11    1
    27     9     1   ar
    28    26    20   ar
    29     9     4   ar
@<TRIPOS>MOLECULE
*****
 26 29 0 0 0
SMALL
GASTEIGER

@<TRIPOS>ATOM
      1 C           6.8964   -4.3317   23.8894 C.ar    1  UNL1        0.0686
      2 C           6.4625   -3.5930   25.1207 C.ar    1  UNL1        0.1144
      3 N           7.0009   -4.3251   26.3141 N.ar    1  UNL1       -0.2064
      4 C           7.7675   -5.5161   25.8204 C.ar    1  UNL1        0.0838
      5 C           8.5160   -6.5974   26.5418 C.ar    1  UNL1        0.0190
      6 C           9.1999   -7.6828   25.7646 C.ar    1  UNL1        0.0015
      7 C           9.1353   -7.6869   24.2660 C.ar    1  UNL1        0.0001
      8 C           8.3868   -6.6056   23.5446 C.ar    1  UNL1        0.0028
      9 C           7.7029   -5.5202   24.3218 C.ar    1  UNL1        0.0324
     10 C           5.6284   -2.8010   18.2282 C.3     1  UNL1        0.0897
     11 N           5.9454   -3.1837   19.6435 N.3     1  UNL1       -0.2686
     12 C           7.3719   -3.2399   20.1036 C.3     1  UNL1        0.0938
     13 C           7.6889   -3.6226   21.5189 C.3     1  UNL1        0.1082
     14 N           6.5794   -3.9490   22.4741 N.pl3   1  UNL1       -0.3034
     15 C           5.1528   -3.8927   22.0139 C.3     1  UNL1        0.1082
     16 C           4.8358   -3.5101   20.5986 C.3     1  UNL1        0.0938
     17 S           6.8068   -3.9346   27.7494 S.O2    1  UNL1        0.0860
     18 O           7.7315   -2.7693   27.5575 O.2     1  UNL1       -0.1476
     19 O           5.8820   -5.0999   27.9413 O.2     1  UNL1       -0.1476
     20 C           6.6126   -3.5442   29.1847 C.ar    1  UNL1        0.1278
     21 C           6.9210   -4.5248   30.2770 C.ar    1  UNL1        0.0227
     22 C           6.7268   -4.1344   31.7122 C.ar    1  UNL1        0.0310
     23 C           6.2242   -2.7633   32.0551 C.ar    1  UNL1        0.1402
     24 F           6.0300   -2.3730   33.4903 F       1  UNL1       -0.2042
     25 C           5.9158   -1.7827   30.9627 C.ar    1  UNL1        0.0310
     26 C           6.1100   -2.1732   29.5275 C.ar    1  UNL1        0.0227
@<TRIPOS>BOND
     1    10    11    1
     2    11    12    1
     3    12    13    1
     4    13    14    1
     5    14     1    1
     6     1     2   ar
     7     2     3   ar
     8     3    17    1
     9    17    18    2
    10    17    19    2
    11    17    20    1
    12    20    21   ar
    13    21    22   ar
    14    22    23   ar
    15    23    24    1
    16    23    25   ar
    17    25    26   ar
    18     3     4   ar
    19     4     5   ar
    20     5     6   ar
    21     6     7   ar
    22     7     8   ar
    23     8     9   ar
    24    14    15    1
    25    15    16    1
    26    16    11    1
    27     9     1   ar
    28    26    20   ar
    29     9     4   ar
@<TRIPOS>MOLECULE
*****
 26 29 0 0 0
SMALL
GASTEIGER

@<TRIPOS>ATOM
      1 C          -1.3036    3.1307   20.6015 C.ar    1  UNL1        0.0686
      2 C          -0.5913    1.8112   20.5628 C.ar    1  UNL1        0.1144
      3 N           0.5932    1.9505   19.6532 N.ar    1  UNL1       -0.2064
      4 C           0.6130    3.3561   19.1297 C.ar    1  UNL1        0.0838
      5 C           1.5470    4.0660   18.1951 C.ar    1  UNL1        0.0190
      6 C           1.3087    5.5054   17.8466 C.ar    1  UNL1        0.0015
      7 C           0.1363    6.2348   18.4328 C.ar    1  UNL1        0.0001
      8 C          -0.7977    5.5248   19.3674 C.ar    1  UNL1        0.0028
      9 C          -0.5594    4.0855   19.7159 C.ar    1  UNL1        0.0324
     10 C          -6.2600    4.3718   23.7471 C.3     1  UNL1        0.0897
     11 N          -5.0209    4.0615   22.9608 N.3     1  UNL1       -0.2686
     12 C          -5.1328    3.5659   21.5495 C.3     1  UNL1        0.0938
     13 C          -3.8937    3.2556   20.7631 C.3     1  UNL1        0.1082
     14 N          -2.5427    3.4410   21.3879 N.pl3   1  UNL1       -0.3034
     15 C          -2.4309    3.9366   22.7993 C.3     1  UNL1        0.1082
     16 C          -3.6700    4.2469   23.5857 C.3     1  UNL1        0.0938
     17 S           1.5841    0.8734   19.3246 S.O2    1  UNL1        0.0860
     18 O           2.3005    1.1387   20.6154 O.2     1  UNL1       -0.1476
     19 O           0.8677    0.6080   18.0338 O.2     1  UNL1       -0.1476
     20 C           2.5750   -0.2038   18.9960 C.ar    1  UNL1        0.1278
     21 C           3.3652   -0.1330   17.7230 C.ar    1  UNL1        0.0227
     22 C           4.3560   -1.2102   17.3945 C.ar    1  UNL1        0.0310
     23 C           4.5566   -2.3582   18.3389 C.ar    1  UNL1        0.1402
     24 F           5.5474   -3.4353   18.0102 F       1  UNL1       -0.2042
     25 C           3.7663   -2.4290   19.6119 C.ar    1  UNL1        0.0310
     26 C           2.7755   -1.3518   19.9404 C.ar    1  UNL1        0.0227
@<TRIPOS>BOND
     1    10    11    1
     2    11    12    1
     3    12    13    1
     4    13    14    1
     5    14     1    1
     6     1     2   ar
     7     2     3   ar
     8     3    17    1
     9    17    18    2
    10    17    19    2
    11    17    20    1
    12    20    21   ar
    13    21    22   ar
    14    22    23   ar
    15    23    24    1
    16    23    25   ar
    17    25    26   ar
    18     3     4   ar
    19     4     5   ar
    20     5     6   ar
    21     6     7   ar
    22     7     8   ar
    23     8     9   ar
    24    14    15    1
    25    15    16    1
    26    16    11    1
    27     9     1   ar
    28    26    20   ar
    29     9     4   ar
@<TRIPOS>MOLECULE
*****
 26 29 0 0 0
SMALL
GASTEIGER

@<TRIPOS>ATOM
      1 C           3.1060    1.9388   34.4537 C.ar    1  UNL1        0.0686
      2 C           2.2151    2.5275   33.4003 C.ar    1  UNL1        0.1144
      3 N           2.2262    1.6066   32.2163 N.ar    1  UNL1       -0.2064
      4 C           3.1240    0.4488   32.5380 C.ar    1  UNL1        0.0838
      5 C           3.5166   -0.7659   31.7505 C.ar    1  UNL1        0.0190
      6 C           4.4530   -1.7753   32.3457 C.ar    1  UNL1        0.0015
      7 C           4.9967   -1.5699   33.7285 C.ar    1  UNL1        0.0001
      8 C           4.6041   -0.3552   34.5161 C.ar    1  UNL1        0.0028
      9 C           3.6678    0.6541   33.9208 C.ar    1  UNL1        0.0324
     10 C           4.2262    4.3072   39.8516 C.3     1  UNL1        0.0897
     11 N           3.9461    3.7151   38.5021 N.3     1  UNL1       -0.2686
     12 C           4.5849    4.3020   37.2784 C.3     1  UNL1        0.0938
     13 C           4.3048    3.7099   35.9289 C.3     1  UNL1        0.1082
     14 N           3.3861    2.5309   35.8032 N.pl3   1  UNL1       -0.3034
     15 C           2.7473    1.9440   37.0270 C.3     1  UNL1        0.1082
     16 C           3.0273    2.5361   38.3764 C.3     1  UNL1        0.0938
     17 S           1.4720    1.8081   30.9355 S.O2    1  UNL1        0.0860
     18 O           2.7586    2.1068   30.2248 O.2     1  UNL1       -0.1476
     19 O           0.1853    1.5093   31.6462 O.2     1  UNL1       -0.1476
     20 C           0.7177    2.0095   29.6547 C.ar    1  UNL1        0.1278
     21 C          -0.0461    0.8706   29.0469 C.ar    1  UNL1        0.0227
     22 C          -0.8003    1.0721   27.7661 C.ar    1  UNL1        0.0310
     23 C          -0.7909    2.4126   27.0931 C.ar    1  UNL1        0.1402
     24 F          -1.5452    2.6140   25.8123 F       1  UNL1       -0.2042
     25 C          -0.0272    3.5516   27.7009 C.ar    1  UNL1        0.0310
     26 C           0.7271    3.3500   28.9817 C.ar    1  UNL1        0.0227
@<TRIPOS>BOND
     1    10    11    1
     2    11    12    1
     3    12    13    1
     4    13    14    1
     5    14     1    1
     6     1     2   ar
     7     2     3   ar
     8     3    17    1
     9    17    18    2
    10    17    19    2
    11    17    20    1
    12    20    21   ar
    13    21    22   ar
    14    22    23   ar
    15    23    24    1
    16    23    25   ar
    17    25    26   ar
    18     3     4   ar
    19     4     5   ar
    20     5     6   ar
    21     6     7   ar
    22     7     8   ar
    23     8     9   ar
    24    14    15    1
    25    15    16    1
    26    16    11    1
    27     9     1   ar
    28    26    20   ar
    29     9     4   ar
@<TRIPOS>MOLECULE
*****
 26 29 0 0 0
SMALL
GASTEIGER

@<TRIPOS>ATOM
      1 C           3.5084   -1.0259   23.4243 C.ar    1  UNL1        0.0686
      2 C           2.6325    0.1410   23.0762 C.ar    1  UNL1        0.1144
      3 N           2.2443    0.0147   21.6328 N.ar    1  UNL1       -0.2064
      4 C           2.8802   -1.2302   21.0889 C.ar    1  UNL1        0.0838
      5 C           2.8487   -1.8612   19.7284 C.ar    1  UNL1        0.0190
      6 C           3.5985   -3.1353   19.4752 C.ar    1  UNL1        0.0015
      7 C           4.3798   -3.7785   20.5824 C.ar    1  UNL1        0.0001
      8 C           4.4113   -3.1475   21.9428 C.ar    1  UNL1        0.0028
      9 C           3.6615   -1.8734   22.1961 C.ar    1  UNL1        0.0324
     10 C           5.9680   -2.1132   28.7880 C.3     1  UNL1        0.0897
     11 N           5.3531   -1.8414   27.4471 N.3     1  UNL1       -0.2686
     12 C           6.0589   -2.2748   26.1965 C.3     1  UNL1        0.0938
     13 C           5.4440   -2.0030   24.8556 C.3     1  UNL1        0.1082
     14 N           4.1233   -1.2978   24.7652 N.pl3   1  UNL1       -0.3034
     15 C           3.4174   -0.8642   26.0158 C.3     1  UNL1        0.1082
     16 C           4.0323   -1.1361   27.3567 C.3     1  UNL1        0.0938
     17 S           1.3730    0.9663   20.8677 S.O2    1  UNL1        0.0860
     18 O           2.5544    1.8607   20.6349 O.2     1  UNL1       -0.1476
     19 O           0.1916    0.0719   21.1006 O.2     1  UNL1       -0.1476
     20 C           0.5017    1.9179   20.1026 C.ar    1  UNL1        0.1278
     21 C           0.7992    2.2149   18.6627 C.ar    1  UNL1        0.0227
     22 C          -0.0721    3.1664   17.8977 C.ar    1  UNL1        0.0310
     23 C          -1.2410    3.8210   18.5725 C.ar    1  UNL1        0.1402
     24 F          -2.1122    4.7725   17.8074 F       1  UNL1       -0.2042
     25 C          -1.5385    3.5240   20.0124 C.ar    1  UNL1        0.0310
     26 C          -0.6671    2.5724   20.7774 C.ar    1  UNL1        0.0227
@<TRIPOS>BOND
     1    10    11    1
     2    11    12    1
     3    12    13    1
     4    13    14    1
     5    14     1    1
     6     1     2   ar
     7     2     3   ar
     8     3    17    1
     9    17    18    2
    10    17    19    2
    11    17    20    1
    12    20    21   ar
    13    21    22   ar
    14    22    23   ar
    15    23    24    1
    16    23    25   ar
    17    25    26   ar
    18     3     4   ar
    19     4     5   ar
    20     5     6   ar
    21     6     7   ar
    22     7     8   ar
    23     8     9   ar
    24    14    15    1
    25    15    16    1
    26    16    11    1
    27     9     1   ar
    28    26    20   ar
    29     9     4   ar
@<TRIPOS>MOLECULE
*****
 26 29 0 0 0
SMALL
GASTEIGER

@<TRIPOS>ATOM
      1 C          -1.7235    3.5919   22.6874 C.ar    1  UNL1        0.0686
      2 C          -1.0386    3.0408   21.4720 C.ar    1  UNL1        0.1144
      3 N          -0.0181    2.0408   21.9285 N.ar    1  UNL1       -0.2064
      4 C          -0.0723    1.9737   23.4260 C.ar    1  UNL1        0.0838
      5 C           0.7020    1.1636   24.4231 C.ar    1  UNL1        0.0190
      6 C           0.4222    1.3122   25.8892 C.ar    1  UNL1        0.0015
      7 C          -0.6318    2.2708   26.3583 C.ar    1  UNL1        0.0001
      8 C          -1.4061    3.0809   25.3612 C.ar    1  UNL1        0.0028
      9 C          -1.1263    2.9324   23.8951 C.ar    1  UNL1        0.0324
     10 C          -6.0862    7.7110   22.7140 C.3     1  UNL1        0.0897
     11 N          -4.9955    6.6812   22.7074 N.3     1  UNL1       -0.2686
     12 C          -3.5968    7.0726   22.3328 C.3     1  UNL1        0.0938
     13 C          -2.5061    6.0428   22.3262 C.3     1  UNL1        0.1082
     14 N          -2.8142    4.6217   22.6941 N.pl3   1  UNL1       -0.3034
     15 C          -4.2130    4.2302   23.0686 C.3     1  UNL1        0.1082
     16 C          -5.3036    5.2600   23.0753 C.3     1  UNL1        0.0938
     17 S           0.8961    1.2470   21.0429 S.O2    1  UNL1        0.0860
     18 O           2.0062    2.2172   21.3193 O.2     1  UNL1       -0.1476
     19 O          -0.2140    0.2768   20.7665 O.2     1  UNL1       -0.1476
     20 C           1.8103    0.4532   20.1573 C.ar    1  UNL1        0.1278
     21 C           2.2193    0.9978   18.8209 C.ar    1  UNL1        0.0227
     22 C           3.1334    0.2040   17.9354 C.ar    1  UNL1        0.0310
     23 C           3.6386   -1.1345   18.3863 C.ar    1  UNL1        0.1402
     24 F           4.5527   -1.9282   17.5008 F       1  UNL1       -0.2042
     25 C           3.2297   -1.6791   19.7228 C.ar    1  UNL1        0.0310
     26 C           2.3155   -0.8852   20.6083 C.ar    1  UNL1        0.0227
@<TRIPOS>BOND
     1    10    11    1
     2    11    12    1
     3    12    13    1
     4    13    14    1
     5    14     1    1
     6     1     2   ar
     7     2     3   ar
     8     3    17    1
     9    17    18    2
    10    17    19    2
    11    17    20    1
    12    20    21   ar
    13    21    22   ar
    14    22    23   ar
    15    23    24    1
    16    23    25   ar
    17    25    26   ar
    18     3     4   ar
    19     4     5   ar
    20     5     6   ar
    21     6     7   ar
    22     7     8   ar
    23     8     9   ar
    24    14    15    1
    25    15    16    1
    26    16    11    1
    27     9     1   ar
    28    26    20   ar
    29     9     4   ar
@<TRIPOS>MOLECULE
*****
 26 29 0 0 0
SMALL
GASTEIGER

@<TRIPOS>ATOM
      1 C           6.4004   -3.4874   26.2763 C.ar    1  UNL1        0.0686
      2 C           6.4077   -3.6329   24.7833 C.ar    1  UNL1        0.1144
      3 N           5.4853   -2.5970   24.2123 N.ar    1  UNL1       -0.2064
      4 C           4.9079   -1.8114   25.3522 C.ar    1  UNL1        0.0838
      5 C           3.9403   -0.6660   25.3934 C.ar    1  UNL1        0.0190
      6 C           3.5382   -0.0710   26.7103 C.ar    1  UNL1        0.0015
      7 C           4.1038   -0.6213   27.9859 C.ar    1  UNL1        0.0001
      8 C           5.0715   -1.7666   27.9447 C.ar    1  UNL1        0.0028
      9 C           5.4735   -2.3617   26.6278 C.ar    1  UNL1        0.0324
     10 C           9.5295   -6.8229   30.1600 C.3     1  UNL1        0.0897
     11 N           8.7472   -5.9891   29.1891 N.3     1  UNL1       -0.2686
     12 C           9.4583   -5.2374   28.1031 C.3     1  UNL1        0.0938
     13 C           8.6760   -4.4035   27.1322 C.3     1  UNL1        0.1082
     14 N           7.1827   -4.3213   27.2472 N.pl3   1  UNL1       -0.3034
     15 C           6.4716   -5.0730   28.3332 C.3     1  UNL1        0.1082
     16 C           7.2539   -5.9069   29.3042 C.3     1  UNL1        0.0938
     17 S           5.1918   -2.3842   22.7567 S.O2    1  UNL1        0.0860
     18 O           4.2798   -3.5750   22.7665 O.2     1  UNL1       -0.1476
     19 O           6.1037   -1.1933   22.7470 O.2     1  UNL1       -0.1476
     20 C           4.8983   -2.1712   21.3012 C.ar    1  UNL1        0.1278
     21 C           5.9592   -2.4386   20.2751 C.ar    1  UNL1        0.0227
     22 C           5.6657   -2.2257   18.8197 C.ar    1  UNL1        0.0310
     23 C           4.3111   -1.7453   18.3902 C.ar    1  UNL1        0.1402
     24 F           4.0176   -1.5323   16.9347 F       1  UNL1       -0.2042
     25 C           3.2501   -1.4779   19.4163 C.ar    1  UNL1        0.0310
     26 C           3.5437   -1.6908   20.8718 C.ar    1  UNL1        0.0227
@<TRIPOS>BOND
     1    10    11    1
     2    11    12    1
     3    12    13    1
     4    13    14    1
     5    14     1    1
     6     1     2   ar
     7     2     3   ar
     8     3    17    1
     9    17    18    2
    10    17    19    2
    11    17    20    1
    12    20    21   ar
    13    21    22   ar
    14    22    23   ar
    15    23    24    1
    16    23    25   ar
    17    25    26   ar
    18     3     4   ar
    19     4     5   ar
    20     5     6   ar
    21     6     7   ar
    22     7     8   ar
    23     8     9   ar
    24    14    15    1
    25    15    16    1
    26    16    11    1
    27     9     1   ar
    28    26    20   ar
    29     9     4   ar
