@<TRIPOS>MOLECULE
*****
 27 29 0 0 0
SMALL
GASTEIGER

@<TRIPOS>ATOM
      1 O          -4.3971  -16.1355   23.2806 O.2     1  UNL1       -0.2522
      2 C          -5.5112  -17.0186   22.8023 C.2     1  UNL1        0.3077
      3 N          -5.2326  -18.1040   21.8052 N.am    1  UNL1       -0.2681
      4 N          -6.9041  -16.8164   23.3212 N.am    1  UNL1       -0.2636
      5 C          -7.1827  -15.7310   24.3183 C.3     1  UNL1        0.0950
      6 C          -8.5755  -15.5288   24.8372 C.3     1  UNL1        0.0219
      7 C          -9.6896  -16.4120   24.3589 C.3     1  UNL1        0.0075
      8 C          -9.4110  -17.4973   23.3618 C.3     1  UNL1        0.0397
      9 C          -8.0182  -17.6996   22.8430 C.3     1  UNL1        0.0990
     10 H          -5.9639  -18.6837   21.4913 H       1  UNL1        0.1564
     11 C          -3.8398  -18.3063   21.2863 C.ar    1  UNL1        0.0516
     12 C          -3.5646  -18.2003   19.8156 C.ar    1  UNL1        0.0156
     13 C          -2.1718  -18.4025   19.2968 C.ar    1  UNL1        0.0127
     14 C          -1.0542  -18.7108   20.2486 C.ar    1  UNL1        0.0578
     15 CL          0.3386  -18.9131   19.7297 Cl      1  UNL1       -0.0822
     16 C          -1.3294  -18.8168   21.7193 C.ar    1  UNL1        0.0127
     17 C          -2.7222  -18.6146   22.2382 C.ar    1  UNL1        0.0156
     18 C         -10.8848  -17.6960   23.5581 C.ar    1  UNL1       -0.0211
     19 C         -11.3801  -18.6579   24.5971 C.ar    1  UNL1       -0.0042
     20 C         -12.8539  -18.8566   24.7933 C.ar    1  UNL1       -0.0003
     21 C         -13.8323  -18.0934   23.9505 C.ar    1  UNL1       -0.0000
     22 C         -13.3370  -17.1316   22.9115 C.ar    1  UNL1       -0.0003
     23 C         -11.8632  -16.9329   22.7153 C.ar    1  UNL1       -0.0042
     24 C          -9.6442  -18.6518   22.4328 C.3     1  UNL1        0.0374
     25 C          -9.0755  -18.6244   21.0451 C.3     1  UNL1        0.1375
     26 O          -9.9087  -18.1236   19.9028 O.3     1  UNL1       -0.3820
     27 H         -10.6563  -18.7248   19.7600 H       1  UNL1        0.2104
@<TRIPOS>BOND
     1     1     2    2
     2     2     3   am
     3     3    11    1
     4    11    12   ar
     5    12    13   ar
     6    13    14   ar
     7    14    15    1
     8    14    16   ar
     9    16    17   ar
    10     2     4   am
    11     4     5    1
    12     5     6    1
    13     6     7    1
    14     7     8    1
    15     8    24    1
    16    24    25    1
    17    25    26    1
    18     8    18    1
    19    18    19   ar
    20    19    20   ar
    21    20    21   ar
    22    21    22   ar
    23    22    23   ar
    24     8     9    1
    25    17    11   ar
    26     9     4    1
    27    23    18   ar
    28     3    10    1
    29    26    27    1
@<TRIPOS>MOLECULE
*****
 27 29 0 0 0
SMALL
GASTEIGER

@<TRIPOS>ATOM
      1 O           9.3224   -3.2364   30.8695 O.2     1  UNL1       -0.2522
      2 C           7.9126   -3.0381   31.3418 C.2     1  UNL1        0.3077
      3 N           6.7991   -3.8409   30.7371 N.am    1  UNL1       -0.2681
      4 N           7.6162   -2.0369   32.4188 N.am    1  UNL1       -0.2636
      5 C           8.7297   -1.2341   33.0234 C.3     1  UNL1        0.0950
      6 C           8.4333   -0.2330   34.1004 C.3     1  UNL1        0.0219
      7 C           7.0234   -0.0347   34.5727 C.3     1  UNL1        0.0075
      8 C           5.9100   -0.8375   33.9680 C.3     1  UNL1        0.0397
      9 C           6.2064   -1.8387   32.8911 C.3     1  UNL1        0.0990
     10 H           5.8738   -3.7108   31.0471 H       1  UNL1        0.1564
     11 C           7.0955   -4.8421   29.6601 C.ar    1  UNL1        0.0516
     12 C           7.9773   -6.0197   29.9528 C.ar    1  UNL1        0.0156
     13 C           8.2737   -7.0208   28.8758 C.ar    1  UNL1        0.0127
     14 C           7.6882   -6.8443   27.5061 C.ar    1  UNL1        0.0578
     15 CL          7.9845   -7.8455   26.4291 Cl      1  UNL1       -0.0822
     16 C           6.8063   -5.6668   27.2134 C.ar    1  UNL1        0.0127
     17 C           6.5100   -4.6657   28.2904 C.ar    1  UNL1        0.0156
     18 C           5.1332   -0.0162   34.9539 C.ar    1  UNL1       -0.0211
     19 C           5.3394   -0.2183   36.4259 C.ar    1  UNL1       -0.0042
     20 C           4.5626    0.6031   37.4118 C.ar    1  UNL1       -0.0003
     21 C           3.5797    1.6266   36.9256 C.ar    1  UNL1       -0.0000
     22 C           3.3734    1.8287   35.4537 C.ar    1  UNL1       -0.0003
     23 C           4.1502    1.0073   34.4678 C.ar    1  UNL1       -0.0042
     24 C           4.5267   -1.3552   33.7057 C.3     1  UNL1        0.0374
     25 C           4.3342   -2.7432   33.1709 C.3     1  UNL1        0.1375
     26 O           3.4325   -3.7046   33.8869 O.3     1  UNL1       -0.3820
     27 H           3.8097   -3.9161   34.7552 H       1  UNL1        0.2104
@<TRIPOS>BOND
     1     1     2    2
     2     2     3   am
     3     3    11    1
     4    11    12   ar
     5    12    13   ar
     6    13    14   ar
     7    14    15    1
     8    14    16   ar
     9    16    17   ar
    10     2     4   am
    11     4     5    1
    12     5     6    1
    13     6     7    1
    14     7     8    1
    15     8    24    1
    16    24    25    1
    17    25    26    1
    18     8    18    1
    19    18    19   ar
    20    19    20   ar
    21    20    21   ar
    22    21    22   ar
    23    22    23   ar
    24     8     9    1
    25    17    11   ar
    26     9     4    1
    27    23    18   ar
    28     3    10    1
    29    26    27    1
@<TRIPOS>MOLECULE
*****
 27 29 0 0 0
SMALL
GASTEIGER

@<TRIPOS>ATOM
      1 O           7.3634   -5.1513   22.7338 O.2     1  UNL1       -0.2522
      2 C           6.4270   -4.0055   22.9790 C.2     1  UNL1        0.3077
      3 N           6.2948   -3.4265   24.3564 N.am    1  UNL1       -0.2681
      4 N           5.6227   -3.4387   21.8468 N.am    1  UNL1       -0.2636
      5 C           5.7549   -4.0177   20.4694 C.3     1  UNL1        0.0950
      6 C           4.9506   -3.4509   19.3372 C.3     1  UNL1        0.0219
      7 C           4.0142   -2.3050   19.5824 C.3     1  UNL1        0.0075
      8 C           3.8820   -1.7260   20.9598 C.3     1  UNL1        0.0397
      9 C           4.6863   -2.2928   22.0920 C.3     1  UNL1        0.0990
     10 H           5.6802   -2.6744   24.5173 H       1  UNL1        0.1564
     11 C           7.0991   -3.9933   25.4887 C.ar    1  UNL1        0.0516
     12 C           6.6847   -5.2842   26.1303 C.ar    1  UNL1        0.0156
     13 C           7.4890   -5.8510   27.2625 C.ar    1  UNL1        0.0127
     14 C           8.7076   -5.1268   27.7531 C.ar    1  UNL1        0.0578
     15 CL          9.5119   -5.6936   28.8853 Cl      1  UNL1       -0.0822
     16 C           9.1219   -3.8358   27.1114 C.ar    1  UNL1        0.0127
     17 C           8.3176   -3.2691   25.9792 C.ar    1  UNL1        0.0156
     18 C           2.9152   -0.8528   20.2163 C.ar    1  UNL1       -0.0211
     19 C           3.3633   -0.1108   18.9921 C.ar    1  UNL1       -0.0042
     20 C           2.3965    0.7625   18.2486 C.ar    1  UNL1       -0.0003
     21 C           0.9817    0.8937   18.7293 C.ar    1  UNL1       -0.0000
     22 C           0.5336    0.1517   19.9535 C.ar    1  UNL1       -0.0003
     23 C           1.5004   -0.7216   20.6970 C.ar    1  UNL1       -0.0042
     24 C           3.4140   -0.8437   22.0790 C.3     1  UNL1        0.0374
     25 C           3.6030   -1.2749   23.5032 C.3     1  UNL1        0.1375
     26 O           2.7705   -0.6611   24.5895 O.3     1  UNL1       -0.3820
     27 H           2.9918    0.2795   24.6740 H       1  UNL1        0.2104
@<TRIPOS>BOND
     1     1     2    2
     2     2     3   am
     3     3    11    1
     4    11    12   ar
     5    12    13   ar
     6    13    14   ar
     7    14    15    1
     8    14    16   ar
     9    16    17   ar
    10     2     4   am
    11     4     5    1
    12     5     6    1
    13     6     7    1
    14     7     8    1
    15     8    24    1
    16    24    25    1
    17    25    26    1
    18     8    18    1
    19    18    19   ar
    20    19    20   ar
    21    20    21   ar
    22    21    22   ar
    23    22    23   ar
    24     8     9    1
    25    17    11   ar
    26     9     4    1
    27    23    18   ar
    28     3    10    1
    29    26    27    1
@<TRIPOS>MOLECULE
*****
 27 29 0 0 0
SMALL
GASTEIGER

@<TRIPOS>ATOM
      1 O         -11.2689   -1.8509   17.5968 O.2     1  UNL1       -0.2522
      2 C         -12.5493   -1.9419   18.3728 C.2     1  UNL1        0.3077
      3 N         -12.9169   -3.2203   19.0660 N.am    1  UNL1       -0.2681
      4 N         -13.4622   -0.7545   18.4556 N.am    1  UNL1       -0.2636
      5 C         -13.0946    0.5239   17.7623 C.3     1  UNL1        0.0950
      6 C         -14.0074    1.7112   17.8451 C.3     1  UNL1        0.0219
      7 C         -15.2879    1.6202   18.6211 C.3     1  UNL1        0.0075
      8 C         -15.6555    0.3419   19.3144 C.3     1  UNL1        0.0397
      9 C         -14.7426   -0.8455   19.2316 C.3     1  UNL1        0.0990
     10 H         -13.7573   -3.2800   19.5754 H       1  UNL1        0.1564
     11 C         -12.0041   -4.4077   18.9833 C.ar    1  UNL1        0.0516
     12 C         -12.5751   -5.7802   18.7828 C.ar    1  UNL1        0.0156
     13 C         -11.6623   -6.9675   18.7001 C.ar    1  UNL1        0.0127
     14 C         -10.1784   -6.7824   18.8178 C.ar    1  UNL1        0.0578
     15 CL         -9.2655   -7.9698   18.7350 Cl      1  UNL1       -0.0822
     16 C          -9.6074   -5.4099   19.0183 C.ar    1  UNL1        0.0127
     17 C         -10.5202   -4.2226   19.1010 C.ar    1  UNL1        0.0156
     18 C         -16.8387    1.1872   19.6823 C.ar    1  UNL1       -0.0211
     19 C         -17.1503    1.4539   21.1251 C.ar    1  UNL1       -0.0042
     20 C         -18.3336    2.2992   21.4930 C.ar    1  UNL1       -0.0003
     21 C         -19.2051    2.8779   20.4181 C.ar    1  UNL1       -0.0000
     22 C         -18.8935    2.6113   18.9752 C.ar    1  UNL1       -0.0003
     23 C         -17.7102    1.7659   18.6073 C.ar    1  UNL1       -0.0042
     24 C         -16.4340   -0.6430   20.1354 C.3     1  UNL1        0.0374
     25 C         -16.7350   -2.0057   19.5857 C.3     1  UNL1        0.1375
     26 O         -17.2906   -3.0709   20.4838 O.3     1  UNL1       -0.3820
     27 H         -16.6286   -3.3081   21.1519 H       1  UNL1        0.2104
@<TRIPOS>BOND
     1     1     2    2
     2     2     3   am
     3     3    11    1
     4    11    12   ar
     5    12    13   ar
     6    13    14   ar
     7    14    15    1
     8    14    16   ar
     9    16    17   ar
    10     2     4   am
    11     4     5    1
    12     5     6    1
    13     6     7    1
    14     7     8    1
    15     8    24    1
    16    24    25    1
    17    25    26    1
    18     8    18    1
    19    18    19   ar
    20    19    20   ar
    21    20    21   ar
    22    21    22   ar
    23    22    23   ar
    24     8     9    1
    25    17    11   ar
    26     9     4    1
    27    23    18   ar
    28     3    10    1
    29    26    27    1
@<TRIPOS>MOLECULE
*****
 27 29 0 0 0
SMALL
GASTEIGER

@<TRIPOS>ATOM
      1 O           0.0400    1.9380   24.5371 O.2     1  UNL1       -0.2522
      2 C           1.2098    1.0129   24.3774 C.2     1  UNL1        0.3077
      3 N           2.0149    0.6080   25.5765 N.am    1  UNL1       -0.2681
      4 N           1.5746    0.4926   23.0186 N.am    1  UNL1       -0.2636
      5 C           0.7694    0.8974   21.8195 C.3     1  UNL1        0.0950
      6 C           1.1342    0.3771   20.4608 C.3     1  UNL1        0.0219
      7 C           2.3041   -0.5480   20.3012 C.3     1  UNL1        0.0075
      8 C           3.1092   -0.9529   21.5002 C.3     1  UNL1        0.0397
      9 C           2.7444   -0.4326   22.8590 C.3     1  UNL1        0.0990
     10 H           2.7828    0.0008   25.4717 H       1  UNL1        0.1564
     11 C           1.6502    1.1283   26.9353 C.ar    1  UNL1        0.0516
     12 C           0.3872    0.6677   27.6007 C.ar    1  UNL1        0.0156
     13 C           0.0226    1.1880   28.9594 C.ar    1  UNL1        0.0127
     14 C           0.9209    2.1689   29.6529 C.ar    1  UNL1        0.0578
     15 CL          0.5561    2.6892   31.0117 Cl      1  UNL1       -0.0822
     16 C           2.1838    2.6295   28.9875 C.ar    1  UNL1        0.0127
     17 C           2.5485    2.1092   27.6288 C.ar    1  UNL1        0.0156
     18 C           3.8420   -1.7045   20.4286 C.ar    1  UNL1       -0.0211
     19 C           4.9403   -1.0328   19.6588 C.ar    1  UNL1       -0.0042
     20 C           5.6730   -1.7844   18.5872 C.ar    1  UNL1       -0.0003
     21 C           5.3074   -3.2075   18.2856 C.ar    1  UNL1       -0.0000
     22 C           4.2091   -3.8792   19.0554 C.ar    1  UNL1       -0.0003
     23 C           3.4764   -3.1276   20.1270 C.ar    1  UNL1       -0.0042
     24 C           4.1688   -1.6188   22.3272 C.3     1  UNL1        0.0374
     25 C           3.9251   -1.8890   23.7823 C.3     1  UNL1        0.1375
     26 O           4.9013   -2.7158   24.5655 O.3     1  UNL1       -0.3820
     27 H           4.8979   -3.6254   24.2288 H       1  UNL1        0.2104
@<TRIPOS>BOND
     1     1     2    2
     2     2     3   am
     3     3    11    1
     4    11    12   ar
     5    12    13   ar
     6    13    14   ar
     7    14    15    1
     8    14    16   ar
     9    16    17   ar
    10     2     4   am
    11     4     5    1
    12     5     6    1
    13     6     7    1
    14     7     8    1
    15     8    24    1
    16    24    25    1
    17    25    26    1
    18     8    18    1
    19    18    19   ar
    20    19    20   ar
    21    20    21   ar
    22    21    22   ar
    23    22    23   ar
    24     8     9    1
    25    17    11   ar
    26     9     4    1
    27    23    18   ar
    28     3    10    1
    29    26    27    1
@<TRIPOS>MOLECULE
*****
 27 29 0 0 0
SMALL
GASTEIGER

@<TRIPOS>ATOM
      1 O           6.1565   -0.1262   30.8742 O.2     1  UNL1       -0.2522
      2 C           6.4665   -1.5823   31.0576 C.2     1  UNL1        0.3077
      3 N           6.4636   -2.1824   32.4324 N.am    1  UNL1       -0.2681
      4 N           6.7795   -2.4384   29.8663 N.am    1  UNL1       -0.2636
      5 C           6.7824   -1.8384   28.4915 C.3     1  UNL1        0.0950
      6 C           7.0954   -2.6945   27.3003 C.3     1  UNL1        0.0219
      7 C           7.4054   -4.1506   27.4838 C.3     1  UNL1        0.0075
      8 C           7.4025   -4.7506   28.8585 C.3     1  UNL1        0.0397
      9 C           7.0895   -3.8945   30.0497 C.3     1  UNL1        0.0990
     10 H           6.6671   -3.1380   32.5528 H       1  UNL1        0.1564
     11 C           6.1507   -1.3263   33.6237 C.ar    1  UNL1        0.0516
     12 C           7.2114   -0.4446   34.2132 C.ar    1  UNL1        0.0156
     13 C           6.8984    0.4114   35.4045 C.ar    1  UNL1        0.0127
     14 C           5.5247    0.3858   36.0063 C.ar    1  UNL1        0.0578
     15 CL          5.2117    1.2419   37.1976 Cl      1  UNL1       -0.0822
     16 C           4.4639   -0.4958   35.4168 C.ar    1  UNL1        0.0127
     17 C           4.7769   -1.3519   34.2255 C.ar    1  UNL1        0.0156
     18 C           7.7572   -5.9611   28.0467 C.ar    1  UNL1       -0.0211
     19 C           8.9967   -6.7426   28.3679 C.ar    1  UNL1       -0.0042
     20 C           9.3514   -7.9531   27.5561 C.ar    1  UNL1       -0.0003
     21 C           8.4667   -8.3820   26.4233 C.ar    1  UNL1       -0.0000
     22 C           7.2273   -7.6005   26.1021 C.ar    1  UNL1       -0.0003
     23 C           6.8725   -6.3900   26.9139 C.ar    1  UNL1       -0.0042
     24 C           7.5228   -5.7710   29.9514 C.3     1  UNL1        0.0374
     25 C           7.0123   -5.4603   31.3271 C.3     1  UNL1        0.1375
     26 O           7.0185   -6.5217   32.3870 O.3     1  UNL1       -0.3820
     27 H           6.4012   -7.2282   32.1406 H       1  UNL1        0.2104
@<TRIPOS>BOND
     1     1     2    2
     2     2     3   am
     3     3    11    1
     4    11    12   ar
     5    12    13   ar
     6    13    14   ar
     7    14    15    1
     8    14    16   ar
     9    16    17   ar
    10     2     4   am
    11     4     5    1
    12     5     6    1
    13     6     7    1
    14     7     8    1
    15     8    24    1
    16    24    25    1
    17    25    26    1
    18     8    18    1
    19    18    19   ar
    20    19    20   ar
    21    20    21   ar
    22    21    22   ar
    23    22    23   ar
    24     8     9    1
    25    17    11   ar
    26     9     4    1
    27    23    18   ar
    28     3    10    1
    29    26    27    1
@<TRIPOS>MOLECULE
*****
 27 29 0 0 0
SMALL
GASTEIGER

@<TRIPOS>ATOM
      1 O         -12.8045   -6.4852   19.2071 O.2     1  UNL1       -0.2522
      2 C         -13.8324   -5.4513   18.8543 C.2     1  UNL1        0.3077
      3 N         -15.2492   -5.8636   18.5850 N.am    1  UNL1       -0.2681
      4 N         -13.4434   -4.0049   18.7708 N.am    1  UNL1       -0.2636
      5 C         -12.0266   -3.5926   19.0401 C.3     1  UNL1        0.0950
      6 C         -11.6377   -2.1463   18.9566 C.3     1  UNL1        0.0219
      7 C         -12.6656   -1.1124   18.6039 C.3     1  UNL1        0.0075
      8 C         -14.0824   -1.5248   18.3346 C.3     1  UNL1        0.0397
      9 C         -14.4713   -2.9710   18.4181 C.3     1  UNL1        0.0990
     10 H         -15.9238   -5.1850   18.3535 H       1  UNL1        0.1564
     11 C         -15.6382   -7.3100   18.6685 C.ar    1  UNL1        0.0516
     12 C         -15.0185   -8.3083   17.7362 C.ar    1  UNL1        0.0156
     13 C         -15.4075   -9.7545   17.8197 C.ar    1  UNL1        0.0127
     14 C         -16.4162  -10.2024   18.8356 C.ar    1  UNL1        0.0578
     15 CL        -16.8052  -11.6488   18.9191 Cl      1  UNL1       -0.0822
     16 C         -17.0359   -9.2041   19.7679 C.ar    1  UNL1        0.0127
     17 C         -16.6469   -7.7579   19.6844 C.ar    1  UNL1        0.0156
     18 C         -14.1997   -0.0429   18.1333 C.ar    1  UNL1       -0.0211
     19 C         -13.4901    0.6169   16.9882 C.ar    1  UNL1       -0.0042
     20 C         -13.6074    2.0987   16.7869 C.ar    1  UNL1       -0.0003
     21 C         -14.4342    2.9206   17.7307 C.ar    1  UNL1       -0.0000
     22 C         -15.1438    2.2608   18.8758 C.ar    1  UNL1       -0.0003
     23 C         -15.0265    0.7790   19.0771 C.ar    1  UNL1       -0.0042
     24 C         -15.5400   -1.4225   17.9954 C.3     1  UNL1        0.0374
     25 C         -16.5380   -2.2877   18.7062 C.3     1  UNL1        0.1375
     26 O         -17.0808   -1.8665   20.0396 O.3     1  UNL1       -0.3820
     27 H         -16.3662   -1.8705   20.6955 H       1  UNL1        0.2104
@<TRIPOS>BOND
     1     1     2    2
     2     2     3   am
     3     3    11    1
     4    11    12   ar
     5    12    13   ar
     6    13    14   ar
     7    14    15    1
     8    14    16   ar
     9    16    17   ar
    10     2     4   am
    11     4     5    1
    12     5     6    1
    13     6     7    1
    14     7     8    1
    15     8    24    1
    16    24    25    1
    17    25    26    1
    18     8    18    1
    19    18    19   ar
    20    19    20   ar
    21    20    21   ar
    22    21    22   ar
    23    22    23   ar
    24     8     9    1
    25    17    11   ar
    26     9     4    1
    27    23    18   ar
    28     3    10    1
    29    26    27    1
@<TRIPOS>MOLECULE
*****
 27 29 0 0 0
SMALL
GASTEIGER

@<TRIPOS>ATOM
      1 O           1.4171    2.7341   22.0996 O.2     1  UNL1       -0.2522
      2 C           0.0190    2.6005   21.5728 C.2     1  UNL1        0.3077
      3 N          -0.2778    1.6250   20.4727 N.am    1  UNL1       -0.2681
      4 N          -1.0822    3.4425   22.1460 N.am    1  UNL1       -0.2636
      5 C          -0.7853    4.4180   23.2461 C.3     1  UNL1        0.0950
      6 C          -1.8865    5.2599   23.8192 C.3     1  UNL1        0.0219
      7 C          -3.2845    5.1262   23.2924 C.3     1  UNL1        0.0075
      8 C          -3.5814    4.1507   22.1923 C.3     1  UNL1        0.0397
      9 C          -2.4802    3.3088   21.6191 C.3     1  UNL1        0.0990
     10 H          -1.1954    1.5373   20.1269 H       1  UNL1        0.1564
     11 C           0.8234    0.7830   19.8995 C.ar    1  UNL1        0.0516
     12 C           1.2350   -0.4841   20.5886 C.ar    1  UNL1        0.0156
     13 C           2.3361   -1.3259   20.0154 C.ar    1  UNL1        0.0127
     14 C           3.0257   -0.9007   18.7530 C.ar    1  UNL1        0.0578
     15 CL          4.1269   -1.7427   18.1797 Cl      1  UNL1       -0.0822
     16 C           2.6141    0.3664   18.0638 C.ar    1  UNL1        0.0127
     17 C           1.5129    1.2082   18.6370 C.ar    1  UNL1        0.0156
     18 C          -4.9509    4.7229   22.4097 C.ar    1  UNL1       -0.0211
     19 C          -5.2080    6.1760   22.1407 C.ar    1  UNL1       -0.0042
     20 C          -6.5775    6.7481   22.3580 C.ar    1  UNL1       -0.0003
     21 C          -7.6898    5.8671   22.8444 C.ar    1  UNL1       -0.0000
     22 C          -7.4327    4.4139   23.1134 C.ar    1  UNL1       -0.0003
     23 C          -6.0632    3.8418   22.8960 C.ar    1  UNL1       -0.0042
     24 C          -4.3539    3.3739   21.1677 C.3     1  UNL1        0.0374
     25 C          -4.0601    3.5583   19.7084 C.3     1  UNL1        0.1375
     26 O          -5.1662    3.4494   18.7010 O.3     1  UNL1       -0.3820
     27 H          -5.5008    2.5391   18.6854 H       1  UNL1        0.2104
@<TRIPOS>BOND
     1     1     2    2
     2     2     3   am
     3     3    11    1
     4    11    12   ar
     5    12    13   ar
     6    13    14   ar
     7    14    15    1
     8    14    16   ar
     9    16    17   ar
    10     2     4   am
    11     4     5    1
    12     5     6    1
    13     6     7    1
    14     7     8    1
    15     8    24    1
    16    24    25    1
    17    25    26    1
    18     8    18    1
    19    18    19   ar
    20    19    20   ar
    21    20    21   ar
    22    21    22   ar
    23    22    23   ar
    24     8     9    1
    25    17    11   ar
    26     9     4    1
    27    23    18   ar
    28     3    10    1
    29    26    27    1
@<TRIPOS>MOLECULE
*****
 27 29 0 0 0
SMALL
GASTEIGER

@<TRIPOS>ATOM
      1 O           5.2337   -2.1072   27.3663 O.2     1  UNL1       -0.2522
      2 C           5.2839   -2.4315   25.9027 C.2     1  UNL1        0.3077
      3 N           6.1741   -3.5330   25.4086 N.am    1  UNL1       -0.2681
      4 N           4.4437   -1.6543   24.9330 N.am    1  UNL1       -0.2636
      5 C           3.5535   -0.5528   25.4271 C.3     1  UNL1        0.0950
      6 C           2.7134    0.2244   24.4574 C.3     1  UNL1        0.0219
      7 C           2.7635   -0.0999   22.9938 C.3     1  UNL1        0.0075
      8 C           3.6538   -1.2014   22.4997 C.3     1  UNL1        0.0397
      9 C           4.4939   -1.9786   23.4694 C.3     1  UNL1        0.0990
     10 H           6.2070   -3.7459   24.4480 H       1  UNL1        0.1564
     11 C           7.0143   -4.3103   26.3782 C.ar    1  UNL1        0.0516
     12 C           8.4885   -4.0494   26.4702 C.ar    1  UNL1        0.0156
     13 C           9.3286   -4.8266   27.4398 C.ar    1  UNL1        0.0127
     14 C           8.6944   -5.8647   28.3174 C.ar    1  UNL1        0.0578
     15 CL          9.5346   -6.6419   29.2871 Cl      1  UNL1       -0.0822
     16 C           7.2202   -6.1256   28.2255 C.ar    1  UNL1        0.0127
     17 C           6.3801   -5.3483   27.2559 C.ar    1  UNL1        0.0156
     18 C           3.0500   -0.7527   21.2020 C.ar    1  UNL1       -0.0211
     19 C           1.5611   -0.6250   21.0719 C.ar    1  UNL1       -0.0042
     20 C           0.9574   -0.1763   19.7741 C.ar    1  UNL1       -0.0003
     21 C           1.8426    0.1449   18.6066 C.ar    1  UNL1       -0.0000
     22 C           3.3315    0.0172   18.7366 C.ar    1  UNL1       -0.0003
     23 C           3.9352   -0.4315   20.0344 C.ar    1  UNL1       -0.0042
     24 C           4.3344   -2.1471   21.5550 C.3     1  UNL1        0.0374
     25 C           4.6457   -3.5482   21.9909 C.3     1  UNL1        0.1375
     26 O           5.6665   -4.3562   21.2458 O.3     1  UNL1       -0.3820
     27 H           5.3459   -4.5331   20.3476 H       1  UNL1        0.2104
@<TRIPOS>BOND
     1     1     2    2
     2     2     3   am
     3     3    11    1
     4    11    12   ar
     5    12    13   ar
     6    13    14   ar
     7    14    15    1
     8    14    16   ar
     9    16    17   ar
    10     2     4   am
    11     4     5    1
    12     5     6    1
    13     6     7    1
    14     7     8    1
    15     8    24    1
    16    24    25    1
    17    25    26    1
    18     8    18    1
    19    18    19   ar
    20    19    20   ar
    21    20    21   ar
    22    21    22   ar
    23    22    23   ar
    24     8     9    1
    25    17    11   ar
    26     9     4    1
    27    23    18   ar
    28     3    10    1
    29    26    27    1
