@<TRIPOS>MOLECULE
*****
 38 42 0 0 0
SMALL
GASTEIGER

@<TRIPOS>ATOM
      1 C           0.1615    1.4254   21.2272 C.ar    1  UNL1        0.1370
      2 C           0.3928    0.8963   19.8428 C.ar    1  UNL1        0.0367
      3 C           1.4319   -0.1597   19.6075 C.ar    1  UNL1        0.0046
      4 C           2.4138   -0.9038   20.5343 C.ar    1  UNL1        0.0178
      5 C           1.5512    0.0889   21.2557 C.ar    1  UNL1        0.0027
      6 C           0.9691    0.8987   22.3761 C.ar    1  UNL1        0.0413
      7 C           0.7377    1.4278   23.7605 C.3     1  UNL1        0.1721
      8 O           0.8849    1.6126   25.2418 O.3     1  UNL1       -0.3442
      9 C           1.3930    1.4306   26.6413 C.3     1  UNL1        0.1686
     10 C           2.2007    0.9038   27.7903 C.2     1  UNL1        0.0036
     11 C           3.2105    0.0958   28.5502 C.2     1  UNL1        0.0036
     12 C           4.3007   -0.8960   28.8292 C.3     1  UNL1        0.1686
     13 O           5.3397   -1.9519   28.5939 O.3     1  UNL1       -0.3442
     14 C           6.2023   -2.9446   27.8725 C.3     1  UNL1        0.1721
     15 C           6.7844   -3.7544   26.7520 C.ar    1  UNL1        0.0425
     16 C           7.0158   -4.2836   25.3677 C.ar    1  UNL1        0.0158
     17 C           6.8686   -4.4684   23.8864 C.ar    1  UNL1        0.0504
     18 C           7.9485   -5.3740   24.5112 C.ar    1  UNL1        0.0178
     19 C           8.4566   -5.5560   25.9107 C.ar    1  UNL1        0.0379
     20 C           7.8745   -4.7462   27.0312 C.ar    1  UNL1        0.1370
     21 N           6.3605   -4.2863   22.4869 N.pl3   1  UNL1       -0.2825
     22 C           5.5528   -3.7596   21.3378 C.ar    1  UNL1        0.2207
     23 N           5.7842   -4.2887   19.9535 N.ar    1  UNL1       -0.2120
     24 C           4.9765   -3.7620   18.8046 C.ar    1  UNL1        0.1034
     25 C           3.9375   -2.7060   19.0399 C.ar    1  UNL1        0.0399
     26 C           3.7061   -2.1769   20.4242 C.ar    1  UNL1        0.0857
     27 N           4.5138   -2.7036   21.5732 N.ar    1  UNL1       -0.2135
     28 H           6.9266   -4.9379   22.0134 H       1  UNL1        0.1551
     29 C          -1.4882    3.2052   20.2993 C.3     1  UNL1        0.2525
     30 O          -0.8776    2.4814   21.4625 O.3     1  UNL1       -0.4717
     31 O           8.3826   -4.9282   28.4307 O.3     1  UNL1       -0.4742
     32 C           7.8041   -6.0010   29.3051 C.3     1  UNL1        0.2226
     33 C           6.9107   -5.6327   30.4523 C.3     1  UNL1        0.1200
     34 N           7.1857   -4.3916   31.2487 N.3     1  UNL1       -0.2696
     35 C           6.1610   -3.4074   31.7294 C.3     1  UNL1        0.0722
     36 C           6.8757   -2.3244   32.4819 C.3     1  UNL1        0.0188
     37 C           8.3421   -2.6392   32.4662 C.3     1  UNL1        0.0188
     38 C           8.5337   -3.9169   31.7040 C.3     1  UNL1        0.0722
@<TRIPOS>BOND
     1    29    30    1
     2    30     1    1
     3     1     2   ar
     4     2     3   ar
     5     3     4   ar
     6     4     5   ar
     7     5     6   ar
     8     6     7    1
     9     7     8    1
    10     8     9    1
    11     9    10    1
    12    10    11    2
    13    11    12    1
    14    12    13    1
    15    13    14    1
    16    14    15    1
    17    15    16   ar
    18    16    17   ar
    19    17    18   ar
    20    18    19   ar
    21    19    20   ar
    22    20    31    1
    23    31    32    1
    24    32    33    1
    25    33    34    1
    26    34    35    1
    27    35    36    1
    28    36    37    1
    29    37    38    1
    30    17    21    1
    31    21    22    1
    32    22    23   ar
    33    23    24   ar
    34    24    25   ar
    35    25    26   ar
    36    26    27   ar
    37     6     1   ar
    38    20    15   ar
    39    38    34    1
    40    27    22   ar
    41    26     4    1
    42    21    28    1
@<TRIPOS>MOLECULE
*****
 38 42 0 0 0
SMALL
GASTEIGER

@<TRIPOS>ATOM
      1 C           4.1528   -0.5946   33.2606 C.ar    1  UNL1        0.1370
      2 C           3.1648    0.5337   33.2881 C.ar    1  UNL1        0.0367
      3 C           2.5685    1.0398   32.0082 C.ar    1  UNL1        0.0046
      4 C           2.7430    0.6420   30.5289 C.ar    1  UNL1        0.0178
      5 C           3.5758   -0.1793   31.4680 C.ar    1  UNL1        0.0027
      6 C           4.5446   -1.2166   31.9531 C.ar    1  UNL1        0.0413
      7 C           5.5327   -2.3449   31.9256 C.3     1  UNL1        0.1721
      8 O           6.4208   -3.4280   31.3888 O.3     1  UNL1       -0.3442
      9 C           7.1018   -4.3353   30.4075 C.3     1  UNL1        0.1686
     10 C           7.4936   -4.9574   29.1000 C.2     1  UNL1        0.0036
     11 C           7.5490   -5.2192   27.6241 C.2     1  UNL1        0.0036
     12 C           7.2612   -5.0892   26.1577 C.3     1  UNL1        0.1686
     13 O           6.6649   -4.5830   24.8778 O.3     1  UNL1       -0.3442
     14 C           5.8322   -3.7618   23.9387 C.3     1  UNL1        0.1721
     15 C           4.8633   -2.7244   23.4536 C.ar    1  UNL1        0.0425
     16 C           3.8753   -1.5962   23.4811 C.ar    1  UNL1        0.0158
     17 C           2.9872   -0.5130   24.0178 C.ar    1  UNL1        0.0504
     18 C           2.9257   -0.6498   22.4835 C.ar    1  UNL1        0.0178
     19 C           3.6067   -1.5571   21.5021 C.ar    1  UNL1        0.0379
     20 C           4.5756   -2.5944   21.9872 C.ar    1  UNL1        0.1370
     21 N           2.3062    0.3942   24.9992 N.pl3   1  UNL1       -0.2825
     22 C           1.9143    1.0164   26.3067 C.ar    1  UNL1        0.2207
     23 N           0.9263    2.1446   26.3342 N.ar    1  UNL1       -0.2120
     24 C           0.5345    2.7667   27.6416 C.ar    1  UNL1        0.1034
     25 C           1.1307    2.2605   28.9216 C.ar    1  UNL1        0.0399
     26 C           2.1188    1.1322   28.8941 C.ar    1  UNL1        0.0857
     27 N           2.5106    0.5102   27.5866 N.ar    1  UNL1       -0.2135
     28 H           1.7596    0.9333   24.3828 H       1  UNL1        0.1551
     29 C           4.7660   -0.2248   35.7580 C.3     1  UNL1        0.2525
     30 O           4.7491   -1.1008   34.5406 O.3     1  UNL1       -0.4717
     31 O           5.2566   -3.5017   21.0059 O.3     1  UNL1       -0.4742
     32 C           4.4560   -4.1900   19.9403 C.3     1  UNL1        0.2226
     33 C           4.7321   -3.9057   18.4936 C.3     1  UNL1        0.1200
     34 N           5.1254   -2.5237   18.0626 N.3     1  UNL1       -0.2696
     35 C           6.5201   -1.9725   18.0345 C.3     1  UNL1        0.0722
     36 C           6.4497   -0.5586   17.5386 C.3     1  UNL1        0.0188
     37 C           5.0115   -0.2360   17.2603 C.3     1  UNL1        0.0188
     38 C           4.1930   -1.4506   17.5842 C.3     1  UNL1        0.0722
@<TRIPOS>BOND
     1    29    30    1
     2    30     1    1
     3     1     2   ar
     4     2     3   ar
     5     3     4   ar
     6     4     5   ar
     7     5     6   ar
     8     6     7    1
     9     7     8    1
    10     8     9    1
    11     9    10    1
    12    10    11    2
    13    11    12    1
    14    12    13    1
    15    13    14    1
    16    14    15    1
    17    15    16   ar
    18    16    17   ar
    19    17    18   ar
    20    18    19   ar
    21    19    20   ar
    22    20    31    1
    23    31    32    1
    24    32    33    1
    25    33    34    1
    26    34    35    1
    27    35    36    1
    28    36    37    1
    29    37    38    1
    30    17    21    1
    31    21    22    1
    32    22    23   ar
    33    23    24   ar
    34    24    25   ar
    35    25    26   ar
    36    26    27   ar
    37     6     1   ar
    38    20    15   ar
    39    38    34    1
    40    27    22   ar
    41    26     4    1
    42    21    28    1
@<TRIPOS>MOLECULE
*****
 38 42 0 0 0
SMALL
GASTEIGER

@<TRIPOS>ATOM
      1 C           2.8039    0.8628   32.4469 C.ar    1  UNL1        0.1370
      2 C           3.6619    0.1780   33.4691 C.ar    1  UNL1        0.0367
      3 C           4.6551   -0.8609   33.0400 C.ar    1  UNL1        0.0046
      4 C           5.0442   -1.4516   31.6702 C.ar    1  UNL1        0.0178
      5 C           3.9682   -0.4101   31.5848 C.ar    1  UNL1        0.0027
      6 C           2.9391    0.5085   30.9956 C.ar    1  UNL1        0.0413
      7 C           2.0811    1.1932   29.9733 C.3     1  UNL1        0.1721
      8 O           1.4976    1.5616   28.6414 O.3     1  UNL1       -0.3442
      9 C           1.2592    1.5690   27.1605 C.3     1  UNL1        0.1686
     10 C           1.3944    1.2148   25.7093 C.2     1  UNL1        0.0036
     11 C           1.8870    0.5415   24.4626 C.2     1  UNL1        0.0036
     12 C           2.6776   -0.3695   23.5711 C.3     1  UNL1        0.1686
     13 O           3.6708   -1.4085   23.1420 O.3     1  UNL1       -0.3442
     14 C           4.7468   -2.4500   23.2273 C.3     1  UNL1        0.1721
     15 C           5.7759   -3.3686   23.8166 C.ar    1  UNL1        0.0425
     16 C           6.6339   -4.0533   24.8388 C.ar    1  UNL1        0.0158
     17 C           7.2173   -4.4217   26.1707 C.ar    1  UNL1        0.0504
     18 C           7.8340   -5.2057   24.9951 C.ar    1  UNL1        0.0178
     19 C           7.5955   -5.1982   23.5142 C.ar    1  UNL1        0.0379
     20 C           6.5664   -4.2796   22.9249 C.ar    1  UNL1        0.1370
     21 N           7.4558   -4.4291   27.6516 N.pl3   1  UNL1       -0.2825
     22 C           7.3206   -4.0749   29.1029 C.ar    1  UNL1        0.2207
     23 N           8.1786   -4.7596   30.1251 N.ar    1  UNL1       -0.2120
     24 C           8.0434   -4.4054   31.5764 C.ar    1  UNL1        0.1034
     25 C           7.0502   -3.3664   32.0054 C.ar    1  UNL1        0.0399
     26 C           6.1922   -2.6817   30.9832 C.ar    1  UNL1        0.0857
     27 N           6.3274   -3.0359   29.5320 N.ar    1  UNL1       -0.2135
     28 H           8.1620   -5.1128   27.7075 H       1  UNL1        0.1551
     29 C           2.0690    2.7247   34.1031 C.3     1  UNL1        0.2525
     30 O           1.8107    1.9017   32.8759 O.3     1  UNL1       -0.4717
     31 O           6.3279   -4.2722   21.4440 O.3     1  UNL1       -0.4742
     32 C           7.1085   -3.3420   20.5634 C.3     1  UNL1        0.2226
     33 C           6.4428   -2.6836   19.3914 C.3     1  UNL1        0.1200
     34 N           5.1099   -2.0172   19.5630 N.3     1  UNL1       -0.2696
     35 C           4.8713   -0.5414   19.6851 C.3     1  UNL1        0.0722
     36 C           3.3956   -0.3218   19.8401 C.3     1  UNL1        0.0188
     37 C           2.7222   -1.6618   19.8137 C.3     1  UNL1        0.0188
     38 C           3.7817   -2.7097   19.6424 C.3     1  UNL1        0.0722
@<TRIPOS>BOND
     1    29    30    1
     2    30     1    1
     3     1     2   ar
     4     2     3   ar
     5     3     4   ar
     6     4     5   ar
     7     5     6   ar
     8     6     7    1
     9     7     8    1
    10     8     9    1
    11     9    10    1
    12    10    11    2
    13    11    12    1
    14    12    13    1
    15    13    14    1
    16    14    15    1
    17    15    16   ar
    18    16    17   ar
    19    17    18   ar
    20    18    19   ar
    21    19    20   ar
    22    20    31    1
    23    31    32    1
    24    32    33    1
    25    33    34    1
    26    34    35    1
    27    35    36    1
    28    36    37    1
    29    37    38    1
    30    17    21    1
    31    21    22    1
    32    22    23   ar
    33    23    24   ar
    34    24    25   ar
    35    25    26   ar
    36    26    27   ar
    37     6     1   ar
    38    20    15   ar
    39    38    34    1
    40    27    22   ar
    41    26     4    1
    42    21    28    1
@<TRIPOS>MOLECULE
*****
 38 42 0 0 0
SMALL
GASTEIGER

@<TRIPOS>ATOM
      1 C           4.9751   -1.3693   33.2893 C.ar    1  UNL1        0.1370
      2 C           6.1087   -2.3486   33.2126 C.ar    1  UNL1        0.0367
      3 C           6.5616   -2.8688   31.8806 C.ar    1  UNL1        0.0046
      4 C           6.0985   -2.6154   30.4321 C.ar    1  UNL1        0.0178
      5 C           5.3146   -1.8425   31.4510 C.ar    1  UNL1        0.0027
      6 C           4.2944   -0.9103   32.0340 C.ar    1  UNL1        0.0413
      7 C           3.1607    0.0691   32.1106 C.3     1  UNL1        0.1721
      8 O           2.0505    0.9772   31.6718 O.3     1  UNL1       -0.3442
      9 C           1.0976    1.7047   30.7703 C.3     1  UNL1        0.1686
     10 C           0.4169    2.1638   29.5149 C.2     1  UNL1        0.0036
     11 C           0.0905    2.2991   28.0571 C.2     1  UNL1        0.0036
     12 C           0.1579    2.0943   26.5727 C.3     1  UNL1        0.1686
     13 O           0.6108    1.5741   25.2407 O.3     1  UNL1       -0.3442
     14 C           1.3947    0.8012   24.2218 C.3     1  UNL1        0.1721
     15 C           2.4150   -0.1311   23.6388 C.ar    1  UNL1        0.0425
     16 C           3.5486   -1.1104   23.5622 C.ar    1  UNL1        0.0158
     17 C           4.6588   -2.0185   24.0010 C.ar    1  UNL1        0.0504
     18 C           4.4555   -1.9957   22.4729 C.ar    1  UNL1        0.0178
     19 C           3.5026   -1.2682   21.5714 C.ar    1  UNL1        0.0379
     20 C           2.4823   -0.3358   22.1544 C.ar    1  UNL1        0.1370
     21 N           5.6117   -2.7460   24.9025 N.pl3   1  UNL1       -0.2825
     22 C           6.2925   -3.2051   26.1579 C.ar    1  UNL1        0.2207
     23 N           7.4261   -4.1844   26.0812 N.ar    1  UNL1       -0.2120
     24 C           8.1067   -4.6435   27.3365 C.ar    1  UNL1        0.1034
     25 C           7.6538   -4.1233   28.6685 C.ar    1  UNL1        0.0399
     26 C           6.5202   -3.1440   28.7452 C.ar    1  UNL1        0.0857
     27 N           5.8395   -2.6849   27.4899 N.ar    1  UNL1       -0.2135
     28 H           6.1262   -3.2533   24.2337 H       1  UNL1        0.1551
     29 C           5.4625   -0.0493   35.4733 C.3     1  UNL1        0.2525
     30 O           4.5221   -0.8491   34.6213 O.3     1  UNL1       -0.4717
     31 O           1.5293    0.3916   21.2529 O.3     1  UNL1       -0.4742
     32 C           1.0310   -0.2666   20.0005 C.3     1  UNL1        0.2226
     33 C           1.3854    0.3062   18.6603 C.3     1  UNL1        0.1200
     34 N           2.8210    0.3785   18.2313 N.3     1  UNL1       -0.2696
     35 C           3.5296   -0.6098   17.3532 C.3     1  UNL1        0.0722
     36 C           4.9465   -0.1474   17.1844 C.3     1  UNL1        0.0188
     37 C           5.1136    1.1267   17.9581 C.3     1  UNL1        0.0188
     38 C           3.7999    1.4517   18.6051 C.3     1  UNL1        0.0722
@<TRIPOS>BOND
     1    29    30    1
     2    30     1    1
     3     1     2   ar
     4     2     3   ar
     5     3     4   ar
     6     4     5   ar
     7     5     6   ar
     8     6     7    1
     9     7     8    1
    10     8     9    1
    11     9    10    1
    12    10    11    2
    13    11    12    1
    14    12    13    1
    15    13    14    1
    16    14    15    1
    17    15    16   ar
    18    16    17   ar
    19    17    18   ar
    20    18    19   ar
    21    19    20   ar
    22    20    31    1
    23    31    32    1
    24    32    33    1
    25    33    34    1
    26    34    35    1
    27    35    36    1
    28    36    37    1
    29    37    38    1
    30    17    21    1
    31    21    22    1
    32    22    23   ar
    33    23    24   ar
    34    24    25   ar
    35    25    26   ar
    36    26    27   ar
    37     6     1   ar
    38    20    15   ar
    39    38    34    1
    40    27    22   ar
    41    26     4    1
    42    21    28    1
@<TRIPOS>MOLECULE
*****
 38 42 0 0 0
SMALL
GASTEIGER

@<TRIPOS>ATOM
      1 C           4.3626    0.1393   34.1017 C.ar    1  UNL1        0.1370
      2 C           5.4578   -0.8562   34.3459 C.ar    1  UNL1        0.0367
      3 C           6.0337   -1.6339   33.1999 C.ar    1  UNL1        0.0046
      4 C           5.7437   -1.6593   31.6859 C.ar    1  UNL1        0.0178
      5 C           4.8837   -0.6889   32.4400 C.ar    1  UNL1        0.0027
      6 C           3.8434    0.3571   32.7115 C.ar    1  UNL1        0.0413
      7 C           2.7482    1.3526   32.4672 C.3     1  UNL1        0.1721
      8 O           1.7303    2.1775   31.7369 O.3     1  UNL1       -0.3442
      9 C           0.9124    2.7322   30.6085 C.3     1  UNL1        0.1686
     10 C           0.3932    2.9500   29.2182 C.2     1  UNL1        0.0036
     11 C           0.2353    2.8045   27.7336 C.2     1  UNL1        0.0036
     12 C           0.4577    2.3133   26.3339 C.3     1  UNL1        0.1686
     13 O           1.0336    1.5357   25.1878 O.3     1  UNL1       -0.3442
     14 C           1.8936    0.5653   24.4336 C.3     1  UNL1        0.1721
     15 C           2.9339   -0.4807   24.1623 C.ar    1  UNL1        0.0425
     16 C           4.0290   -1.4762   24.4065 C.ar    1  UNL1        0.0158
     17 C           5.0470   -2.3011   25.1368 C.ar    1  UNL1        0.0504
     18 C           5.0145   -2.5727   23.6195 C.ar    1  UNL1        0.0178
     19 C           4.1966   -2.0179   22.4912 C.ar    1  UNL1        0.0379
     20 C           3.1563   -0.9718   22.7625 C.ar    1  UNL1        0.1370
     21 N           5.8648   -2.8558   26.2652 N.pl3   1  UNL1       -0.2825
     22 C           6.3841   -3.0737   27.6555 C.ar    1  UNL1        0.2207
     23 N           7.4792   -4.0691   27.8997 N.ar    1  UNL1       -0.2120
     24 C           7.9985   -4.2869   29.2900 C.ar    1  UNL1        0.1034
     25 C           7.4225   -3.5092   30.4361 C.ar    1  UNL1        0.0399
     26 C           6.3274   -2.5138   30.1919 C.ar    1  UNL1        0.0857
     27 N           5.8082   -2.2960   28.8016 N.ar    1  UNL1       -0.2135
     28 H           6.4293   -3.4927   25.7702 H       1  UNL1        0.1551
     29 C           4.3157    0.7096   36.6360 C.3     1  UNL1        0.2525
     30 O           3.7867    0.9170   35.2478 O.3     1  UNL1       -0.4717
     31 O           2.3384   -0.4171   21.6341 O.3     1  UNL1       -0.4742
     32 C           3.0171    0.2305   20.4636 C.3     1  UNL1        0.2226
     33 C           2.9999   -0.4399   19.1218 C.3     1  UNL1        0.1200
     34 N           3.7604   -1.7156   18.9110 N.3     1  UNL1       -0.2696
     35 C           3.2869   -3.0935   19.2674 C.3     1  UNL1        0.0722
     36 C           4.3617   -4.0667   18.8834 C.3     1  UNL1        0.0188
     37 C           5.4995   -3.2904   18.2896 C.3     1  UNL1        0.0188
     38 C           5.1278   -1.8372   18.3067 C.3     1  UNL1        0.0722
@<TRIPOS>BOND
     1    29    30    1
     2    30     1    1
     3     1     2   ar
     4     2     3   ar
     5     3     4   ar
     6     4     5   ar
     7     5     6   ar
     8     6     7    1
     9     7     8    1
    10     8     9    1
    11     9    10    1
    12    10    11    2
    13    11    12    1
    14    12    13    1
    15    13    14    1
    16    14    15    1
    17    15    16   ar
    18    16    17   ar
    19    17    18   ar
    20    18    19   ar
    21    19    20   ar
    22    20    31    1
    23    31    32    1
    24    32    33    1
    25    33    34    1
    26    34    35    1
    27    35    36    1
    28    36    37    1
    29    37    38    1
    30    17    21    1
    31    21    22    1
    32    22    23   ar
    33    23    24   ar
    34    24    25   ar
    35    25    26   ar
    36    26    27   ar
    37     6     1   ar
    38    20    15   ar
    39    38    34    1
    40    27    22   ar
    41    26     4    1
    42    21    28    1
@<TRIPOS>MOLECULE
*****
 38 42 0 0 0
SMALL
GASTEIGER

@<TRIPOS>ATOM
      1 C           0.2112    1.2817   20.8262 C.ar    1  UNL1        0.1370
      2 C           0.7840    0.3946   19.7609 C.ar    1  UNL1        0.0367
      3 C           1.8642   -0.5880   20.1037 C.ar    1  UNL1        0.0046
      4 C           2.5985   -0.9400   21.4128 C.ar    1  UNL1        0.0178
      5 C           1.5705    0.1397   21.5792 C.ar    1  UNL1        0.0027
      6 C           0.7188    1.1861   22.2345 C.ar    1  UNL1        0.0413
      7 C           0.1461    2.0732   23.3000 C.3     1  UNL1        0.1721
      8 O          -0.0786    2.6939   24.6469 O.3     1  UNL1       -0.3442
      9 C           0.0720    2.9733   26.1129 C.3     1  UNL1        0.1686
     10 C           0.5795    2.8777   27.5212 C.2     1  UNL1        0.0036
     11 C           1.3829    2.4188   28.7019 C.2     1  UNL1        0.0036
     12 C           2.3851    1.6517   29.5125 C.3     1  UNL1        0.1686
     13 O           3.4653    0.6691   29.8554 O.3     1  UNL1       -0.3442
     14 C           4.4933   -0.4105   29.6891 C.3     1  UNL1        0.1721
     15 C           5.3450   -1.4570   29.0337 C.ar    1  UNL1        0.0425
     16 C           5.9177   -2.3440   27.9683 C.ar    1  UNL1        0.0158
     17 C           6.1424   -2.9647   26.6214 C.ar    1  UNL1        0.0504
     18 C           7.0484   -3.5499   27.7230 C.ar    1  UNL1        0.0178
     19 C           7.1989   -3.2705   29.1891 C.ar    1  UNL1        0.0379
     20 C           6.3472   -2.2240   29.8445 C.ar    1  UNL1        0.1370
     21 N           5.9918   -3.2441   25.1554 N.pl3   1  UNL1       -0.2825
     22 C           5.4843   -3.1486   23.7470 C.ar    1  UNL1        0.2207
     23 N           6.0570   -4.0357   22.6816 N.ar    1  UNL1       -0.2120
     24 C           5.5494   -3.9401   21.2734 C.ar    1  UNL1        0.1034
     25 C           4.4692   -2.9575   20.9305 C.ar    1  UNL1        0.0399
     26 C           3.8965   -2.0704   21.9959 C.ar    1  UNL1        0.0857
     27 N           4.4040   -2.1660   23.4042 N.ar    1  UNL1       -0.2135
     28 H           6.6665   -3.9527   25.0462 H       1  UNL1        0.1551
     29 C          -0.6829    3.2139   19.3373 C.3     1  UNL1        0.2525
     30 O          -0.8690    2.2643   20.4834 O.3     1  UNL1       -0.4717
     31 O           6.4978   -1.9446   31.3105 O.3     1  UNL1       -0.4742
     32 C           5.8394   -2.8417   32.3164 C.3     1  UNL1        0.2226
     33 C           4.5310   -2.4441   32.9328 C.3     1  UNL1        0.1200
     34 N           4.4181   -1.1508   33.6844 N.3     1  UNL1       -0.2696
     35 C           5.0296   -0.8517   35.0210 C.3     1  UNL1        0.0722
     36 C           4.6634    0.5543   35.3939 C.3     1  UNL1        0.0188
     37 C           3.8257    1.1241   34.2878 C.3     1  UNL1        0.0188
     38 C           3.6741    0.0702   33.2312 C.3     1  UNL1        0.0722
@<TRIPOS>BOND
     1    29    30    1
     2    30     1    1
     3     1     2   ar
     4     2     3   ar
     5     3     4   ar
     6     4     5   ar
     7     5     6   ar
     8     6     7    1
     9     7     8    1
    10     8     9    1
    11     9    10    1
    12    10    11    2
    13    11    12    1
    14    12    13    1
    15    13    14    1
    16    14    15    1
    17    15    16   ar
    18    16    17   ar
    19    17    18   ar
    20    18    19   ar
    21    19    20   ar
    22    20    31    1
    23    31    32    1
    24    32    33    1
    25    33    34    1
    26    34    35    1
    27    35    36    1
    28    36    37    1
    29    37    38    1
    30    17    21    1
    31    21    22    1
    32    22    23   ar
    33    23    24   ar
    34    24    25   ar
    35    25    26   ar
    36    26    27   ar
    37     6     1   ar
    38    20    15   ar
    39    38    34    1
    40    27    22   ar
    41    26     4    1
    42    21    28    1
@<TRIPOS>MOLECULE
*****
 38 42 0 0 0
SMALL
GASTEIGER

@<TRIPOS>ATOM
      1 C           4.2543   -0.4059   32.9595 C.ar    1  UNL1        0.1370
      2 C           5.3256   -1.3863   33.3352 C.ar    1  UNL1        0.0367
      3 C           5.9873   -2.2167   32.2757 C.ar    1  UNL1        0.0046
      4 C           5.8154   -2.3151   30.7467 C.ar    1  UNL1        0.0178
      5 C           4.9012   -1.3115   31.3847 C.ar    1  UNL1        0.0027
      6 C           3.8447   -0.2559   31.5244 C.ar    1  UNL1        0.0413
      7 C           2.7734    0.7245   31.1487 C.3     1  UNL1        0.1721
      8 O           1.8165    1.5114   30.3031 O.3     1  UNL1       -0.3442
      9 C           1.0894    2.0099   29.0895 C.3     1  UNL1        0.1686
     10 C           0.6798    2.1599   27.6543 C.2     1  UNL1        0.0036
     11 C           0.6371    1.9432   26.1706 C.2     1  UNL1        0.0036
     12 C           0.9664    1.3861   24.8175 C.3     1  UNL1        0.1686
     13 O           1.6281    0.5557   23.7580 O.3     1  UNL1       -0.3442
     14 C           2.5423   -0.4479   23.1200 C.3     1  UNL1        0.1721
     15 C           3.5988   -1.5035   22.9803 C.ar    1  UNL1        0.0425
     16 C           4.6701   -2.4839   23.3560 C.ar    1  UNL1        0.0158
     17 C           5.6270   -3.2708   24.2016 C.ar    1  UNL1        0.0504
     18 C           5.7117   -3.6148   22.7011 C.ar    1  UNL1        0.0178
     19 C           4.9846   -3.1163   21.4875 C.ar    1  UNL1        0.0379
     20 C           3.9281   -2.0606   21.6271 C.ar    1  UNL1        0.1370
     21 N           6.3541   -3.7693   25.4152 N.pl3   1  UNL1       -0.2825
     22 C           6.7638   -3.9193   26.8504 C.ar    1  UNL1        0.2207
     23 N           7.8351   -4.8997   27.2260 N.ar    1  UNL1       -0.2120
     24 C           8.2446   -5.0496   28.6612 C.ar    1  UNL1        0.1034
     25 C           7.5830   -4.2192   29.7207 C.ar    1  UNL1        0.0399
     26 C           6.5117   -3.2388   29.3450 C.ar    1  UNL1        0.0857
     27 N           6.1021   -3.0889   27.9099 N.ar    1  UNL1       -0.2135
     28 H           6.9542   -4.4280   24.9964 H       1  UNL1        0.1551
     29 C           4.3400    0.7780   35.2706 C.3     1  UNL1        0.2525
     30 O           3.5926    0.4245   34.0190 O.3     1  UNL1       -0.4717
     31 O           3.2010   -1.5621   20.4135 O.3     1  UNL1       -0.4742
     32 C           3.7794   -1.7867   19.0478 C.3     1  UNL1        0.2226
     33 C           3.5591   -0.7731   17.9643 C.3     1  UNL1        0.1200
     34 N           2.7692    0.4699   18.2493 N.3     1  UNL1       -0.2696
     35 C           1.2803    0.5502   18.4127 C.3     1  UNL1        0.0722
     36 C           0.9204    1.9806   18.6853 C.3     1  UNL1        0.0188
     37 C           2.1869    2.7844   18.6903 C.3     1  UNL1        0.0188
     38 C           3.3295    1.8506   18.4208 C.3     1  UNL1        0.0722
@<TRIPOS>BOND
     1    29    30    1
     2    30     1    1
     3     1     2   ar
     4     2     3   ar
     5     3     4   ar
     6     4     5   ar
     7     5     6   ar
     8     6     7    1
     9     7     8    1
    10     8     9    1
    11     9    10    1
    12    10    11    2
    13    11    12    1
    14    12    13    1
    15    13    14    1
    16    14    15    1
    17    15    16   ar
    18    16    17   ar
    19    17    18   ar
    20    18    19   ar
    21    19    20   ar
    22    20    31    1
    23    31    32    1
    24    32    33    1
    25    33    34    1
    26    34    35    1
    27    35    36    1
    28    36    37    1
    29    37    38    1
    30    17    21    1
    31    21    22    1
    32    22    23   ar
    33    23    24   ar
    34    24    25   ar
    35    25    26   ar
    36    26    27   ar
    37     6     1   ar
    38    20    15   ar
    39    38    34    1
    40    27    22   ar
    41    26     4    1
    42    21    28    1
@<TRIPOS>MOLECULE
*****
 38 42 0 0 0
SMALL
GASTEIGER

@<TRIPOS>ATOM
      1 C           2.0941    1.7189   32.5336 C.ar    1  UNL1        0.1370
      2 C           0.9917    2.6625   32.1538 C.ar    1  UNL1        0.0367
      3 C           0.5724    2.7873   30.7191 C.ar    1  UNL1        0.0046
      4 C           1.0467    2.1152   29.4152 C.ar    1  UNL1        0.0178
      5 C           1.7934    1.6498   30.6301 C.ar    1  UNL1        0.0027
      6 C           2.7772    0.9002   31.4787 C.ar    1  UNL1        0.0413
      7 C           3.8797   -0.0435   31.8584 C.3     1  UNL1        0.1721
      8 O           4.9677   -1.0672   31.7237 O.3     1  UNL1       -0.3442
      9 C           5.9101   -2.0475   31.0906 C.3     1  UNL1        0.1686
     10 C           6.5932   -2.8663   30.0356 C.2     1  UNL1        0.0036
     11 C           6.9346   -3.4247   28.6859 C.2     1  UNL1        0.0036
     12 C           6.8931   -3.6553   27.2044 C.3     1  UNL1        0.1686
     13 O           6.4738   -3.5305   25.7696 O.3     1  UNL1       -0.3442
     14 C           5.7272   -3.0652   24.5547 C.3     1  UNL1        0.1721
     15 C           4.7433   -2.3155   23.7062 C.ar    1  UNL1        0.0425
     16 C           3.6409   -1.3719   23.3264 C.ar    1  UNL1        0.0158
     17 C           2.5529   -0.3482   23.4611 C.ar    1  UNL1        0.0504
     18 C           2.7756   -0.8162   22.0091 C.ar    1  UNL1        0.0178
     19 C           3.7180   -1.7965   21.3761 C.ar    1  UNL1        0.0379
     20 C           4.7019   -2.5462   22.2246 C.ar    1  UNL1        0.1370
     21 N           1.6105    0.6322   24.0942 N.pl3   1  UNL1       -0.2825
     22 C           0.9273    1.4510   25.1492 C.ar    1  UNL1        0.2207
     23 N          -0.1751    2.3945   24.7694 N.ar    1  UNL1       -0.2120
     24 C          -0.8582    3.2133   25.8244 C.ar    1  UNL1        0.1034
     25 C          -0.4388    3.0884   27.2592 C.ar    1  UNL1        0.0399
     26 C           0.6636    2.1448   27.6390 C.ar    1  UNL1        0.0857
     27 N           1.3466    1.3261   26.5840 N.ar    1  UNL1       -0.2135
     28 H           1.1204    0.9376   23.2968 H       1  UNL1        0.1551
     29 C           2.4358    2.7837   34.8787 C.3     1  UNL1        0.2525
     30 O           2.5134    1.5941   33.9684 O.3     1  UNL1       -0.4717
     31 O           5.6443   -3.5266   21.5915 O.3     1  UNL1       -0.4742
     32 C           5.6804   -3.6758   20.0994 C.3     1  UNL1        0.2226
     33 C           6.5085   -2.7381   19.2718 C.3     1  UNL1        0.1200
     34 N           5.8398   -1.7551   18.3570 N.3     1  UNL1       -0.2696
     35 C           4.4253   -1.8311   17.8637 C.3     1  UNL1        0.0722
     36 C           4.1795   -0.6466   16.9769 C.3     1  UNL1        0.0188
     37 C           5.4421    0.1614   16.9221 C.3     1  UNL1        0.0188
     38 C           6.4682   -0.5237   17.7752 C.3     1  UNL1        0.0722
@<TRIPOS>BOND
     1    29    30    1
     2    30     1    1
     3     1     2   ar
     4     2     3   ar
     5     3     4   ar
     6     4     5   ar
     7     5     6   ar
     8     6     7    1
     9     7     8    1
    10     8     9    1
    11     9    10    1
    12    10    11    2
    13    11    12    1
    14    12    13    1
    15    13    14    1
    16    14    15    1
    17    15    16   ar
    18    16    17   ar
    19    17    18   ar
    20    18    19   ar
    21    19    20   ar
    22    20    31    1
    23    31    32    1
    24    32    33    1
    25    33    34    1
    26    34    35    1
    27    35    36    1
    28    36    37    1
    29    37    38    1
    30    17    21    1
    31    21    22    1
    32    22    23   ar
    33    23    24   ar
    34    24    25   ar
    35    25    26   ar
    36    26    27   ar
    37     6     1   ar
    38    20    15   ar
    39    38    34    1
    40    27    22   ar
    41    26     4    1
    42    21    28    1
@<TRIPOS>MOLECULE
*****
 38 42 0 0 0
SMALL
GASTEIGER

@<TRIPOS>ATOM
      1 C           0.1124    1.3061   20.9738 C.ar    1  UNL1        0.1370
      2 C           0.4341    0.7088   19.6360 C.ar    1  UNL1        0.0367
      3 C           1.5070   -0.3329   19.5182 C.ar    1  UNL1        0.0046
      4 C           2.4493   -1.0021   20.5384 C.ar    1  UNL1        0.0178
      5 C           1.5260    0.0069   21.1543 C.ar    1  UNL1        0.0027
      6 C           0.8634    0.8616   22.1937 C.ar    1  UNL1        0.0413
      7 C           0.5417    1.4589   23.5316 C.3     1  UNL1        0.1721
      8 O           0.5995    1.7267   25.0064 O.3     1  UNL1       -0.3442
      9 C           1.0299    1.6327   26.4402 C.3     1  UNL1        0.1686
     10 C           1.7810    1.1883   27.6601 C.2     1  UNL1        0.0036
     11 C           2.7622    0.4470   28.5191 C.2     1  UNL1        0.0036
     12 C           3.8551   -0.5017   28.9135 C.3     1  UNL1        0.1686
     13 O           4.9279   -1.5434   28.7956 O.3     1  UNL1       -0.3442
     14 C           5.8513   -2.5524   28.1799 C.3     1  UNL1        0.1721
     15 C           6.5138   -3.4071   27.1403 C.ar    1  UNL1        0.0425
     16 C           6.8356   -4.0044   25.8026 C.ar    1  UNL1        0.0158
     17 C           6.7778   -4.2722   24.3278 C.ar    1  UNL1        0.0504
     18 C           7.8388   -5.1165   25.0614 C.ar    1  UNL1        0.0178
     19 C           8.2693   -5.2105   26.4952 C.ar    1  UNL1        0.0379
     20 C           7.6067   -4.3558   27.5348 C.ar    1  UNL1        0.1370
     21 N           6.3474   -4.1782   22.8940 N.pl3   1  UNL1       -0.2825
     22 C           5.5963   -3.7337   21.6739 C.ar    1  UNL1        0.2207
     23 N           5.9180   -4.3310   20.3361 N.ar    1  UNL1       -0.2120
     24 C           5.1670   -3.8866   19.1162 C.ar    1  UNL1        0.1034
     25 C           4.0941   -2.8449   19.2340 C.ar    1  UNL1        0.0399
     26 C           3.7723   -2.2476   20.5718 C.ar    1  UNL1        0.0857
     27 N           4.5234   -2.6920   21.7917 N.ar    1  UNL1       -0.2135
     28 H           6.9534   -4.8404   22.4898 H       1  UNL1        0.1551
     29 C          -0.8843    3.5993   20.2684 C.3     1  UNL1        0.2525
     30 O          -0.9605    2.3477   21.0916 O.3     1  UNL1       -0.4717
     31 O           8.0371   -4.4498   28.9686 O.3     1  UNL1       -0.4742
     32 C           9.3743   -3.9140   29.3869 C.3     1  UNL1        0.2226
     33 C           9.4577   -2.6506   30.1912 C.3     1  UNL1        0.1200
     34 N           8.8741   -1.3783   29.6520 N.3     1  UNL1       -0.2696
     35 C           9.0917   -0.8223   28.2760 C.3     1  UNL1        0.0722
     36 C           8.3226    0.4610   28.1676 C.3     1  UNL1        0.0188
     37 C           7.6297    0.6980   29.4767 C.3     1  UNL1        0.0188
     38 C           7.9706   -0.4388   30.3940 C.3     1  UNL1        0.0722
@<TRIPOS>BOND
     1    29    30    1
     2    30     1    1
     3     1     2   ar
     4     2     3   ar
     5     3     4   ar
     6     4     5   ar
     7     5     6   ar
     8     6     7    1
     9     7     8    1
    10     8     9    1
    11     9    10    1
    12    10    11    2
    13    11    12    1
    14    12    13    1
    15    13    14    1
    16    14    15    1
    17    15    16   ar
    18    16    17   ar
    19    17    18   ar
    20    18    19   ar
    21    19    20   ar
    22    20    31    1
    23    31    32    1
    24    32    33    1
    25    33    34    1
    26    34    35    1
    27    35    36    1
    28    36    37    1
    29    37    38    1
    30    17    21    1
    31    21    22    1
    32    22    23   ar
    33    23    24   ar
    34    24    25   ar
    35    25    26   ar
    36    26    27   ar
    37     6     1   ar
    38    20    15   ar
    39    38    34    1
    40    27    22   ar
    41    26     4    1
    42    21    28    1
