@<TRIPOS>MOLECULE
*****
 39 44 0 0 0
SMALL
GASTEIGER

@<TRIPOS>ATOM
      1 C           3.9821   -2.5604   20.0395 C.2     1  UNL1        0.2553
      2 O           3.3143   -3.7140   19.3515 O.2     1  UNL1       -0.2720
      3 N           3.1814   -1.3525   20.4266 N.am    1  UNL1       -0.2773
      4 C           1.7129   -1.2982   20.1258 C.3     1  UNL1        0.0952
      5 C           0.9122   -0.0903   20.5129 C.3     1  UNL1        0.0416
      6 C           1.5801    1.0633   21.2009 C.3     1  UNL1        0.0806
      7 C           3.0486    1.0090   21.5017 C.3     1  UNL1        0.0416
      8 C           3.8492   -0.1989   21.1145 C.3     1  UNL1        0.0952
      9 N           0.7794    2.2712   21.5880 N.pl3   1  UNL1       -0.2876
     10 C           0.2039    2.3784   22.9691 C.ar    1  UNL1        0.0576
     11 C           0.4291    1.2778   23.9630 C.ar    1  UNL1        0.0153
     12 C          -0.1463    1.3851   25.3440 C.ar    1  UNL1        0.0013
     13 C          -0.9470    2.5930   25.7312 C.ar    1  UNL1        0.0006
     14 C          -1.1723    3.6936   24.7373 C.ar    1  UNL1        0.0077
     15 C          -0.5968    3.5863   23.3563 C.ar    1  UNL1        0.0431
     16 S          -0.8220    4.6870   22.3623 S.3     1  UNL1       -0.0844
     17 C          -0.2466    4.5797   20.9812 C.ar    1  UNL1        0.0431
     18 C          -0.4718    5.6804   19.9873 C.ar    1  UNL1        0.0077
     19 C           0.1037    5.5731   18.6062 C.ar    1  UNL1        0.0006
     20 C           0.9044    4.3652   18.2191 C.ar    1  UNL1        0.0013
     21 C           1.1296    3.2646   19.2130 C.ar    1  UNL1        0.0153
     22 C           0.5541    3.3718   20.5941 C.ar    1  UNL1        0.0576
     23 N           7.3236   -3.5555   22.4867 N.3     1  UNL1       -0.2688
     24 C           7.8674   -2.9080   21.2476 C.3     1  UNL1        0.0756
     25 C           6.9309   -2.4377   20.1745 C.3     1  UNL1        0.0590
     26 C           5.4506   -2.6147   20.3403 C.3     1  UNL1        0.2042
     27 F           5.4844   -1.9484   18.9969 F       1  UNL1       -0.2306
     28 C           4.9068   -3.2622   21.5793 C.3     1  UNL1        0.0590
     29 C           5.8434   -3.7326   22.6524 C.3     1  UNL1        0.0756
     30 C           8.2601   -4.0259   23.5598 C.3     1  UNL1        0.0993
     31 N           5.8271   -5.7504   27.8151 N.pl3   1  UNL1       -0.3426
     32 C           6.6452   -6.0204   26.5871 C.ar    1  UNL1        0.1251
     33 C           7.0436   -4.8881   25.6874 C.ar    1  UNL1        0.0310
     34 C           7.8617   -5.1581   24.4595 C.ar    1  UNL1       -0.0018
     35 C           8.2814   -6.5602   24.1312 C.ar    1  UNL1        0.0179
     36 C           7.8829   -7.6925   25.0309 C.ar    1  UNL1        0.1000
     37 N           7.0649   -7.4225   26.2588 N.ar    1  UNL1       -0.2296
     38 H           5.5517   -4.8301   28.0305 H       1  UNL1        0.1437
     39 H           5.5656   -6.4935   28.4055 H       1  UNL1        0.1437
@<TRIPOS>BOND
     1    31    32    1
     2    32    33   ar
     3    33    34   ar
     4    34    30    1
     5    30    23    1
     6    23    24    1
     7    24    25    1
     8    25    26    1
     9    26    27    1
    10    26     1    1
    11     1     2    2
    12     1     3   am
    13     3     4    1
    14     4     5    1
    15     5     6    1
    16     6     9    1
    17     9    10    1
    18    10    11   ar
    19    11    12   ar
    20    12    13   ar
    21    13    14   ar
    22    14    15   ar
    23    15    16    1
    24    16    17    1
    25    17    18   ar
    26    18    19   ar
    27    19    20   ar
    28    20    21   ar
    29    21    22   ar
    30     6     7    1
    31     7     8    1
    32    26    28    1
    33    28    29    1
    34    34    35   ar
    35    35    36   ar
    36    36    37   ar
    37    37    32   ar
    38    29    23    1
    39     8     3    1
    40    22     9    1
    41    15    10   ar
    42    22    17   ar
    43    31    38    1
    44    31    39    1
@<TRIPOS>MOLECULE
*****
 39 44 0 0 0
SMALL
GASTEIGER

@<TRIPOS>ATOM
      1 C           3.9933   -2.5688   20.0457 C.2     1  UNL1        0.2553
      2 O           3.3282   -3.7227   19.3556 O.2     1  UNL1       -0.2720
      3 N           3.1920   -1.3590   20.4253 N.am    1  UNL1       -0.2773
      4 C           1.7255   -1.3031   20.1148 C.3     1  UNL1        0.0952
      5 C           0.9241   -0.0932   20.4944 C.3     1  UNL1        0.0416
      6 C           1.5892    1.0607   21.1845 C.3     1  UNL1        0.0806
      7 C           3.0556    1.0047   21.4949 C.3     1  UNL1        0.0416
      8 C           3.8570   -0.2051   21.1153 C.3     1  UNL1        0.0952
      9 N           0.7878    2.2705   21.5641 N.pl3   1  UNL1       -0.2876
     10 C           0.5608    3.3642   20.5628 C.ar    1  UNL1        0.0576
     11 C           1.1351    3.2479   19.1821 C.ar    1  UNL1        0.0153
     12 C           0.9080    4.3415   18.1809 C.ar    1  UNL1        0.0013
     13 C           0.1066    5.5514   18.5605 C.ar    1  UNL1        0.0006
     14 C          -0.4677    5.6676   19.9413 C.ar    1  UNL1        0.0077
     15 C          -0.2406    4.5740   20.9425 C.ar    1  UNL1        0.0431
     16 S          -0.8149    4.6902   22.3233 S.3     1  UNL1       -0.0844
     17 C          -0.5878    3.5966   23.3245 C.ar    1  UNL1        0.0431
     18 C          -1.1622    3.7128   24.7054 C.ar    1  UNL1        0.0077
     19 C          -0.9351    2.6192   25.7066 C.ar    1  UNL1        0.0006
     20 C          -0.1337    1.4093   25.3270 C.ar    1  UNL1        0.0013
     21 C           0.4406    1.2931   23.9462 C.ar    1  UNL1        0.0153
     22 C           0.2135    2.3867   22.9449 C.ar    1  UNL1        0.0576
     23 N           7.3160   -3.5435   22.5265 N.3     1  UNL1       -0.2688
     24 C           7.8698   -2.9151   21.2821 C.3     1  UNL1        0.0756
     25 C           6.9417   -2.4557   20.1970 C.3     1  UNL1        0.0590
     26 C           5.4598   -2.6248   20.3561 C.3     1  UNL1        0.2042
     27 F           5.5043   -1.9770   19.0040 F       1  UNL1       -0.2306
     28 C           4.9059   -3.2532   21.6005 C.3     1  UNL1        0.0590
     29 C           5.8341   -3.7125   22.6856 C.3     1  UNL1        0.0756
     30 C           8.2441   -4.0028   23.6116 C.3     1  UNL1        0.0993
     31 N           5.8173   -5.7621   27.8561 N.pl3   1  UNL1       -0.3426
     32 C           6.6358   -6.0217   26.6261 C.ar    1  UNL1        0.1251
     33 C           7.0307   -4.8825   25.7339 C.ar    1  UNL1        0.0310
     34 C           7.8491   -5.1420   24.5039 C.ar    1  UNL1       -0.0018
     35 C           8.2726   -6.5408   24.1662 C.ar    1  UNL1        0.0179
     36 C           7.8776   -7.6801   25.0585 C.ar    1  UNL1        0.1000
     37 N           7.0592   -7.4205   26.2884 N.ar    1  UNL1       -0.2296
     38 H           5.5394   -4.8440   28.0778 H       1  UNL1        0.1437
     39 H           5.5581   -6.5098   28.4418 H       1  UNL1        0.1437
@<TRIPOS>BOND
     1    31    32    1
     2    32    33   ar
     3    33    34   ar
     4    34    30    1
     5    30    23    1
     6    23    24    1
     7    24    25    1
     8    25    26    1
     9    26    27    1
    10    26     1    1
    11     1     2    2
    12     1     3   am
    13     3     4    1
    14     4     5    1
    15     5     6    1
    16     6     9    1
    17     9    10    1
    18    10    11   ar
    19    11    12   ar
    20    12    13   ar
    21    13    14   ar
    22    14    15   ar
    23    15    16    1
    24    16    17    1
    25    17    18   ar
    26    18    19   ar
    27    19    20   ar
    28    20    21   ar
    29    21    22   ar
    30     6     7    1
    31     7     8    1
    32    26    28    1
    33    28    29    1
    34    34    35   ar
    35    35    36   ar
    36    36    37   ar
    37    37    32   ar
    38    29    23    1
    39     8     3    1
    40    22     9    1
    41    15    10   ar
    42    22    17   ar
    43    31    38    1
    44    31    39    1
@<TRIPOS>MOLECULE
*****
 39 44 0 0 0
SMALL
GASTEIGER

@<TRIPOS>ATOM
      1 C           7.6337   -2.3376   20.5877 C.2     1  UNL1        0.2553
      2 O           8.8684   -1.6704   20.0582 O.2     1  UNL1       -0.2720
      3 N           7.6023   -2.8460   21.9985 N.am    1  UNL1       -0.2773
      4 C           8.8057   -2.6873   22.8799 C.3     1  UNL1        0.0952
      5 C           8.7743   -3.1957   24.2907 C.3     1  UNL1        0.0416
      6 C           7.5395   -3.8629   24.8202 C.3     1  UNL1        0.0806
      7 C           6.3362   -4.0216   23.9389 C.3     1  UNL1        0.0416
      8 C           6.3676   -3.5132   22.5280 C.3     1  UNL1        0.0952
      9 N           7.5082   -4.3714   26.2311 N.pl3   1  UNL1       -0.2876
     10 C           7.0096   -3.4876   27.3358 C.ar    1  UNL1        0.0576
     11 C           6.5424   -2.0955   27.0297 C.ar    1  UNL1        0.0153
     12 C           6.0438   -1.2119   28.1345 C.ar    1  UNL1        0.0013
     13 C           6.0124   -1.7203   29.5454 C.ar    1  UNL1        0.0006
     14 C           6.4796   -3.1124   29.8515 C.ar    1  UNL1        0.0077
     15 C           6.9782   -3.9961   28.7467 C.ar    1  UNL1        0.0431
     16 S           7.4454   -5.3882   29.0528 S.3     1  UNL1       -0.0844
     17 C           7.9440   -6.2719   27.9480 C.ar    1  UNL1        0.0431
     18 C           8.4112   -7.6641   28.2541 C.ar    1  UNL1        0.0077
     19 C           8.9098   -8.5477   27.1493 C.ar    1  UNL1        0.0006
     20 C           8.9412   -8.0393   25.7385 C.ar    1  UNL1        0.0013
     21 C           8.4740   -6.6472   25.4324 C.ar    1  UNL1        0.0153
     22 C           7.9754   -5.7634   26.5372 C.ar    1  UNL1        0.0576
     23 N           4.2224   -0.8524   18.5135 N.3     1  UNL1       -0.2688
     24 C           4.2925   -2.3255   18.2398 C.3     1  UNL1        0.0756
     25 C           5.3965   -3.1474   18.8362 C.3     1  UNL1        0.0590
     26 C           6.4303   -2.4963   19.7063 C.3     1  UNL1        0.2042
     27 F           6.9184   -3.9142   19.7387 F       1  UNL1       -0.2306
     28 C           6.3602   -1.0231   19.9801 C.3     1  UNL1        0.0590
     29 C           5.2563   -0.2012   19.3837 C.3     1  UNL1        0.0756
     30 C           3.1185   -0.0304   17.9172 C.3     1  UNL1        0.0993
     31 N          -0.4993    3.5049   19.1062 N.pl3   1  UNL1       -0.3426
     32 C           0.1607    2.1833   19.3668 C.ar    1  UNL1        0.1251
     33 C           1.3096    1.7372   18.5117 C.ar    1  UNL1        0.0310
     34 C           1.9696    0.4156   18.7723 C.ar    1  UNL1       -0.0018
     35 C           1.4807   -0.4598   19.8878 C.ar    1  UNL1        0.0179
     36 C           0.3318   -0.0138   20.7429 C.ar    1  UNL1        0.1000
     37 N          -0.3281    1.3078   20.4823 N.ar    1  UNL1       -0.2296
     38 H          -0.1784    4.0795   18.3740 H       1  UNL1        0.1437
     39 H          -1.2534    3.7976   19.6674 H       1  UNL1        0.1437
@<TRIPOS>BOND
     1    31    32    1
     2    32    33   ar
     3    33    34   ar
     4    34    30    1
     5    30    23    1
     6    23    24    1
     7    24    25    1
     8    25    26    1
     9    26    27    1
    10    26     1    1
    11     1     2    2
    12     1     3   am
    13     3     4    1
    14     4     5    1
    15     5     6    1
    16     6     9    1
    17     9    10    1
    18    10    11   ar
    19    11    12   ar
    20    12    13   ar
    21    13    14   ar
    22    14    15   ar
    23    15    16    1
    24    16    17    1
    25    17    18   ar
    26    18    19   ar
    27    19    20   ar
    28    20    21   ar
    29    21    22   ar
    30     6     7    1
    31     7     8    1
    32    26    28    1
    33    28    29    1
    34    34    35   ar
    35    35    36   ar
    36    36    37   ar
    37    37    32   ar
    38    29    23    1
    39     8     3    1
    40    22     9    1
    41    15    10   ar
    42    22    17   ar
    43    31    38    1
    44    31    39    1
@<TRIPOS>MOLECULE
*****
 39 44 0 0 0
SMALL
GASTEIGER

@<TRIPOS>ATOM
      1 C           7.4103   -2.3131   20.4662 C.2     1  UNL1        0.2553
      2 O           8.6533   -1.6995   19.8929 O.2     1  UNL1       -0.2720
      3 N           7.4070   -2.8211   21.8776 N.am    1  UNL1       -0.2773
      4 C           8.6466   -2.7154   22.7156 C.3     1  UNL1        0.0952
      5 C           8.6433   -3.2234   24.1270 C.3     1  UNL1        0.0416
      6 C           7.4004   -3.8370   24.7003 C.3     1  UNL1        0.0806
      7 C           6.1608   -3.9426   23.8623 C.3     1  UNL1        0.0416
      8 C           6.1641   -3.4347   22.4509 C.3     1  UNL1        0.0952
      9 N           7.3970   -4.3450   26.1117 N.pl3   1  UNL1       -0.2876
     10 C           7.8465   -5.7456   26.4057 C.ar    1  UNL1        0.0576
     11 C           8.2992   -6.6381   25.2885 C.ar    1  UNL1        0.0153
     12 C           8.7486   -8.0387   25.5825 C.ar    1  UNL1        0.0013
     13 C           8.7453   -8.5466   26.9939 C.ar    1  UNL1        0.0006
     14 C           8.2926   -7.6541   28.1112 C.ar    1  UNL1        0.0077
     15 C           7.8432   -6.2536   27.8171 C.ar    1  UNL1        0.0431
     16 S           7.3904   -5.3609   28.9344 S.3     1  UNL1       -0.0844
     17 C           6.9410   -3.9604   28.6403 C.ar    1  UNL1        0.0431
     18 C           6.4882   -3.0678   29.7576 C.ar    1  UNL1        0.0077
     19 C           6.0388   -1.6673   29.4635 C.ar    1  UNL1        0.0006
     20 C           6.0421   -1.1593   28.0522 C.ar    1  UNL1        0.0013
     21 C           6.4949   -2.0518   26.9349 C.ar    1  UNL1        0.0153
     22 C           6.9443   -3.4525   27.2290 C.ar    1  UNL1        0.0576
     23 N           4.0125   -0.6751   18.4874 N.3     1  UNL1       -0.2688
     24 C           3.9958   -2.1531   18.2322 C.3     1  UNL1        0.0756
     25 C           5.0749   -3.0249   18.8026 C.3     1  UNL1        0.0590
     26 C           6.1708   -2.4187   19.6282 C.3     1  UNL1        0.2042
     27 F           6.5846   -3.8600   19.6640 F       1  UNL1       -0.2306
     28 C           6.1875   -0.9406   19.8834 C.3     1  UNL1        0.0590
     29 C           5.1083   -0.0689   19.3130 C.3     1  UNL1        0.0756
     30 C           2.9333    0.1968   17.9170 C.3     1  UNL1        0.0993
     31 N          -0.6224    3.7688   19.1808 N.pl3   1  UNL1       -0.3426
     32 C           0.0179    2.4330   19.4169 C.ar    1  UNL1        0.1251
     33 C           1.1554    1.9828   18.5489 C.ar    1  UNL1        0.0310
     34 C           1.7958    0.6470   18.7849 C.ar    1  UNL1       -0.0018
     35 C           1.2986   -0.2385   19.8888 C.ar    1  UNL1        0.0179
     36 C           0.1610    0.2117   20.7568 C.ar    1  UNL1        0.1000
     37 N          -0.4792    1.5475   20.5207 N.ar    1  UNL1       -0.2296
     38 H          -0.2961    4.3500   18.4563 H       1  UNL1        0.1437
     39 H          -1.3691    4.0643   19.7505 H       1  UNL1        0.1437
@<TRIPOS>BOND
     1    31    32    1
     2    32    33   ar
     3    33    34   ar
     4    34    30    1
     5    30    23    1
     6    23    24    1
     7    24    25    1
     8    25    26    1
     9    26    27    1
    10    26     1    1
    11     1     2    2
    12     1     3   am
    13     3     4    1
    14     4     5    1
    15     5     6    1
    16     6     9    1
    17     9    10    1
    18    10    11   ar
    19    11    12   ar
    20    12    13   ar
    21    13    14   ar
    22    14    15   ar
    23    15    16    1
    24    16    17    1
    25    17    18   ar
    26    18    19   ar
    27    19    20   ar
    28    20    21   ar
    29    21    22   ar
    30     6     7    1
    31     7     8    1
    32    26    28    1
    33    28    29    1
    34    34    35   ar
    35    35    36   ar
    36    36    37   ar
    37    37    32   ar
    38    29    23    1
    39     8     3    1
    40    22     9    1
    41    15    10   ar
    42    22    17   ar
    43    31    38    1
    44    31    39    1
@<TRIPOS>MOLECULE
*****
 39 44 0 0 0
SMALL
GASTEIGER

@<TRIPOS>ATOM
      1 C          -1.0657    4.3361   19.9606 C.2     1  UNL1        0.2553
      2 O          -0.5858    5.7357   19.7141 O.2     1  UNL1       -0.2720
      3 N          -0.0785    3.2458   20.2556 N.am    1  UNL1       -0.2773
      4 C           1.3885    3.5553   20.3039 C.3     1  UNL1        0.0952
      5 C           2.3756    2.4650   20.5988 C.3     1  UNL1        0.0416
      6 C           1.8957    1.0654   20.8454 C.3     1  UNL1        0.0806
      7 C           0.4288    0.7560   20.7970 C.3     1  UNL1        0.0416
      8 C          -0.5583    1.8462   20.5021 C.3     1  UNL1        0.0952
      9 N           2.8828   -0.0249   21.1403 N.pl3   1  UNL1       -0.2876
     10 C           3.5655   -0.7433   20.0142 C.ar    1  UNL1        0.0576
     11 C           3.2610   -0.3714   18.5933 C.ar    1  UNL1        0.0153
     12 C           3.9437   -1.0898   17.4673 C.ar    1  UNL1        0.0013
     13 C           4.9308   -2.1800   17.7622 C.ar    1  UNL1        0.0006
     14 C           5.2353   -2.5519   19.1831 C.ar    1  UNL1        0.0077
     15 C           4.5526   -1.8335   20.3091 C.ar    1  UNL1        0.0431
     16 S           4.8571   -2.2054   21.7301 S.3     1  UNL1       -0.0844
     17 C           4.1744   -1.4870   22.8561 C.ar    1  UNL1        0.0431
     18 C           4.4789   -1.8589   24.2770 C.ar    1  UNL1        0.0077
     19 C           3.7962   -1.1405   25.4030 C.ar    1  UNL1        0.0006
     20 C           2.8091   -0.0503   25.1081 C.ar    1  UNL1        0.0013
     21 C           2.5046    0.3216   23.6872 C.ar    1  UNL1        0.0153
     22 C           3.1873   -0.3968   22.5611 C.ar    1  UNL1        0.0576
     23 N          -4.9106    3.8749   21.7351 N.3     1  UNL1       -0.2688
     24 C          -5.0654    3.5744   20.2736 C.3     1  UNL1        0.0756
     25 C          -3.8764    3.6503   19.3623 C.3     1  UNL1        0.0590
     26 C          -2.5326    4.0267   19.9123 C.3     1  UNL1        0.2042
     27 F          -2.1779    3.8337   18.4678 F       1  UNL1       -0.2306
     28 C          -2.3778    4.3272   21.3738 C.3     1  UNL1        0.0590
     29 C          -3.5668    4.2513   22.2851 C.3     1  UNL1        0.0756
     30 C          -6.0995    3.7990   22.6464 C.3     1  UNL1        0.0993
     31 N          -4.9386    4.9176   27.5862 N.pl3   1  UNL1       -0.3426
     32 C          -5.6181    5.2768   26.2980 C.ar    1  UNL1        0.1251
     33 C          -5.5190    4.3583   25.1163 C.ar    1  UNL1        0.0310
     34 C          -6.1985    4.7175   23.8281 C.ar    1  UNL1       -0.0018
     35 C          -6.9770    5.9953   23.7217 C.ar    1  UNL1        0.0179
     36 C          -7.0760    6.9138   24.9035 C.ar    1  UNL1        0.1000
     37 N          -6.3965    6.5545   26.1916 N.ar    1  UNL1       -0.2296
     38 H          -4.4276    4.0789   27.6560 H       1  UNL1        0.1437
     39 H          -5.0036    5.5204   28.3618 H       1  UNL1        0.1437
@<TRIPOS>BOND
     1    31    32    1
     2    32    33   ar
     3    33    34   ar
     4    34    30    1
     5    30    23    1
     6    23    24    1
     7    24    25    1
     8    25    26    1
     9    26    27    1
    10    26     1    1
    11     1     2    2
    12     1     3   am
    13     3     4    1
    14     4     5    1
    15     5     6    1
    16     6     9    1
    17     9    10    1
    18    10    11   ar
    19    11    12   ar
    20    12    13   ar
    21    13    14   ar
    22    14    15   ar
    23    15    16    1
    24    16    17    1
    25    17    18   ar
    26    18    19   ar
    27    19    20   ar
    28    20    21   ar
    29    21    22   ar
    30     6     7    1
    31     7     8    1
    32    26    28    1
    33    28    29    1
    34    34    35   ar
    35    35    36   ar
    36    36    37   ar
    37    37    32   ar
    38    29    23    1
    39     8     3    1
    40    22     9    1
    41    15    10   ar
    42    22    17   ar
    43    31    38    1
    44    31    39    1
@<TRIPOS>MOLECULE
*****
 39 44 0 0 0
SMALL
GASTEIGER

@<TRIPOS>ATOM
      1 C           7.5010   -1.0148   27.2540 C.2     1  UNL1        0.2553
      2 O           8.6425   -0.0445   27.3297 O.2     1  UNL1       -0.2720
      3 N           6.6314   -1.0559   26.0325 N.am    1  UNL1       -0.2773
      4 C           6.9033   -0.1267   24.8867 C.3     1  UNL1        0.0952
      5 C           6.0336   -0.1679   23.6652 C.3     1  UNL1        0.0416
      6 C           4.8921   -1.1381   23.5895 C.3     1  UNL1        0.0806
      7 C           4.6203   -2.0672   24.7353 C.3     1  UNL1        0.0416
      8 C           5.4900   -2.0261   25.9568 C.3     1  UNL1        0.0952
      9 N           4.0225   -1.1793   22.3680 N.pl3   1  UNL1       -0.2876
     10 C           2.8108   -0.2994   22.2801 C.ar    1  UNL1        0.0576
     11 C           2.4688    0.6215   23.4136 C.ar    1  UNL1        0.0153
     12 C           1.2571    1.5013   23.3256 C.ar    1  UNL1        0.0013
     13 C           0.3875    1.4602   22.1041 C.ar    1  UNL1        0.0006
     14 C           0.7295    0.5393   20.9706 C.ar    1  UNL1        0.0077
     15 C           1.9412   -0.3405   21.0586 C.ar    1  UNL1        0.0431
     16 S           2.2833   -1.2615   19.9250 S.3     1  UNL1       -0.0844
     17 C           3.4949   -2.1413   20.0130 C.ar    1  UNL1        0.0431
     18 C           3.8370   -3.0623   18.8795 C.ar    1  UNL1        0.0077
     19 C           5.0487   -3.9421   18.9675 C.ar    1  UNL1        0.0006
     20 C           5.9183   -3.9009   20.1890 C.ar    1  UNL1        0.0013
     21 C           5.5763   -2.9800   21.3225 C.ar    1  UNL1        0.0153
     22 C           4.3645   -2.1002   21.2345 C.ar    1  UNL1        0.0576
     23 N           5.7401   -2.0078   31.0034 N.3     1  UNL1       -0.2688
     24 C           6.5147   -3.2107   30.5526 C.3     1  UNL1        0.0756
     25 C           7.2592   -3.1787   29.2509 C.3     1  UNL1        0.0590
     26 C           7.2292   -1.9439   28.3998 C.3     1  UNL1        0.2042
     27 F           8.0982   -2.8241   27.5512 F       1  UNL1       -0.2306
     28 C           6.4546   -0.7410   28.8505 C.3     1  UNL1        0.0590
     29 C           5.7101   -0.7730   30.1523 C.3     1  UNL1        0.0756
     30 C           4.9955   -2.0397   32.3051 C.3     1  UNL1        0.0993
     31 N           4.3130    0.0078   37.0318 N.pl3   1  UNL1       -0.3426
     32 C           5.2048   -0.2985   35.8651 C.ar    1  UNL1        0.1251
     33 C           4.6543   -1.0160   34.6684 C.ar    1  UNL1        0.0310
     34 C           5.5460   -1.3223   33.5018 C.ar    1  UNL1       -0.0018
     35 C           6.9882   -0.9111   33.5319 C.ar    1  UNL1        0.0179
     36 C           7.5387   -0.1935   34.7287 C.ar    1  UNL1        0.1000
     37 N           6.6470    0.1127   35.8952 N.ar    1  UNL1       -0.2296
     38 H           3.3664   -0.2621   37.0120 H       1  UNL1        0.1437
     39 H           4.6743    0.4787   37.8173 H       1  UNL1        0.1437
@<TRIPOS>BOND
     1    31    32    1
     2    32    33   ar
     3    33    34   ar
     4    34    30    1
     5    30    23    1
     6    23    24    1
     7    24    25    1
     8    25    26    1
     9    26    27    1
    10    26     1    1
    11     1     2    2
    12     1     3   am
    13     3     4    1
    14     4     5    1
    15     5     6    1
    16     6     9    1
    17     9    10    1
    18    10    11   ar
    19    11    12   ar
    20    12    13   ar
    21    13    14   ar
    22    14    15   ar
    23    15    16    1
    24    16    17    1
    25    17    18   ar
    26    18    19   ar
    27    19    20   ar
    28    20    21   ar
    29    21    22   ar
    30     6     7    1
    31     7     8    1
    32    26    28    1
    33    28    29    1
    34    34    35   ar
    35    35    36   ar
    36    36    37   ar
    37    37    32   ar
    38    29    23    1
    39     8     3    1
    40    22     9    1
    41    15    10   ar
    42    22    17   ar
    43    31    38    1
    44    31    39    1
@<TRIPOS>MOLECULE
*****
 39 44 0 0 0
SMALL
GASTEIGER

@<TRIPOS>ATOM
      1 C           7.5334   -1.0567   27.2861 C.2     1  UNL1        0.2553
      2 O           8.6813   -0.0940   27.3623 O.2     1  UNL1       -0.2720
      3 N           6.6582   -1.0852   26.0682 N.am    1  UNL1       -0.2773
      4 C           6.9310   -0.1512   24.9265 C.3     1  UNL1        0.0952
      5 C           6.0558   -0.1798   23.7086 C.3     1  UNL1        0.0416
      6 C           4.9079   -1.1424   23.6324 C.3     1  UNL1        0.0806
      7 C           4.6352   -2.0764   24.7740 C.3     1  UNL1        0.0416
      8 C           5.5103   -2.0478   25.9919 C.3     1  UNL1        0.0952
      9 N           4.0327   -1.1710   22.4145 N.pl3   1  UNL1       -0.2876
     10 C           4.3620   -2.0902   21.2757 C.ar    1  UNL1        0.0576
     11 C           5.5664   -2.9808   21.3549 C.ar    1  UNL1        0.0153
     12 C           5.8957   -3.8999   20.2162 C.ar    1  UNL1        0.0013
     13 C           5.0205   -3.9285   18.9982 C.ar    1  UNL1        0.0006
     14 C           3.8161   -3.0379   18.9191 C.ar    1  UNL1        0.0077
     15 C           3.4869   -2.1188   20.0578 C.ar    1  UNL1        0.0431
     16 S           2.2824   -1.2282   19.9787 S.3     1  UNL1       -0.0844
     17 C           1.9532   -0.3090   21.1174 C.ar    1  UNL1        0.0431
     18 C           0.7488    0.5816   21.0382 C.ar    1  UNL1        0.0077
     19 C           0.4195    1.5007   22.1770 C.ar    1  UNL1        0.0006
     20 C           1.2947    1.5293   23.3949 C.ar    1  UNL1        0.0013
     21 C           2.4991    0.6388   23.4740 C.ar    1  UNL1        0.0153
     22 C           2.8284   -0.2804   22.3353 C.ar    1  UNL1        0.0576
     23 N           5.7777   -2.0621   31.0346 N.3     1  UNL1       -0.2688
     24 C           6.5463   -3.2658   30.5757 C.3     1  UNL1        0.0756
     25 C           7.2877   -3.2300   29.2722 C.3     1  UNL1        0.0590
     26 C           7.2607   -1.9906   28.4277 C.3     1  UNL1        0.2042
     27 F           8.1239   -2.8698   27.5723 F       1  UNL1       -0.2306
     28 C           6.4921   -0.7870   28.8866 C.3     1  UNL1        0.0590
     29 C           5.7507   -0.8228   30.1900 C.3     1  UNL1        0.0756
     30 C           5.0363   -2.0978   32.3380 C.3     1  UNL1        0.0993
     31 N           4.2947    0.0245   37.0227 N.pl3   1  UNL1       -0.3426
     32 C           5.1979   -0.2890   35.8668 C.ar    1  UNL1        0.1251
     33 C           4.6655   -1.0367   34.6803 C.ar    1  UNL1        0.0310
     34 C           5.5687   -1.3502   33.5244 C.ar    1  UNL1       -0.0018
     35 C           7.0041   -0.9161   33.5550 C.ar    1  UNL1        0.0179
     36 C           7.5365   -0.1684   34.7415 C.ar    1  UNL1        0.1000
     37 N           6.6333    0.1451   35.8973 N.ar    1  UNL1       -0.2296
     38 H           3.3526   -0.2605   37.0026 H       1  UNL1        0.1437
     39 H           4.6441    0.5152   37.8014 H       1  UNL1        0.1437
@<TRIPOS>BOND
     1    31    32    1
     2    32    33   ar
     3    33    34   ar
     4    34    30    1
     5    30    23    1
     6    23    24    1
     7    24    25    1
     8    25    26    1
     9    26    27    1
    10    26     1    1
    11     1     2    2
    12     1     3   am
    13     3     4    1
    14     4     5    1
    15     5     6    1
    16     6     9    1
    17     9    10    1
    18    10    11   ar
    19    11    12   ar
    20    12    13   ar
    21    13    14   ar
    22    14    15   ar
    23    15    16    1
    24    16    17    1
    25    17    18   ar
    26    18    19   ar
    27    19    20   ar
    28    20    21   ar
    29    21    22   ar
    30     6     7    1
    31     7     8    1
    32    26    28    1
    33    28    29    1
    34    34    35   ar
    35    35    36   ar
    36    36    37   ar
    37    37    32   ar
    38    29    23    1
    39     8     3    1
    40    22     9    1
    41    15    10   ar
    42    22    17   ar
    43    31    38    1
    44    31    39    1
@<TRIPOS>MOLECULE
*****
 39 44 0 0 0
SMALL
GASTEIGER

@<TRIPOS>ATOM
      1 C           0.8293    1.0436   29.3024 C.2     1  UNL1        0.2553
      2 O          -0.4797    0.5308   29.8256 O.2     1  UNL1       -0.2720
      3 N           1.0324    1.2122   27.8258 N.am    1  UNL1       -0.2773
      4 C          -0.0734    0.8680   26.8724 C.3     1  UNL1        0.0952
      5 C           0.1298    1.0366   25.3959 C.3     1  UNL1        0.0416
      6 C           1.4387    1.5494   24.8726 C.3     1  UNL1        0.0806
      7 C           2.5445    1.8936   25.8259 C.3     1  UNL1        0.0416
      8 C           2.3413    1.7250   27.3025 C.3     1  UNL1        0.0952
      9 N           1.6419    1.7180   23.3960 N.pl3   1  UNL1       -0.2876
     10 C           2.3383    0.6485   22.6078 C.ar    1  UNL1        0.0576
     11 C           2.8314   -0.5896   23.2962 C.ar    1  UNL1        0.0153
     12 C           3.5278   -1.6590   22.5080 C.ar    1  UNL1        0.0013
     13 C           3.7309   -1.4904   21.0314 C.ar    1  UNL1        0.0006
     14 C           3.2378   -0.2524   20.3430 C.ar    1  UNL1        0.0077
     15 C           2.5414    0.8171   21.1312 C.ar    1  UNL1        0.0431
     16 S           2.0482    2.0553   20.4429 S.3     1  UNL1       -0.0844
     17 C           1.3519    3.1247   21.2311 C.ar    1  UNL1        0.0431
     18 C           0.8587    4.3629   20.5427 C.ar    1  UNL1        0.0077
     19 C           0.1623    5.4324   21.3309 C.ar    1  UNL1        0.0006
     20 C          -0.0408    5.2637   22.8075 C.ar    1  UNL1        0.0013
     21 C           0.4524    4.0257   23.4959 C.ar    1  UNL1        0.0153
     22 C           1.1487    2.9561   22.7077 C.ar    1  UNL1        0.0576
     23 N           4.0720    0.0453   31.8778 N.3     1  UNL1       -0.2688
     24 C           3.9247    1.5375   31.9196 C.3     1  UNL1        0.0756
     25 C           2.8562    2.2087   31.1086 C.3     1  UNL1        0.0590
     26 C           1.9350    1.3878   30.2557 C.3     1  UNL1        0.2042
     27 F           1.4037    2.7604   29.9665 F       1  UNL1       -0.2306
     28 C           2.0823   -0.1044   30.2138 C.3     1  UNL1        0.0590
     29 C           3.1508   -0.7756   31.0248 C.3     1  UNL1        0.0756
     30 C           5.1405   -0.6259   32.6887 C.3     1  UNL1        0.0993
     31 N           6.5363   -5.6141   32.2765 N.pl3   1  UNL1       -0.3426
     32 C           6.6963   -4.1818   31.8608 C.ar    1  UNL1        0.1251
     33 C           5.8384   -3.1200   32.4826 C.ar    1  UNL1        0.0310
     34 C           5.9984   -1.6877   32.0669 C.ar    1  UNL1       -0.0018
     35 C           7.0162   -1.3171   31.0293 C.ar    1  UNL1        0.0179
     36 C           7.8741   -2.3789   30.4074 C.ar    1  UNL1        0.1000
     37 N           7.7141   -3.8112   30.8232 N.ar    1  UNL1       -0.2296
     38 H           5.8682   -5.8573   32.9575 H       1  UNL1        0.1437
     39 H           7.0993   -6.3110   31.8684 H       1  UNL1        0.1437
@<TRIPOS>BOND
     1    31    32    1
     2    32    33   ar
     3    33    34   ar
     4    34    30    1
     5    30    23    1
     6    23    24    1
     7    24    25    1
     8    25    26    1
     9    26    27    1
    10    26     1    1
    11     1     2    2
    12     1     3   am
    13     3     4    1
    14     4     5    1
    15     5     6    1
    16     6     9    1
    17     9    10    1
    18    10    11   ar
    19    11    12   ar
    20    12    13   ar
    21    13    14   ar
    22    14    15   ar
    23    15    16    1
    24    16    17    1
    25    17    18   ar
    26    18    19   ar
    27    19    20   ar
    28    20    21   ar
    29    21    22   ar
    30     6     7    1
    31     7     8    1
    32    26    28    1
    33    28    29    1
    34    34    35   ar
    35    35    36   ar
    36    36    37   ar
    37    37    32   ar
    38    29    23    1
    39     8     3    1
    40    22     9    1
    41    15    10   ar
    42    22    17   ar
    43    31    38    1
    44    31    39    1
@<TRIPOS>MOLECULE
*****
 39 44 0 0 0
SMALL
GASTEIGER

@<TRIPOS>ATOM
      1 C           7.0375   -1.4331   24.7308 C.2     1  UNL1        0.2553
      2 O           8.3562   -0.7939   24.4104 O.2     1  UNL1       -0.2720
      3 N           6.2921   -1.0341   25.9699 N.am    1  UNL1       -0.2773
      4 C           6.8654    0.0040   26.8884 C.3     1  UNL1        0.0952
      5 C           6.1200    0.4030   28.1275 C.3     1  UNL1        0.0416
      6 C           4.8014   -0.2361   28.4480 C.3     1  UNL1        0.0806
      7 C           4.2281   -1.2742   27.5294 C.3     1  UNL1        0.0416
      8 C           4.9735   -1.6732   26.2904 C.3     1  UNL1        0.0952
      9 N           4.0560    0.1629   29.6870 N.pl3   1  UNL1       -0.2876
     10 C           3.0102    1.2362   29.6202 C.ar    1  UNL1        0.0576
     11 C           2.7099    1.9105   28.3145 C.ar    1  UNL1        0.0153
     12 C           1.6642    2.9838   28.2477 C.ar    1  UNL1        0.0013
     13 C           0.9188    3.3828   29.4868 C.ar    1  UNL1        0.0006
     14 C           1.2191    2.7085   30.7925 C.ar    1  UNL1        0.0077
     15 C           2.2649    1.6352   30.8593 C.ar    1  UNL1        0.0431
     16 S           2.5652    0.9608   32.1651 S.3     1  UNL1       -0.0844
     17 C           3.6109   -0.1124   32.2318 C.ar    1  UNL1        0.0431
     18 C           3.9113   -0.7868   33.5376 C.ar    1  UNL1        0.0077
     19 C           4.9570   -1.8601   33.6044 C.ar    1  UNL1        0.0006
     20 C           5.7024   -2.2591   32.3653 C.ar    1  UNL1        0.0013
     21 C           5.4021   -1.5848   31.0595 C.ar    1  UNL1        0.0153
     22 C           4.3563   -0.5114   30.9928 C.ar    1  UNL1        0.0576
     23 N           4.8346   -2.6703   21.3014 N.3     1  UNL1       -0.2688
     24 C           5.3107   -3.9164   21.9873 C.3     1  UNL1        0.0756
     25 C           6.1255   -3.8168   23.2428 C.3     1  UNL1        0.0590
     26 C           6.4643   -2.4712   23.8123 C.3     1  UNL1        0.2042
     27 F           7.1393   -3.3567   24.8172 F       1  UNL1       -0.2306
     28 C           5.9882   -1.2250   23.1263 C.3     1  UNL1        0.0590
     29 C           5.1734   -1.3246   21.8709 C.3     1  UNL1        0.0756
     30 C           4.0199   -2.7698   20.0459 C.3     1  UNL1        0.0993
     31 N          -0.2140    0.2109   20.4820 N.pl3   1  UNL1       -0.3426
     32 C           1.0861   -0.1080   19.8051 C.ar    1  UNL1        0.1251
     33 C           1.9029   -1.2794   20.2640 C.ar    1  UNL1        0.0310
     34 C           3.2030   -1.5984   19.5871 C.ar    1  UNL1       -0.0018
     35 C           3.6862   -0.7459   18.4515 C.ar    1  UNL1        0.0179
     36 C           2.8693    0.4256   17.9926 C.ar    1  UNL1        0.1000
     37 N           1.5693    0.7445   18.6695 N.ar    1  UNL1       -0.2296
     38 H          -0.5311   -0.3486   21.2274 H       1  UNL1        0.1437
     39 H          -0.7501    0.9798   20.1809 H       1  UNL1        0.1437
@<TRIPOS>BOND
     1    31    32    1
     2    32    33   ar
     3    33    34   ar
     4    34    30    1
     5    30    23    1
     6    23    24    1
     7    24    25    1
     8    25    26    1
     9    26    27    1
    10    26     1    1
    11     1     2    2
    12     1     3   am
    13     3     4    1
    14     4     5    1
    15     5     6    1
    16     6     9    1
    17     9    10    1
    18    10    11   ar
    19    11    12   ar
    20    12    13   ar
    21    13    14   ar
    22    14    15   ar
    23    15    16    1
    24    16    17    1
    25    17    18   ar
    26    18    19   ar
    27    19    20   ar
    28    20    21   ar
    29    21    22   ar
    30     6     7    1
    31     7     8    1
    32    26    28    1
    33    28    29    1
    34    34    35   ar
    35    35    36   ar
    36    36    37   ar
    37    37    32   ar
    38    29    23    1
    39     8     3    1
    40    22     9    1
    41    15    10   ar
    42    22    17   ar
    43    31    38    1
    44    31    39    1
