@<TRIPOS>MOLECULE
*****
 27 29 0 0 0
SMALL
GASTEIGER

@<TRIPOS>ATOM
      1 N          -7.7182  -19.6210   19.5969 N.pl3   1  UNL1       -0.2150
      2 H          -7.8309  -20.0261   18.7067 H       1  UNL1        0.1737
      3 C          -6.3462  -19.4696   20.1838 C.ar    1  UNL1        0.0644
      4 C          -6.0838  -19.8971   21.5975 C.ar    1  UNL1        0.0155
      5 C          -4.7117  -19.7456   22.1845 C.ar    1  UNL1       -0.0032
      6 C          -3.6020  -19.1666   21.3577 C.ar    1  UNL1       -0.0246
      7 C          -3.8644  -18.7392   19.9441 C.ar    1  UNL1       -0.0234
      8 C          -5.2364  -18.8906   19.3571 C.ar    1  UNL1        0.0113
      9 C          -2.9078  -18.1429   18.9544 C.3     1  UNL1        0.0434
     10 C          -1.4524  -17.8269   19.1341 C.3     1  UNL1        0.0768
     11 N          -0.5944  -18.0291   20.3477 N.3     1  UNL1       -0.2709
     12 C           0.8384  -17.6074   20.2093 C.3     1  UNL1        0.0897
     13 C          -0.9797  -18.5972   21.6814 C.3     1  UNL1        0.0768
     14 C          -2.3182  -19.1035   22.1309 C.3     1  UNL1        0.0433
     15 S          -8.9186  -19.1553   20.3664 S.O2    1  UNL1        0.0736
     16 O          -9.7518  -20.2147   19.7079 O.2     1  UNL1       -0.1499
     17 O          -8.0855  -18.0959   21.0249 O.2     1  UNL1       -0.1499
     18 C         -12.5199  -17.7581   22.6749 C.ar    1  UNL1       -0.0221
     19 C         -11.3070  -18.2538   23.4050 C.ar    1  UNL1       -0.0029
     20 C         -10.1066  -18.7196   22.6356 C.ar    1  UNL1        0.0199
     21 C         -10.1191  -18.6896   21.1359 C.ar    1  UNL1        0.1251
     22 C         -11.3320  -18.1938   20.4057 C.ar    1  UNL1        0.0199
     23 C         -12.5324  -17.7280   21.1752 C.ar    1  UNL1       -0.0029
     24 C         -13.7204  -17.2923   23.4442 C.3     1  UNL1        0.0264
     25 C         -14.4864  -18.2600   24.2968 C.3     1  UNL1        0.0047
     26 C         -14.7821  -18.2328   26.8779 C.3     1  UNL1        0.0000
     27 C         -13.9850  -18.6135   25.6656 C.3     1  UNL1        0.0003
@<TRIPOS>BOND
     1    26    27    1
     2    27    25    1
     3    25    24    1
     4    24    18    1
     5    18    19   ar
     6    19    20   ar
     7    20    21   ar
     8    21    15    1
     9    15    16    2
    10    15    17    2
    11    15     1    1
    12     1     3    1
    13     3     4   ar
    14     4     5   ar
    15     5     6   ar
    16     6     7   ar
    17     7     8   ar
    18     7     9    1
    19     9    10    1
    20    10    11    1
    21    11    12    1
    22    11    13    1
    23    13    14    1
    24    21    22   ar
    25    22    23   ar
    26    23    18   ar
    27     8     3   ar
    28    14     6    1
    29     1     2    1
@<TRIPOS>MOLECULE
*****
 27 29 0 0 0
SMALL
GASTEIGER

@<TRIPOS>ATOM
      1 N          -8.6271  -19.8025   19.4064 N.pl3   1  UNL1       -0.2150
      2 H          -8.7908  -20.2733   18.5574 H       1  UNL1        0.1737
      3 C          -9.7801  -19.2593   20.1972 C.ar    1  UNL1        0.0644
      4 C         -10.7434  -18.3031   19.5585 C.ar    1  UNL1        0.0155
      5 C         -11.8965  -17.7599   20.3493 C.ar    1  UNL1       -0.0032
      6 C         -12.0862  -18.1728   21.7789 C.ar    1  UNL1       -0.0246
      7 C         -11.1230  -19.1288   22.4175 C.ar    1  UNL1       -0.0234
      8 C          -9.9699  -19.6721   21.6268 C.ar    1  UNL1        0.0113
      9 C         -11.1285  -19.6661   23.8180 C.3     1  UNL1        0.0434
     10 C         -12.0988  -19.3799   24.9257 C.3     1  UNL1        0.0768
     11 N         -13.3030  -18.4859   24.9063 N.3     1  UNL1       -0.2709
     12 C         -14.0783  -18.4106   26.1882 C.3     1  UNL1        0.0897
     13 C         -13.8345  -17.6571   23.7747 C.3     1  UNL1        0.0768
     14 C         -13.2930  -17.5177   22.3828 C.3     1  UNL1        0.0433
     15 S          -7.2246  -19.6284   19.9092 S.O2    1  UNL1        0.0736
     16 O          -7.5495  -18.2256   20.3297 O.2     1  UNL1       -0.1499
     17 O          -6.8997  -21.0311   19.4887 O.2     1  UNL1       -0.1499
     18 C          -3.0172  -19.1060   21.4175 C.ar    1  UNL1       -0.0221
     19 C          -3.2643  -19.3783   19.9633 C.ar    1  UNL1       -0.0029
     20 C          -4.6667  -19.5524   19.4604 C.ar    1  UNL1        0.0199
     21 C          -5.8221  -19.4542   20.4120 C.ar    1  UNL1        0.1251
     22 C          -5.5751  -19.1820   21.8663 C.ar    1  UNL1        0.0199
     23 C          -4.1726  -19.0078   22.3690 C.ar    1  UNL1       -0.0029
     24 C          -1.6148  -18.9319   21.9204 C.3     1  UNL1        0.0264
     25 C          -0.6611  -18.0356   21.1873 C.3     1  UNL1        0.0047
     26 C          -2.0355  -15.9012   21.7402 C.3     1  UNL1        0.0000
     27 C          -1.0552  -16.6246   20.8652 C.3     1  UNL1        0.0003
@<TRIPOS>BOND
     1    26    27    1
     2    27    25    1
     3    25    24    1
     4    24    18    1
     5    18    19   ar
     6    19    20   ar
     7    20    21   ar
     8    21    15    1
     9    15    16    2
    10    15    17    2
    11    15     1    1
    12     1     3    1
    13     3     4   ar
    14     4     5   ar
    15     5     6   ar
    16     6     7   ar
    17     7     8   ar
    18     7     9    1
    19     9    10    1
    20    10    11    1
    21    11    12    1
    22    11    13    1
    23    13    14    1
    24    21    22   ar
    25    22    23   ar
    26    23    18   ar
    27     8     3   ar
    28    14     6    1
    29     1     2    1
@<TRIPOS>MOLECULE
*****
 27 29 0 0 0
SMALL
GASTEIGER

@<TRIPOS>ATOM
      1 N          -0.1572    2.5743   21.0354 N.pl3   1  UNL1       -0.2150
      2 H          -0.6506    3.2070   20.4649 H       1  UNL1        0.1737
      3 C          -0.3586    2.5903   22.5217 C.ar    1  UNL1        0.0644
      4 C          -1.5288    3.3197   23.1120 C.ar    1  UNL1        0.0155
      5 C          -1.7304    3.3358   24.5984 C.ar    1  UNL1       -0.0032
      6 C          -0.7616    2.6224   25.4943 C.ar    1  UNL1       -0.0246
      7 C           0.4085    1.8930   24.9039 C.ar    1  UNL1       -0.0234
      8 C           0.6101    1.8769   23.4177 C.ar    1  UNL1        0.0113
      9 C           1.4845    1.1234   25.6112 C.3     1  UNL1        0.0434
     10 C           1.6559    0.8932   27.0835 C.3     1  UNL1        0.0768
     11 N           0.7938    1.3757   28.2121 N.3     1  UNL1       -0.2709
     12 C           1.2367    0.9731   29.5875 C.3     1  UNL1        0.0897
     13 C          -0.4527    2.2076   28.1473 C.3     1  UNL1        0.0768
     14 C          -1.1450    2.7624   26.9377 C.3     1  UNL1        0.0433
     15 S           0.7961    1.5942   20.4183 S.O2    1  UNL1        0.0736
     16 O           1.8202    2.6807   20.2747 O.2     1  UNL1       -0.1499
     17 O          -0.2280    0.5077   20.5619 O.2     1  UNL1       -0.1499
     18 C           3.6559   -1.3460   18.5671 C.ar    1  UNL1       -0.0221
     19 C           3.2575   -0.1114   17.8141 C.ar    1  UNL1       -0.0029
     20 C           2.3043    0.8687   18.4310 C.ar    1  UNL1        0.0199
     21 C           1.7494    0.6141   19.8012 C.ar    1  UNL1        0.1251
     22 C           2.1477   -0.6205   20.5543 C.ar    1  UNL1        0.0199
     23 C           3.1010   -1.6005   19.9372 C.ar    1  UNL1       -0.0029
     24 C           4.6092   -2.3261   17.9501 C.3     1  UNL1        0.0264
     25 C           5.2226   -3.4064   18.7908 C.3     1  UNL1        0.0047
     26 C           3.4459   -5.1326   19.5741 C.3     1  UNL1        0.0000
     27 C           4.6574   -4.7954   18.7565 C.3     1  UNL1        0.0003
@<TRIPOS>BOND
     1    26    27    1
     2    27    25    1
     3    25    24    1
     4    24    18    1
     5    18    19   ar
     6    19    20   ar
     7    20    21   ar
     8    21    15    1
     9    15    16    2
    10    15    17    2
    11    15     1    1
    12     1     3    1
    13     3     4   ar
    14     4     5   ar
    15     5     6   ar
    16     6     7   ar
    17     7     8   ar
    18     7     9    1
    19     9    10    1
    20    10    11    1
    21    11    12    1
    22    11    13    1
    23    13    14    1
    24    21    22   ar
    25    22    23   ar
    26    23    18   ar
    27     8     3   ar
    28    14     6    1
    29     1     2    1
@<TRIPOS>MOLECULE
*****
 27 29 0 0 0
SMALL
GASTEIGER

@<TRIPOS>ATOM
      1 N          -0.1904    2.5368   21.0149 N.pl3   1  UNL1       -0.2150
      2 H          -0.1034    2.8033   21.9586 H       1  UNL1        0.1737
      3 C          -1.2916    3.1092   20.1724 C.ar    1  UNL1        0.0644
      4 C          -1.0106    3.5416   18.7638 C.ar    1  UNL1        0.0155
      5 C          -2.1117    4.1141   17.9212 C.ar    1  UNL1       -0.0032
      6 C          -3.4938    4.2541   18.4873 C.ar    1  UNL1       -0.0246
      7 C          -3.7746    3.8217   19.8957 C.ar    1  UNL1       -0.0234
      8 C          -2.6736    3.2493   20.7384 C.ar    1  UNL1        0.0113
      9 C          -5.0707    3.8738   20.6492 C.3     1  UNL1        0.0434
     10 C          -6.4059    4.3711   20.1801 C.3     1  UNL1        0.0768
     11 N          -6.7748    4.9390   18.8418 N.3     1  UNL1       -0.2709
     12 C          -8.2084    5.3504   18.6821 C.3     1  UNL1        0.0897
     13 C          -5.8996    5.1502   17.6419 C.3     1  UNL1        0.0768
     14 C          -4.4394    4.8453   17.4841 C.3     1  UNL1        0.0433
     15 S           0.7781    1.5583   20.4194 S.O2    1  UNL1        0.0736
     16 O           1.8111    2.6414   20.3200 O.2     1  UNL1       -0.1499
     17 O          -0.2550    0.4753   20.5188 O.2     1  UNL1       -0.1499
     18 C           3.6837   -1.3771   18.6330 C.ar    1  UNL1       -0.0221
     19 C           3.4566   -0.0498   17.9721 C.ar    1  UNL1       -0.0029
     20 C           2.4881    0.9287   18.5675 C.ar    1  UNL1        0.0199
     21 C           1.7466    0.5799   19.8239 C.ar    1  UNL1        0.1251
     22 C           1.9737   -0.7474   20.4849 C.ar    1  UNL1        0.0199
     23 C           2.9423   -1.7259   19.8895 C.ar    1  UNL1       -0.0029
     24 C           4.6522   -2.3556   18.0377 C.3     1  UNL1        0.0264
     25 C           5.1826   -3.4860   18.8689 C.3     1  UNL1        0.0047
     26 C           3.5009   -5.2756   19.7171 C.3     1  UNL1        0.0000
     27 C           4.5713   -4.8511   18.7559 C.3     1  UNL1        0.0003
@<TRIPOS>BOND
     1    26    27    1
     2    27    25    1
     3    25    24    1
     4    24    18    1
     5    18    19   ar
     6    19    20   ar
     7    20    21   ar
     8    21    15    1
     9    15    16    2
    10    15    17    2
    11    15     1    1
    12     1     3    1
    13     3     4   ar
    14     4     5   ar
    15     5     6   ar
    16     6     7   ar
    17     7     8   ar
    18     7     9    1
    19     9    10    1
    20    10    11    1
    21    11    12    1
    22    11    13    1
    23    13    14    1
    24    21    22   ar
    25    22    23   ar
    26    23    18   ar
    27     8     3   ar
    28    14     6    1
    29     1     2    1
@<TRIPOS>MOLECULE
*****
 27 29 0 0 0
SMALL
GASTEIGER

@<TRIPOS>ATOM
      1 N           7.3782   -3.8545   21.9812 N.pl3   1  UNL1       -0.2150
      2 H           8.1258   -3.8228   21.3415 H       1  UNL1        0.1737
      3 C           7.5290   -4.5986   23.2749 C.ar    1  UNL1        0.0644
      4 C           8.1539   -5.9621   23.2873 C.ar    1  UNL1        0.0155
      5 C           8.3048   -6.7063   24.5810 C.ar    1  UNL1       -0.0032
      6 C           7.8306   -6.0868   25.8622 C.ar    1  UNL1       -0.0246
      7 C           7.2057   -4.7234   25.8497 C.ar    1  UNL1       -0.0234
      8 C           7.0548   -3.9792   24.5562 C.ar    1  UNL1        0.0113
      9 C           6.6700   -3.9294   27.0043 C.3     1  UNL1        0.0434
     10 C           6.6271   -4.3031   28.4564 C.3     1  UNL1        0.0768
     11 N           7.1092   -5.5628   29.1126 N.3     1  UNL1       -0.2709
     12 C           6.9225   -5.6348   30.5992 C.3     1  UNL1        0.0897
     13 C           7.7533   -6.7601   28.4788 C.3     1  UNL1        0.0768
     14 C           8.0743   -6.9933   27.0322 C.3     1  UNL1        0.0433
     15 S           6.0881   -3.1587   21.6623 S.O2    1  UNL1        0.0736
     16 O           6.7678   -1.8299   21.8122 O.2     1  UNL1       -0.1499
     17 O           5.4085   -4.4875   21.5123 O.2     1  UNL1       -0.1499
     18 C           2.2181   -1.0713   20.7053 C.ar    1  UNL1       -0.0221
     19 C           2.8828   -1.9302   19.6707 C.ar    1  UNL1       -0.0029
     20 C           4.1728   -2.6260   19.9896 C.ar    1  UNL1        0.0199
     21 C           4.7981   -2.4629   21.3433 C.ar    1  UNL1        0.1251
     22 C           4.1335   -1.6040   22.3780 C.ar    1  UNL1        0.0199
     23 C           2.8434   -0.9082   22.0590 C.ar    1  UNL1       -0.0029
     24 C           0.9281   -0.3755   20.3865 C.3     1  UNL1        0.0264
     25 C           0.8757    0.6374   19.2813 C.3     1  UNL1        0.0047
     26 C           3.0978    1.5600   18.3009 C.3     1  UNL1        0.0000
     27 C           1.9120    1.7192   19.2056 C.3     1  UNL1        0.0003
@<TRIPOS>BOND
     1    26    27    1
     2    27    25    1
     3    25    24    1
     4    24    18    1
     5    18    19   ar
     6    19    20   ar
     7    20    21   ar
     8    21    15    1
     9    15    16    2
    10    15    17    2
    11    15     1    1
    12     1     3    1
    13     3     4   ar
    14     4     5   ar
    15     5     6   ar
    16     6     7   ar
    17     7     8   ar
    18     7     9    1
    19     9    10    1
    20    10    11    1
    21    11    12    1
    22    11    13    1
    23    13    14    1
    24    21    22   ar
    25    22    23   ar
    26    23    18   ar
    27     8     3   ar
    28    14     6    1
    29     1     2    1
@<TRIPOS>MOLECULE
*****
 27 29 0 0 0
SMALL
GASTEIGER

@<TRIPOS>ATOM
      1 N          -6.3711  -20.7059   21.5595 N.pl3   1  UNL1       -0.2150
      2 H          -6.2790  -21.6670   21.7518 H       1  UNL1        0.1737
      3 C          -7.7302  -20.0713   21.5421 C.ar    1  UNL1        0.0644
      4 C          -8.2595  -19.4670   20.2753 C.ar    1  UNL1        0.0155
      5 C          -9.6186  -18.8324   20.2578 C.ar    1  UNL1       -0.0032
      6 C         -10.4483  -18.8022   21.5071 C.ar    1  UNL1       -0.0246
      7 C          -9.9190  -19.4065   22.7737 C.ar    1  UNL1       -0.0234
      8 C          -8.5600  -20.0410   22.7913 C.ar    1  UNL1        0.0113
      9 C         -10.5769  -19.4832   24.1196 C.3     1  UNL1        0.0434
     10 C         -11.9268  -18.9745   24.5311 C.3     1  UNL1        0.0768
     11 N         -12.9519  -18.2635   23.6983 N.3     1  UNL1       -0.2709
     12 C         -14.2156  -17.8797   24.4095 C.3     1  UNL1        0.0897
     13 C         -12.8805  -17.8855   22.2485 C.3     1  UNL1        0.0768
     14 C         -11.7663  -18.1253   21.2733 C.3     1  UNL1        0.0433
     15 S          -5.1524  -19.8759   21.2840 S.O2    1  UNL1        0.0736
     16 O          -5.4883  -18.9952   22.4508 O.2     1  UNL1       -0.1499
     17 O          -4.8165  -20.7566   20.1171 O.2     1  UNL1       -0.1499
     18 C          -1.4961  -17.3862   20.4574 C.ar    1  UNL1       -0.0221
     19 C          -2.0944  -17.4066   21.8327 C.ar    1  UNL1       -0.0029
     20 C          -3.3132  -18.2365   22.1083 C.ar    1  UNL1        0.0199
     21 C          -3.9336  -19.0460   21.0084 C.ar    1  UNL1        0.1251
     22 C          -3.3354  -19.0256   19.6330 C.ar    1  UNL1        0.0199
     23 C          -2.1166  -18.1957   19.3575 C.ar    1  UNL1       -0.0029
     24 C          -0.2774  -16.5563   20.1817 C.3     1  UNL1        0.0264
     25 C           1.0264  -17.2233   19.8574 C.3     1  UNL1        0.0047
     26 C           3.2017  -17.5824   21.2320 C.3     1  UNL1        0.0000
     27 C           1.7810  -17.9552   20.9275 C.3     1  UNL1        0.0003
@<TRIPOS>BOND
     1    26    27    1
     2    27    25    1
     3    25    24    1
     4    24    18    1
     5    18    19   ar
     6    19    20   ar
     7    20    21   ar
     8    21    15    1
     9    15    16    2
    10    15    17    2
    11    15     1    1
    12     1     3    1
    13     3     4   ar
    14     4     5   ar
    15     5     6   ar
    16     6     7   ar
    17     7     8   ar
    18     7     9    1
    19     9    10    1
    20    10    11    1
    21    11    12    1
    22    11    13    1
    23    13    14    1
    24    21    22   ar
    25    22    23   ar
    26    23    18   ar
    27     8     3   ar
    28    14     6    1
    29     1     2    1
@<TRIPOS>MOLECULE
*****
 27 29 0 0 0
SMALL
GASTEIGER

@<TRIPOS>ATOM
      1 N           4.9282   -3.2899   19.1348 N.pl3   1  UNL1       -0.2150
      2 H           5.0658   -3.9023   18.3762 H       1  UNL1        0.1737
      3 C           4.0416   -2.0901   18.9788 C.ar    1  UNL1        0.0644
      4 C           4.0529   -1.3108   17.6971 C.ar    1  UNL1        0.0155
      5 C           3.1664   -0.1109   17.5410 C.ar    1  UNL1       -0.0032
      6 C           2.2685    0.3096   18.6667 C.ar    1  UNL1       -0.0246
      7 C           2.2572   -0.4696   19.9482 C.ar    1  UNL1       -0.0234
      8 C           3.1437   -1.6694   20.1043 C.ar    1  UNL1        0.0113
      9 C           1.4447   -0.2240   21.1850 C.3     1  UNL1        0.0434
     10 C           0.4428    0.8616   21.4455 C.3     1  UNL1        0.0768
     11 N           0.0060    1.9695   20.5337 N.3     1  UNL1       -0.2709
     12 C          -1.0242    2.9051   21.0934 C.3     1  UNL1        0.0897
     13 C           0.4632    2.2657   19.1361 C.3     1  UNL1        0.0768
     14 C           1.4701    1.5270   18.3051 C.3     1  UNL1        0.0433
     15 S           5.6050   -3.5568   20.4465 S.O2    1  UNL1        0.0736
     16 O           6.6026   -2.4761   20.1516 O.2     1  UNL1       -0.1499
     17 O           4.6075   -4.6375   20.7414 O.2     1  UNL1       -0.1499
     18 C           7.6356   -4.3574   24.3818 C.ar    1  UNL1       -0.0221
     19 C           8.3807   -4.5671   23.0970 C.ar    1  UNL1       -0.0029
     20 C           7.7039   -4.3002   21.7852 C.ar    1  UNL1        0.0199
     21 C           6.2819   -3.8237   21.7583 C.ar    1  UNL1        0.1251
     22 C           5.5367   -3.6139   23.0431 C.ar    1  UNL1        0.0199
     23 C           6.2135   -3.8808   24.3549 C.ar    1  UNL1       -0.0029
     24 C           8.3123   -4.6242   25.6935 C.3     1  UNL1        0.0264
     25 C           7.7427   -5.6407   26.6382 C.3     1  UNL1        0.0047
     26 C           8.3356   -7.7863   25.2984 C.3     1  UNL1        0.0000
     27 C           7.3685   -7.0039   26.1366 C.3     1  UNL1        0.0003
@<TRIPOS>BOND
     1    26    27    1
     2    27    25    1
     3    25    24    1
     4    24    18    1
     5    18    19   ar
     6    19    20   ar
     7    20    21   ar
     8    21    15    1
     9    15    16    2
    10    15    17    2
    11    15     1    1
    12     1     3    1
    13     3     4   ar
    14     4     5   ar
    15     5     6   ar
    16     6     7   ar
    17     7     8   ar
    18     7     9    1
    19     9    10    1
    20    10    11    1
    21    11    12    1
    22    11    13    1
    23    13    14    1
    24    21    22   ar
    25    22    23   ar
    26    23    18   ar
    27     8     3   ar
    28    14     6    1
    29     1     2    1
@<TRIPOS>MOLECULE
*****
 27 29 0 0 0
SMALL
GASTEIGER

@<TRIPOS>ATOM
      1 N          -0.0176    3.0723   20.8468 N.pl3   1  UNL1       -0.2150
      2 H           0.1554    3.7490   20.1530 H       1  UNL1        0.1737
      3 C          -1.1338    3.2730   21.8285 C.ar    1  UNL1        0.0644
      4 C          -0.8600    3.1964   23.3013 C.ar    1  UNL1        0.0155
      5 C          -1.9762    3.3971   24.2831 C.ar    1  UNL1       -0.0032
      6 C          -3.3662    3.6743   23.7920 C.ar    1  UNL1       -0.0246
      7 C          -3.6399    3.7509   22.3193 C.ar    1  UNL1       -0.0234
      8 C          -2.5238    3.5503   21.3375 C.ar    1  UNL1        0.0113
      9 C          -4.9419    4.0144   21.6224 C.3     1  UNL1        0.0434
     10 C          -6.2917    4.2664   22.2264 C.3     1  UNL1        0.0768
     11 N          -6.6727    4.3171   23.6762 N.3     1  UNL1       -0.2709
     12 C          -8.1197    4.5931   23.9596 C.3     1  UNL1        0.0897
     13 C          -5.7983    4.1284   24.8803 C.3     1  UNL1        0.0768
     14 C          -4.3268    3.8423   24.9319 C.3     1  UNL1        0.0433
     15 S           0.8350    1.8405   20.9222 S.O2    1  UNL1        0.0736
     16 O          -0.3481    0.9985   20.5463 O.2     1  UNL1       -0.1499
     17 O           2.0182    2.6825   21.2982 O.2     1  UNL1       -0.1499
     18 C           3.3930   -1.8549   21.1485 C.ar    1  UNL1       -0.0221
     19 C           2.5447   -1.6029   19.9374 C.ar    1  UNL1       -0.0029
     20 C           1.6920   -0.3711   19.8619 C.ar    1  UNL1        0.0199
     21 C           1.6877    0.6087   20.9977 C.ar    1  UNL1        0.1251
     22 C           2.5360    0.3567   22.2089 C.ar    1  UNL1        0.0199
     23 C           3.3887   -0.8751   22.2843 C.ar    1  UNL1       -0.0029
     24 C           4.2457   -3.0867   21.2240 C.3     1  UNL1        0.0264
     25 C           4.0268   -4.2108   20.2552 C.3     1  UNL1        0.0047
     26 C           5.3703   -3.1526   18.2993 C.3     1  UNL1        0.0000
     27 C           4.9297   -4.3635   19.0672 C.3     1  UNL1        0.0003
@<TRIPOS>BOND
     1    26    27    1
     2    27    25    1
     3    25    24    1
     4    24    18    1
     5    18    19   ar
     6    19    20   ar
     7    20    21   ar
     8    21    15    1
     9    15    16    2
    10    15    17    2
    11    15     1    1
    12     1     3    1
    13     3     4   ar
    14     4     5   ar
    15     5     6   ar
    16     6     7   ar
    17     7     8   ar
    18     7     9    1
    19     9    10    1
    20    10    11    1
    21    11    12    1
    22    11    13    1
    23    13    14    1
    24    21    22   ar
    25    22    23   ar
    26    23    18   ar
    27     8     3   ar
    28    14     6    1
    29     1     2    1
@<TRIPOS>MOLECULE
*****
 27 29 0 0 0
SMALL
GASTEIGER

@<TRIPOS>ATOM
      1 N          -0.1066    2.4575   19.9778 N.pl3   1  UNL1       -0.2150
      2 H          -0.5698    2.9466   19.2599 H       1  UNL1        0.1737
      3 C          -0.4594    2.7190   21.4121 C.ar    1  UNL1        0.0644
      4 C           0.5342    2.4199   22.4953 C.ar    1  UNL1        0.0155
      5 C           0.1815    2.6813   23.9296 C.ar    1  UNL1       -0.0032
      6 C          -1.1648    3.2419   24.2807 C.ar    1  UNL1       -0.0246
      7 C          -2.1583    3.5410   23.1975 C.ar    1  UNL1       -0.0234
      8 C          -1.8057    3.2795   21.7632 C.ar    1  UNL1        0.0113
      9 C          -3.5448    4.0985   23.3280 C.3     1  UNL1        0.0434
     10 C          -4.2800    4.4947   24.5741 C.3     1  UNL1        0.0768
     11 N          -3.8104    4.4311   25.9972 N.3     1  UNL1       -0.2709
     12 C          -4.7913    4.9057   27.0280 C.3     1  UNL1        0.0897
     13 C          -2.4896    3.9557   26.5259 C.3     1  UNL1        0.0768
     14 C          -1.3122    3.4264   25.7620 C.3     1  UNL1        0.0433
     15 S           0.9520    1.4507   19.6374 S.O2    1  UNL1        0.0736
     16 O           0.0659    0.3494   20.1394 O.2     1  UNL1       -0.1499
     17 O           1.8380    2.5521   19.1354 O.2     1  UNL1       -0.1499
     18 C           4.1277   -1.5696   18.6162 C.ar    1  UNL1       -0.0221
     19 C           3.3122   -1.7317   19.8646 C.ar    1  UNL1       -0.0029
     20 C           2.2536   -0.7250   20.2051 C.ar    1  UNL1        0.0199
     21 C           2.0106    0.4440   19.2970 C.ar    1  UNL1        0.1251
     22 C           2.8261    0.6061   18.0485 C.ar    1  UNL1        0.0199
     23 C           3.8847   -0.4006   17.7081 C.ar    1  UNL1       -0.0029
     24 C           5.1863   -2.5763   18.2757 C.3     1  UNL1        0.0264
     25 C           5.3313   -3.8204   19.1012 C.3     1  UNL1        0.0047
     26 C           3.3402   -5.3608   19.7438 C.3     1  UNL1        0.0000
     27 C           4.4677   -5.0136   18.8174 C.3     1  UNL1        0.0003
@<TRIPOS>BOND
     1    26    27    1
     2    27    25    1
     3    25    24    1
     4    24    18    1
     5    18    19   ar
     6    19    20   ar
     7    20    21   ar
     8    21    15    1
     9    15    16    2
    10    15    17    2
    11    15     1    1
    12     1     3    1
    13     3     4   ar
    14     4     5   ar
    15     5     6   ar
    16     6     7   ar
    17     7     8   ar
    18     7     9    1
    19     9    10    1
    20    10    11    1
    21    11    12    1
    22    11    13    1
    23    13    14    1
    24    21    22   ar
    25    22    23   ar
    26    23    18   ar
    27     8     3   ar
    28    14     6    1
    29     1     2    1
