@<TRIPOS>MOLECULE
*****
 32 36 0 0 0
SMALL
GASTEIGER

@<TRIPOS>ATOM
      1 C          -6.7398  -18.2801   22.2691 C.ar    1  UNL1        0.0722
      2 C          -6.4937  -17.4843   23.5165 C.ar    1  UNL1        0.0828
      3 N          -7.6259  -16.7538   24.1757 N.ar    1  UNL1       -0.2947
      4 C          -9.0042  -16.8191   23.5875 C.ar    1  UNL1        0.2767
      5 O         -10.1363  -16.0886   24.2467 O.2     1  UNL1       -0.2654
      6 C          -9.2503  -17.6149   22.3401 C.ar    1  UNL1        0.1170
      7 C          -8.1181  -18.3454   21.6808 C.ar    1  UNL1        0.0277
      8 C          -8.6602  -19.0440   20.4692 C.ar    1  UNL1        0.0175
      9 C          -8.0074  -19.9136   19.4359 C.ar    1  UNL1        0.0015
     10 C          -8.8217  -20.4844   18.3130 C.ar    1  UNL1        0.0001
     11 C         -10.2889  -20.1856   18.2234 C.ar    1  UNL1        0.0015
     12 C         -10.9418  -19.3161   19.2566 C.ar    1  UNL1        0.0172
     13 C         -10.1274  -18.7453   20.3795 C.ar    1  UNL1        0.0601
     14 N         -10.4921  -17.8620   21.5358 N.ar    1  UNL1       -0.3214
     15 C         -11.8587  -17.3209   21.8352 C.3     1  UNL1        0.1306
     16 C          -7.3797  -15.9579   25.4232 C.3     1  UNL1        0.0885
     17 C          -6.1159  -15.2274   25.7679 C.3     1  UNL1        0.0227
     18 C          -6.3093  -14.5709   27.1027 C.3     1  UNL1        0.0020
     19 C          -7.6927  -14.8957   27.5829 C.3     1  UNL1        0.0020
     20 C          -8.3543  -15.7530   26.5449 C.3     1  UNL1        0.0227
     21 N          -5.0456  -18.5091   20.3127 N.am    1  UNL1       -0.2995
     22 C          -5.6076  -19.0106   21.6099 C.2     1  UNL1        0.2474
     23 O          -5.0375  -20.2426   22.2479 O.2     1  UNL1       -0.2701
     24 H          -5.4199  -17.7004   19.8940 H       1  UNL1        0.1498
     25 C          -3.9134  -19.2396   19.6536 C.3     1  UNL1        0.1056
     26 N          -1.6524  -18.3731   20.7858 N.3     1  UNL1       -0.2724
     27 C          -0.3885  -17.7413   20.2824 C.3     1  UNL1        0.0721
     28 C          -0.5025  -17.5991   18.7935 C.3     1  UNL1        0.0188
     29 C          -1.8367  -18.1431   18.3767 C.3     1  UNL1        0.0191
     30 C          -2.5475  -18.6215   19.6080 C.3     1  UNL1        0.0772
     31 C          -2.6637  -17.6906   23.0796 C.3     1  UNL1        0.0188
     32 C          -1.9662  -18.6993   22.2159 C.3     1  UNL1        0.0721
@<TRIPOS>BOND
     1    31    32    1
     2    32    26    1
     3    26    27    1
     4    27    28    1
     5    28    29    1
     6    29    30    1
     7    30    25    1
     8    25    21    1
     9    21    22   am
    10    22    23    2
    11    22     1    1
    12     1     2   ar
    13     2     3   ar
    14     3    16    1
    15    16    17    1
    16    17    18    1
    17    18    19    1
    18    19    20    1
    19     3     4   ar
    20     4     5    2
    21     4     6   ar
    22     6     7   ar
    23     7     8   ar
    24     8     9   ar
    25     9    10   ar
    26    10    11   ar
    27    11    12   ar
    28    12    13   ar
    29    13    14   ar
    30    14    15    1
    31    30    26    1
    32     7     1   ar
    33    13     8   ar
    34    20    16    1
    35    14     6   ar
    36    21    24    1
@<TRIPOS>MOLECULE
*****
 32 36 0 0 0
SMALL
GASTEIGER

@<TRIPOS>ATOM
      1 C           4.2364   -1.1191   24.2207 C.ar    1  UNL1        0.0722
      2 C           5.3301   -2.0480   24.6579 C.ar    1  UNL1        0.0828
      3 N           5.8253   -3.1145   23.7266 N.ar    1  UNL1       -0.2947
      4 C           5.2268   -3.2520   22.3580 C.ar    1  UNL1        0.2767
      5 O           5.7220   -4.3185   21.4267 O.2     1  UNL1       -0.2654
      6 C           4.1332   -2.3231   21.9208 C.ar    1  UNL1        0.1170
      7 C           3.6380   -1.2566   22.8521 C.ar    1  UNL1        0.0277
      8 C           2.5559   -0.4926   22.1484 C.ar    1  UNL1        0.0175
      9 C           1.7062    0.6675   22.5752 C.ar    1  UNL1        0.0015
     10 C           0.6829    1.2333   21.6358 C.ar    1  UNL1        0.0001
     11 C           0.5093    0.6391   20.2695 C.ar    1  UNL1        0.0015
     12 C           1.3590   -0.5210   19.8427 C.ar    1  UNL1        0.0172
     13 C           2.3823   -1.0868   20.7822 C.ar    1  UNL1        0.0601
     14 N           3.3571   -2.2182   20.6415 N.ar    1  UNL1       -0.3214
     15 C           3.5261   -3.0913   19.4335 C.3     1  UNL1        0.1306
     16 C           6.9189   -4.0434   24.1638 C.3     1  UNL1        0.0885
     17 C           8.2885   -4.1390   23.5596 C.3     1  UNL1        0.0227
     18 C           9.0510   -5.1944   24.3043 C.3     1  UNL1        0.0020
     19 C           8.1526   -5.7511   25.3688 C.3     1  UNL1        0.0020
     20 C           6.8350   -5.0397   25.2819 C.3     1  UNL1        0.0227
     21 N           2.7854   -0.4035   26.2536 N.am    1  UNL1       -0.2995
     22 C           3.7412   -0.0525   25.1521 C.2     1  UNL1        0.2474
     23 O           4.2019    1.3647   24.9819 O.2     1  UNL1       -0.2701
     24 H           2.4831   -1.3337   26.3653 H       1  UNL1        0.1498
     25 C           2.2903    0.6630   27.1849 C.3     1  UNL1        0.1056
     26 N          -0.2539    1.3209   27.6738 N.3     1  UNL1       -0.2724
     27 C          -1.2665    2.2071   27.0109 C.3     1  UNL1        0.0721
     28 C          -0.6222    2.8271   25.8066 C.3     1  UNL1        0.0188
     29 C           0.7887    2.3242   25.7252 C.3     1  UNL1        0.0191
     30 C           1.0163    1.3933   26.8792 C.3     1  UNL1        0.0772
     31 C          -1.5413   -0.5470   28.9400 C.3     1  UNL1        0.0188
     32 C          -0.4730    0.5056   28.9136 C.3     1  UNL1        0.0721
@<TRIPOS>BOND
     1    31    32    1
     2    32    26    1
     3    26    27    1
     4    27    28    1
     5    28    29    1
     6    29    30    1
     7    30    25    1
     8    25    21    1
     9    21    22   am
    10    22    23    2
    11    22     1    1
    12     1     2   ar
    13     2     3   ar
    14     3    16    1
    15    16    17    1
    16    17    18    1
    17    18    19    1
    18    19    20    1
    19     3     4   ar
    20     4     5    2
    21     4     6   ar
    22     6     7   ar
    23     7     8   ar
    24     8     9   ar
    25     9    10   ar
    26    10    11   ar
    27    11    12   ar
    28    12    13   ar
    29    13    14   ar
    30    14    15    1
    31    30    26    1
    32     7     1   ar
    33    13     8   ar
    34    20    16    1
    35    14     6   ar
    36    21    24    1
@<TRIPOS>MOLECULE
*****
 32 36 0 0 0
SMALL
GASTEIGER

@<TRIPOS>ATOM
      1 C           6.2300   -2.8640   25.9245 C.ar    1  UNL1        0.0722
      2 C           5.6841   -1.8066   26.8376 C.ar    1  UNL1        0.0828
      3 N           5.7649   -1.9852   28.3247 N.ar    1  UNL1       -0.2947
      4 C           6.3916   -3.2212   28.8987 C.ar    1  UNL1        0.2767
      5 O           6.4724   -3.3997   30.3859 O.2     1  UNL1       -0.2654
      6 C           6.9376   -4.2786   27.9856 C.ar    1  UNL1        0.1170
      7 C           6.8568   -4.1000   26.4985 C.ar    1  UNL1        0.0277
      8 C           7.4757   -5.3041   25.8527 C.ar    1  UNL1        0.0175
      9 C           7.6773   -5.6795   24.4145 C.ar    1  UNL1        0.0015
     10 C           8.3422   -6.9777   24.0643 C.ar    1  UNL1        0.0001
     11 C           8.8055   -7.9004   25.1524 C.ar    1  UNL1        0.0015
     12 C           8.6040   -7.5251   26.5905 C.ar    1  UNL1        0.0172
     13 C           7.9391   -6.2269   26.9407 C.ar    1  UNL1        0.0601
     14 N           7.6064   -5.5931   28.2589 N.ar    1  UNL1       -0.3214
     15 C           7.8925   -6.1721   29.6127 C.3     1  UNL1        0.1306
     16 C           5.2189   -0.9278   29.2379 C.3     1  UNL1        0.0885
     17 C           6.0259    0.0779   30.0043 C.3     1  UNL1        0.0227
     18 C           5.0759    0.9368   30.7850 C.3     1  UNL1        0.0020
     19 C           3.6816    0.4620   30.5011 C.3     1  UNL1        0.0020
     20 C           3.7700   -0.6903   29.5450 C.3     1  UNL1        0.0227
     21 N           5.0292   -3.3181   23.6657 N.am    1  UNL1       -0.2995
     22 C           6.1492   -2.6854   24.4373 C.2     1  UNL1        0.2474
     23 O           7.1884   -1.8742   23.7218 O.2     1  UNL1       -0.2701
     24 H           4.3471   -3.8505   24.1353 H       1  UNL1        0.1498
     25 C           4.9485   -3.1394   22.1786 C.3     1  UNL1        0.1056
     26 N           3.4255   -2.2498   20.1700 N.3     1  UNL1       -0.2724
     27 C           2.3969   -1.1688   20.0171 C.3     1  UNL1        0.0721
     28 C           2.2502   -0.4781   21.3405 C.3     1  UNL1        0.0188
     29 C           3.1882   -1.1322   22.3113 C.3     1  UNL1        0.0191
     30 C           3.9146   -2.2272   21.5878 C.3     1  UNL1        0.0772
     31 C           3.5380   -4.6460   19.1721 C.3     1  UNL1        0.0188
     32 C           3.8845   -3.1887   19.0939 C.3     1  UNL1        0.0721
@<TRIPOS>BOND
     1    31    32    1
     2    32    26    1
     3    26    27    1
     4    27    28    1
     5    28    29    1
     6    29    30    1
     7    30    25    1
     8    25    21    1
     9    21    22   am
    10    22    23    2
    11    22     1    1
    12     1     2   ar
    13     2     3   ar
    14     3    16    1
    15    16    17    1
    16    17    18    1
    17    18    19    1
    18    19    20    1
    19     3     4   ar
    20     4     5    2
    21     4     6   ar
    22     6     7   ar
    23     7     8   ar
    24     8     9   ar
    25     9    10   ar
    26    10    11   ar
    27    11    12   ar
    28    12    13   ar
    29    13    14   ar
    30    14    15    1
    31    30    26    1
    32     7     1   ar
    33    13     8   ar
    34    20    16    1
    35    14     6   ar
    36    21    24    1
@<TRIPOS>MOLECULE
*****
 32 36 0 0 0
SMALL
GASTEIGER

@<TRIPOS>ATOM
      1 C           6.2537   -2.7479   27.5191 C.ar    1  UNL1        0.0722
      2 C           5.9538   -2.1281   28.8518 C.ar    1  UNL1        0.0828
      3 N           6.3160   -2.8524   30.1144 N.ar    1  UNL1       -0.2947
      4 C           6.9780   -4.1966   30.0443 C.ar    1  UNL1        0.2767
      5 O           7.3402   -4.9209   31.3069 O.2     1  UNL1       -0.2654
      6 C           7.2779   -4.8164   28.7116 C.ar    1  UNL1        0.1170
      7 C           6.9158   -4.0920   27.4491 C.ar    1  UNL1        0.0277
      8 C           7.3321   -4.9465   26.2887 C.ar    1  UNL1        0.0175
      9 C           7.2271   -4.7459   24.8059 C.ar    1  UNL1        0.0015
     10 C           7.7416   -5.7978   23.8685 C.ar    1  UNL1        0.0001
     11 C           8.3611   -7.0503   24.4139 C.ar    1  UNL1        0.0015
     12 C           8.4661   -7.2509   25.8967 C.ar    1  UNL1        0.0172
     13 C           7.9516   -6.1990   26.8341 C.ar    1  UNL1        0.0601
     14 N           7.9181   -6.1186   28.3316 N.ar    1  UNL1       -0.3214
     15 C           8.4342   -7.1579   29.2821 C.3     1  UNL1        0.1306
     16 C           6.0160   -2.2327   31.4470 C.3     1  UNL1        0.0885
     17 C           4.6958   -2.2667   32.1582 C.3     1  UNL1        0.0227
     18 C           4.8475   -1.5252   33.4531 C.3     1  UNL1        0.0020
     19 C           6.2615   -1.0328   33.5424 C.3     1  UNL1        0.0020
     20 C           6.9837   -1.4700   32.3026 C.3     1  UNL1        0.0227
     21 N           4.4870   -2.0845   25.7334 N.am    1  UNL1       -0.2995
     22 C           5.8915   -2.0234   26.2565 C.2     1  UNL1        0.2474
     23 O           6.9338   -1.2380   25.5172 O.2     1  UNL1       -0.2701
     24 H           3.8029   -2.6000   26.2186 H       1  UNL1        0.1498
     25 C           4.1249   -1.3601   24.4708 C.3     1  UNL1        0.1056
     26 N           3.8835   -1.4747   21.8112 N.3     1  UNL1       -0.2724
     27 C           4.1379   -2.5213   20.7672 C.3     1  UNL1        0.0721
     28 C           4.6406   -3.7536   21.4590 C.3     1  UNL1        0.0188
     29 C           4.6969   -3.4686   22.9306 C.3     1  UNL1        0.0191
     30 C           4.2290   -2.0601   23.1483 C.3     1  UNL1        0.0772
     31 C           1.9210    0.2273   21.7685 C.3     1  UNL1        0.0188
     32 C           3.3732   -0.0864   21.5619 C.3     1  UNL1        0.0721
@<TRIPOS>BOND
     1    31    32    1
     2    32    26    1
     3    26    27    1
     4    27    28    1
     5    28    29    1
     6    29    30    1
     7    30    25    1
     8    25    21    1
     9    21    22   am
    10    22    23    2
    11    22     1    1
    12     1     2   ar
    13     2     3   ar
    14     3    16    1
    15    16    17    1
    16    17    18    1
    17    18    19    1
    18    19    20    1
    19     3     4   ar
    20     4     5    2
    21     4     6   ar
    22     6     7   ar
    23     7     8   ar
    24     8     9   ar
    25     9    10   ar
    26    10    11   ar
    27    11    12   ar
    28    12    13   ar
    29    13    14   ar
    30    14    15    1
    31    30    26    1
    32     7     1   ar
    33    13     8   ar
    34    20    16    1
    35    14     6   ar
    36    21    24    1
@<TRIPOS>MOLECULE
*****
 32 36 0 0 0
SMALL
GASTEIGER

@<TRIPOS>ATOM
      1 C           0.3243    2.4170   21.5343 C.ar    1  UNL1        0.0722
      2 C           1.1716    2.0401   20.3553 C.ar    1  UNL1        0.0828
      3 N           2.3720    1.1608   20.5449 N.ar    1  UNL1       -0.2947
      4 C           2.7250    0.6584   21.9135 C.ar    1  UNL1        0.2767
      5 O           3.9253   -0.2210   22.1030 O.2     1  UNL1       -0.2654
      6 C           1.8776    1.0353   23.0924 C.ar    1  UNL1        0.1170
      7 C           0.6773    1.9146   22.9029 C.ar    1  UNL1        0.0277
      8 C           0.0349    2.1174   24.2431 C.ar    1  UNL1        0.0175
      9 C          -1.1778    2.8913   24.6681 C.ar    1  UNL1        0.0015
     10 C          -1.5870    2.9111   26.1110 C.ar    1  UNL1        0.0001
     11 C          -0.7837    2.1571   27.1289 C.ar    1  UNL1        0.0015
     12 C           0.4289    1.3833   26.7039 C.ar    1  UNL1        0.0172
     13 C           0.8382    1.3635   25.2610 C.ar    1  UNL1        0.0601
     14 N           1.9771    0.6947   24.5498 N.ar    1  UNL1       -0.3214
     15 C           3.0305   -0.1640   25.1847 C.3     1  UNL1        0.1306
     16 C           3.2193    0.7839   19.3659 C.3     1  UNL1        0.0885
     17 C           4.4826    1.4673   18.9336 C.3     1  UNL1        0.0227
     18 C           4.9962    0.7632   17.7128 C.3     1  UNL1        0.0020
     19 C           4.0503   -0.3555   17.3906 C.3     1  UNL1        0.0020
     20 C           2.9521   -0.3427   18.4123 C.3     1  UNL1        0.0227
     21 N          -2.1024    2.7563   20.6704 N.am    1  UNL1       -0.2995
     22 C          -0.8761    3.2964   21.3447 C.2     1  UNL1        0.2474
     23 O          -0.8501    4.7156   21.8293 O.2     1  UNL1       -0.2701
     24 H          -2.1195    1.8248   20.3524 H       1  UNL1        0.1498
     25 C          -3.3027    3.6357   20.4808 C.3     1  UNL1        0.1056
     26 N          -5.8021    4.0536   21.3315 N.3     1  UNL1       -0.2724
     27 C          -6.4933    3.9967   22.6615 C.3     1  UNL1        0.0721
     28 C          -5.4778    3.6097   23.6955 C.3     1  UNL1        0.0188
     29 C          -4.1590    3.4273   23.0044 C.3     1  UNL1        0.0191
     30 C          -4.3594    3.7017   21.5434 C.3     1  UNL1        0.0772
     31 C          -6.5561    3.3634   18.9429 C.3     1  UNL1        0.0188
     32 C          -6.4413    4.4013   20.0198 C.3     1  UNL1        0.0721
@<TRIPOS>BOND
     1    31    32    1
     2    32    26    1
     3    26    27    1
     4    27    28    1
     5    28    29    1
     6    29    30    1
     7    30    25    1
     8    25    21    1
     9    21    22   am
    10    22    23    2
    11    22     1    1
    12     1     2   ar
    13     2     3   ar
    14     3    16    1
    15    16    17    1
    16    17    18    1
    17    18    19    1
    18    19    20    1
    19     3     4   ar
    20     4     5    2
    21     4     6   ar
    22     6     7   ar
    23     7     8   ar
    24     8     9   ar
    25     9    10   ar
    26    10    11   ar
    27    11    12   ar
    28    12    13   ar
    29    13    14   ar
    30    14    15    1
    31    30    26    1
    32     7     1   ar
    33    13     8   ar
    34    20    16    1
    35    14     6   ar
    36    21    24    1
@<TRIPOS>MOLECULE
*****
 32 36 0 0 0
SMALL
GASTEIGER

@<TRIPOS>ATOM
      1 C          -6.4373  -18.5979   21.8526 C.ar    1  UNL1        0.0722
      2 C          -6.7810  -19.4539   20.6698 C.ar    1  UNL1        0.0828
      3 N          -8.2086  -19.5850   20.2283 N.ar    1  UNL1       -0.2947
      4 C          -9.2924  -18.8600   20.9697 C.ar    1  UNL1        0.2767
      5 O         -10.7200  -18.9911   20.5282 O.2     1  UNL1       -0.2654
      6 C          -8.9487  -18.0040   22.1525 C.ar    1  UNL1        0.1170
      7 C          -7.5212  -17.8729   22.5940 C.ar    1  UNL1        0.0277
      8 C          -7.4864  -16.9643   23.7870 C.ar    1  UNL1        0.0175
      9 C          -6.3561  -16.4733   24.6421 C.ar    1  UNL1        0.0015
     10 C          -6.6318  -15.5518   25.7930 C.ar    1  UNL1        0.0001
     11 C          -8.0379  -15.1213   26.0889 C.ar    1  UNL1        0.0015
     12 C          -9.1683  -15.6123   25.2338 C.ar    1  UNL1        0.0172
     13 C          -8.8925  -16.5337   24.0828 C.ar    1  UNL1        0.0601
     14 N          -9.7962  -17.1763   23.0727 N.ar    1  UNL1       -0.3214
     15 C         -11.2860  -17.0189   22.9962 C.3     1  UNL1        0.1306
     16 C          -8.5523  -20.4410   19.0455 C.3     1  UNL1        0.0885
     17 C          -9.5127  -20.0859   17.9494 C.3     1  UNL1        0.0227
     18 C          -9.5499  -21.2278   16.9776 C.3     1  UNL1        0.0020
     19 C          -8.6125  -22.2888   17.4731 C.3     1  UNL1        0.0020
     20 C          -7.9959  -21.8026   18.7511 C.3     1  UNL1        0.0227
     21 N          -4.2103  -17.2605   21.8992 N.am    1  UNL1       -0.2995
     22 C          -5.0097  -18.4668   22.2940 C.2     1  UNL1        0.2474
     23 O          -4.3815  -19.5420   23.1302 O.2     1  UNL1       -0.2701
     24 H          -4.6226  -16.5547   21.3504 H       1  UNL1        0.1498
     25 C          -2.7828  -17.1295   22.3407 C.3     1  UNL1        0.1056
     26 N          -1.3922  -18.6918   20.6762 N.3     1  UNL1       -0.2724
     27 C          -0.1906  -18.5021   19.7986 C.3     1  UNL1        0.0721
     28 C           0.2739  -17.0838   19.9489 C.3     1  UNL1        0.0188
     29 C          -0.6406  -16.3970   20.9195 C.3     1  UNL1        0.0191
     30 C          -1.6703  -17.3908   21.3690 C.3     1  UNL1        0.0772
     31 C          -3.2690  -20.2920   19.8592 C.3     1  UNL1        0.0188
     32 C          -2.1778  -19.9600   20.8335 C.3     1  UNL1        0.0721
@<TRIPOS>BOND
     1    31    32    1
     2    32    26    1
     3    26    27    1
     4    27    28    1
     5    28    29    1
     6    29    30    1
     7    30    25    1
     8    25    21    1
     9    21    22   am
    10    22    23    2
    11    22     1    1
    12     1     2   ar
    13     2     3   ar
    14     3    16    1
    15    16    17    1
    16    17    18    1
    17    18    19    1
    18    19    20    1
    19     3     4   ar
    20     4     5    2
    21     4     6   ar
    22     6     7   ar
    23     7     8   ar
    24     8     9   ar
    25     9    10   ar
    26    10    11   ar
    27    11    12   ar
    28    12    13   ar
    29    13    14   ar
    30    14    15    1
    31    30    26    1
    32     7     1   ar
    33    13     8   ar
    34    20    16    1
    35    14     6   ar
    36    21    24    1
@<TRIPOS>MOLECULE
*****
 32 36 0 0 0
SMALL
GASTEIGER

@<TRIPOS>ATOM
      1 C           5.9594   -2.7794   25.8200 C.ar    1  UNL1        0.0722
      2 C           5.8770   -2.5743   24.3363 C.ar    1  UNL1        0.0828
      3 N           6.4812   -3.5832   23.4051 N.ar    1  UNL1       -0.2947
      4 C           7.1677   -4.7970   23.9575 C.ar    1  UNL1        0.2767
      5 O           7.7719   -5.8058   23.0263 O.2     1  UNL1       -0.2654
      6 C           7.2501   -5.0020   25.4412 C.ar    1  UNL1        0.1170
      7 C           6.6459   -3.9932   26.3724 C.ar    1  UNL1        0.0277
      8 C           6.8814   -4.4605   27.7782 C.ar    1  UNL1        0.0175
      9 C           6.5100   -3.8721   29.1070 C.ar    1  UNL1        0.0015
     10 C           6.8884   -4.5813   30.3734 C.ar    1  UNL1        0.0001
     11 C           7.6381   -5.8790   30.3109 C.ar    1  UNL1        0.0015
     12 C           8.0095   -6.4675   28.9821 C.ar    1  UNL1        0.0172
     13 C           7.6312   -5.7582   27.7157 C.ar    1  UNL1        0.0601
     14 N           7.8590   -6.0928   26.2714 N.ar    1  UNL1       -0.3214
     15 C           8.5709   -7.3055   25.7490 C.3     1  UNL1        0.1306
     16 C           6.3988   -3.3781   21.9214 C.3     1  UNL1        0.0885
     17 C           7.4922   -2.8469   21.0427 C.3     1  UNL1        0.0227
     18 C           6.9778   -2.8088   19.6343 C.3     1  UNL1        0.0020
     19 C           5.5663   -3.3165   19.6425 C.3     1  UNL1        0.0020
     20 C           5.2085   -3.6683   21.0560 C.3     1  UNL1        0.0227
     21 N           3.9092   -1.8767   27.1363 N.am    1  UNL1       -0.2995
     22 C           5.3551   -1.7705   26.7512 C.2     1  UNL1        0.2474
     23 O           6.1967   -0.6555   27.2973 O.2     1  UNL1       -0.2701
     24 H           3.3569   -2.6086   26.7778 H       1  UNL1        0.1498
     25 C           3.3051   -0.8679   28.0675 C.3     1  UNL1        0.1056
     26 N           1.0526    0.5670   27.9543 N.3     1  UNL1       -0.2724
     27 C           0.5830    1.7422   27.1492 C.3     1  UNL1        0.0721
     28 C           1.6913    2.1402   26.2201 C.3     1  UNL1        0.0188
     29 C           2.8459    1.2109   26.4509 C.3     1  UNL1        0.0191
     30 C           2.4512    0.2386   27.5228 C.3     1  UNL1        0.0772
     31 C          -1.1683   -0.5227   28.7481 C.3     1  UNL1        0.0188
     32 C           0.2625   -0.1534   29.0062 C.3     1  UNL1        0.0721
@<TRIPOS>BOND
     1    31    32    1
     2    32    26    1
     3    26    27    1
     4    27    28    1
     5    28    29    1
     6    29    30    1
     7    30    25    1
     8    25    21    1
     9    21    22   am
    10    22    23    2
    11    22     1    1
    12     1     2   ar
    13     2     3   ar
    14     3    16    1
    15    16    17    1
    16    17    18    1
    17    18    19    1
    18    19    20    1
    19     3     4   ar
    20     4     5    2
    21     4     6   ar
    22     6     7   ar
    23     7     8   ar
    24     8     9   ar
    25     9    10   ar
    26    10    11   ar
    27    11    12   ar
    28    12    13   ar
    29    13    14   ar
    30    14    15    1
    31    30    26    1
    32     7     1   ar
    33    13     8   ar
    34    20    16    1
    35    14     6   ar
    36    21    24    1
@<TRIPOS>MOLECULE
*****
 32 36 0 0 0
SMALL
GASTEIGER

@<TRIPOS>ATOM
      1 C           5.3739   -2.3816   24.5501 C.ar    1  UNL1        0.0722
      2 C           5.4664   -2.9556   23.1673 C.ar    1  UNL1        0.0828
      3 N           4.5167   -2.4980   22.1002 N.ar    1  UNL1       -0.2947
      4 C           3.4746   -1.4664   22.4159 C.ar    1  UNL1        0.2767
      5 O           2.5249   -1.0088   21.3489 O.2     1  UNL1       -0.2654
      6 C           3.3821   -0.8925   23.7987 C.ar    1  UNL1        0.1170
      7 C           4.3317   -1.3501   24.8658 C.ar    1  UNL1        0.0277
      8 C           4.0022   -0.6099   26.1282 C.ar    1  UNL1        0.0175
      9 C           4.6033   -0.6510   27.5018 C.ar    1  UNL1        0.0015
     10 C           4.0511    0.2230   28.5885 C.ar    1  UNL1        0.0001
     11 C           2.8977    1.1381   28.3017 C.ar    1  UNL1        0.0015
     12 C           2.2965    1.1792   26.9280 C.ar    1  UNL1        0.0172
     13 C           2.8488    0.3051   25.8413 C.ar    1  UNL1        0.0601
     14 N           2.4655    0.1305   24.4016 N.ar    1  UNL1       -0.3214
     15 C           1.3599    0.8522   23.6898 C.3     1  UNL1        0.1306
     16 C           4.6092   -3.0719   20.7175 C.3     1  UNL1        0.0885
     17 C           5.2880   -2.4341   19.5417 C.3     1  UNL1        0.0227
     18 C           5.1375   -3.3524   18.3653 C.3     1  UNL1        0.0020
     19 C           4.3657   -4.5578   18.8140 C.3     1  UNL1        0.0020
     20 C           4.0392   -4.3845   20.2677 C.3     1  UNL1        0.0227
     21 N           6.0942   -4.1473   26.3147 N.am    1  UNL1       -0.2995
     22 C           6.3237   -2.8393   25.6172 C.2     1  UNL1        0.2474
     23 O           7.5028   -1.9890   25.9867 O.2     1  UNL1       -0.2701
     24 H           5.3203   -4.7055   26.0721 H       1  UNL1        0.1498
     25 C           7.0440   -4.6050   27.3817 C.3     1  UNL1        0.1056
     26 N           8.2099   -6.7074   28.5501 N.3     1  UNL1       -0.2724
     27 C           8.4937   -8.1236   28.1451 C.3     1  UNL1        0.0721
     28 C           7.9713   -8.3212   26.7530 C.3     1  UNL1        0.0188
     29 C           7.3647   -7.0271   26.2976 C.3     1  UNL1        0.0191
     30 C           7.5121   -6.0298   27.4082 C.3     1  UNL1        0.0772
     31 C           7.5127   -5.9205   30.9259 C.3     1  UNL1        0.0188
     32 C           8.5620   -6.0792   29.8659 C.3     1  UNL1        0.0721
@<TRIPOS>BOND
     1    31    32    1
     2    32    26    1
     3    26    27    1
     4    27    28    1
     5    28    29    1
     6    29    30    1
     7    30    25    1
     8    25    21    1
     9    21    22   am
    10    22    23    2
    11    22     1    1
    12     1     2   ar
    13     2     3   ar
    14     3    16    1
    15    16    17    1
    16    17    18    1
    17    18    19    1
    18    19    20    1
    19     3     4   ar
    20     4     5    2
    21     4     6   ar
    22     6     7   ar
    23     7     8   ar
    24     8     9   ar
    25     9    10   ar
    26    10    11   ar
    27    11    12   ar
    28    12    13   ar
    29    13    14   ar
    30    14    15    1
    31    30    26    1
    32     7     1   ar
    33    13     8   ar
    34    20    16    1
    35    14     6   ar
    36    21    24    1
@<TRIPOS>MOLECULE
*****
 32 36 0 0 0
SMALL
GASTEIGER

@<TRIPOS>ATOM
      1 C           1.7848    0.8250   21.4009 C.ar    1  UNL1        0.0722
      2 C           2.4053   -0.1374   20.4319 C.ar    1  UNL1        0.0828
      3 N           3.2816   -1.2466   20.9336 N.ar    1  UNL1       -0.2947
      4 C           3.5375   -1.3934   22.4043 C.ar    1  UNL1        0.2767
      5 O           4.4138   -2.5026   22.9060 O.2     1  UNL1       -0.2654
      6 C           2.9170   -0.4310   23.3733 C.ar    1  UNL1        0.1170
      7 C           2.0406    0.6782   22.8716 C.ar    1  UNL1        0.0277
      8 C           1.5696    1.4687   24.0561 C.ar    1  UNL1        0.0175
      9 C           0.6834    2.6735   24.1706 C.ar    1  UNL1        0.0015
     10 C           0.3825    3.2577   25.5190 C.ar    1  UNL1        0.0001
     11 C           0.9677    2.6371   26.7528 C.ar    1  UNL1        0.0015
     12 C           1.8539    1.4323   26.6383 C.ar    1  UNL1        0.0172
     13 C           2.1548    0.8481   25.2900 C.ar    1  UNL1        0.0601
     14 N           2.9875   -0.3260   24.8679 N.ar    1  UNL1       -0.3214
     15 C           3.7559   -1.2354   25.7804 C.3     1  UNL1        0.1306
     16 C           3.9021   -2.2089   19.9646 C.3     1  UNL1        0.0885
     17 C           5.0176   -1.9026   19.0098 C.3     1  UNL1        0.0227
     18 C           5.3210   -3.1508   18.2355 C.3     1  UNL1        0.0020
     19 C           4.3929   -4.2287   18.7117 C.3     1  UNL1        0.0020
     20 C           3.5160   -3.6466   19.7804 C.3     1  UNL1        0.0227
     21 N          -0.5812    1.7597   20.8729 N.am    1  UNL1       -0.2995
     22 C           0.9084    1.9342   20.8991 C.2     1  UNL1        0.2474
     23 O           1.5217    3.2178   20.4236 O.2     1  UNL1       -0.2701
     24 H          -0.9837    0.9172   21.1850 H       1  UNL1        0.1498
     25 C          -1.4575    2.8689   20.3711 C.3     1  UNL1        0.1056
     26 N          -3.9718    3.7056   20.7217 N.3     1  UNL1       -0.2724
     27 C          -4.7850    4.1574   21.8984 C.3     1  UNL1        0.0721
     28 C          -3.9120    4.0951   23.1165 C.3     1  UNL1        0.0188
     29 C          -2.5592    3.6049   22.6927 C.3     1  UNL1        0.0191
     30 C          -2.5962    3.3641   21.2125 C.3     1  UNL1        0.0772
     31 C          -5.8902    3.3048   19.0160 C.3     1  UNL1        0.0188
     32 C          -4.4503    3.6118   19.3031 C.3     1  UNL1        0.0721
@<TRIPOS>BOND
     1    31    32    1
     2    32    26    1
     3    26    27    1
     4    27    28    1
     5    28    29    1
     6    29    30    1
     7    30    25    1
     8    25    21    1
     9    21    22   am
    10    22    23    2
    11    22     1    1
    12     1     2   ar
    13     2     3   ar
    14     3    16    1
    15    16    17    1
    16    17    18    1
    17    18    19    1
    18    19    20    1
    19     3     4   ar
    20     4     5    2
    21     4     6   ar
    22     6     7   ar
    23     7     8   ar
    24     8     9   ar
    25     9    10   ar
    26    10    11   ar
    27    11    12   ar
    28    12    13   ar
    29    13    14   ar
    30    14    15    1
    31    30    26    1
    32     7     1   ar
    33    13     8   ar
    34    20    16    1
    35    14     6   ar
    36    21    24    1
