@<TRIPOS>MOLECULE
*****
 27 29 0 0 0
SMALL
GASTEIGER

@<TRIPOS>ATOM
      1 C           2.3600    1.0355   27.4544 C.ar    1  UNL1        0.1535
      2 C           2.0421    1.3594   26.0247 C.ar    1  UNL1        0.1162
      3 N           2.7441    0.3585   25.1556 N.ar    1  UNL1       -0.2864
      4 C           2.7959    0.1835   23.6667 C.ar    1  UNL1        0.0815
      5 C           3.5994   -0.9339   23.0704 C.ar    1  UNL1        0.0192
      6 C           4.3512   -1.8764   23.9630 C.ar    1  UNL1        0.0046
      7 C           4.2994   -1.7014   25.4518 C.ar    1  UNL1        0.0375
      8 C           3.4959   -0.5840   26.0481 C.ar    1  UNL1        0.1493
      9 N           3.2585   -0.1655   27.4689 N.ar    1  UNL1       -0.2116
     10 C           3.6512   -1.1089   21.5815 C.ar    1  UNL1        0.0207
     11 C           3.3688    0.0556   20.6792 C.ar    1  UNL1        0.1003
     12 N           3.4206   -0.1194   19.1904 N.ar    1  UNL1       -0.2297
     13 C           3.7548   -1.4589   18.6038 C.ar    1  UNL1        0.1292
     14 N           3.8066   -1.6339   17.1150 N.pl3   1  UNL1       -0.3427
     15 C           4.0373   -2.6234   19.5061 C.ar    1  UNL1        0.1025
     16 C           3.9855   -2.4484   20.9950 C.ar    1  UNL1        0.0083
     17 H           3.6212   -0.8696   16.5228 H       1  UNL1        0.1437
     18 H           4.0260   -2.5130   16.7300 H       1  UNL1        0.1437
     19 C           4.3716   -3.9629   18.9196 C.3     1  UNL1        0.4211
     20 F           4.7059   -5.3023   18.3330 F       1  UNL1       -0.1658
     21 F           2.9179   -4.3321   18.9342 F       1  UNL1       -0.1658
     22 F           5.8254   -3.5937   18.9050 F       1  UNL1       -0.1658
     23 C           0.4533    1.8539   30.8374 C.3     1  UNL1        0.0950
     24 C           0.9471    1.1077   29.6335 C.2     1  UNL1        0.2277
     25 O           0.5218   -0.3125   29.4048 O.2     1  UNL1       -0.2747
     26 N           1.8662    1.7817   28.6583 N.am    1  UNL1       -0.2681
     27 H           2.1453    2.7138   28.8084 H       1  UNL1        0.1563
@<TRIPOS>BOND
     1    23    24    1
     2    24    25    2
     3    24    26   am
     4    26     1    1
     5     1     2   ar
     6     2     3   ar
     7     3     4   ar
     8     4     5   ar
     9     5    10    1
    10    10    11   ar
    11    11    12   ar
    12    12    13   ar
    13    13    14    1
    14    13    15   ar
    15    15    19    1
    16    19    20    1
    17    19    21    1
    18    19    22    1
    19    15    16   ar
    20     5     6   ar
    21     6     7   ar
    22     7     8   ar
    23     8     9   ar
    24     9     1   ar
    25     8     3   ar
    26    16    10   ar
    27    26    27    1
    28    14    17    1
    29    14    18    1
@<TRIPOS>MOLECULE
*****
 27 29 0 0 0
SMALL
GASTEIGER

@<TRIPOS>ATOM
      1 C          -1.7568    3.7155   20.5223 C.ar    1  UNL1        0.1535
      2 C          -1.1225    2.7747   21.5033 C.ar    1  UNL1        0.1162
      3 N          -0.1121    1.9472   20.7654 N.ar    1  UNL1       -0.2864
      4 C           0.8156    0.8583   21.2165 C.ar    1  UNL1        0.0815
      5 C           1.7334    0.1987   20.2303 C.ar    1  UNL1        0.0192
      6 C           1.7235    0.6281   18.7931 C.ar    1  UNL1        0.0046
      7 C           0.7958    1.7171   18.3421 C.ar    1  UNL1        0.0375
      8 C          -0.1220    2.3766   19.3282 C.ar    1  UNL1        0.1493
      9 N          -1.1385    3.4695   19.1780 N.ar    1  UNL1       -0.2116
     10 C           2.6612   -0.8903   20.6813 C.ar    1  UNL1        0.0207
     11 C           3.2041   -0.8817   22.0796 C.ar    1  UNL1        0.1003
     12 N           4.1318   -1.9706   22.5306 N.ar    1  UNL1       -0.2297
     13 C           4.5167   -3.0683   21.5834 C.ar    1  UNL1        0.1292
     14 N           5.4444   -4.1572   22.0344 N.pl3   1  UNL1       -0.3427
     15 C           3.9737   -3.0769   20.1851 C.ar    1  UNL1        0.1025
     16 C           3.0459   -1.9879   19.7341 C.ar    1  UNL1        0.0083
     17 H           5.8007   -4.1516   22.9522 H       1  UNL1        0.1437
     18 H           5.6969   -4.8776   21.4128 H       1  UNL1        0.1437
     19 C           4.3585   -4.1744   19.2379 C.3     1  UNL1        0.4211
     20 F           4.7433   -5.2720   18.2907 F       1  UNL1       -0.1658
     21 F           5.4999   -3.3409   18.7357 F       1  UNL1       -0.1658
     22 F           3.2171   -5.0080   19.7402 F       1  UNL1       -0.1658
     23 C          -5.2550    5.2787   21.5562 C.3     1  UNL1        0.0950
     24 C          -4.1894    4.2691   21.2472 C.2     1  UNL1        0.2277
     25 O          -4.4911    2.8036   21.3543 O.2     1  UNL1       -0.2747
     26 N          -2.8223    4.7250   20.8312 N.am    1  UNL1       -0.2681
     27 H          -2.6244    5.6869   20.7609 H       1  UNL1        0.1563
@<TRIPOS>BOND
     1    23    24    1
     2    24    25    2
     3    24    26   am
     4    26     1    1
     5     1     2   ar
     6     2     3   ar
     7     3     4   ar
     8     4     5   ar
     9     5    10    1
    10    10    11   ar
    11    11    12   ar
    12    12    13   ar
    13    13    14    1
    14    13    15   ar
    15    15    19    1
    16    19    20    1
    17    19    21    1
    18    19    22    1
    19    15    16   ar
    20     5     6   ar
    21     6     7   ar
    22     7     8   ar
    23     8     9   ar
    24     9     1   ar
    25     8     3   ar
    26    16    10   ar
    27    26    27    1
    28    14    17    1
    29    14    18    1
@<TRIPOS>MOLECULE
*****
 27 29 0 0 0
SMALL
GASTEIGER

@<TRIPOS>ATOM
      1 C           3.9275    0.3488   28.5543 C.ar    1  UNL1        0.1535
      2 C           3.2118    0.3150   27.2365 C.ar    1  UNL1        0.1162
      3 N           3.9466   -0.6315   26.3341 N.ar    1  UNL1       -0.2864
      4 C           3.7016   -1.0627   24.9185 C.ar    1  UNL1        0.0815
      5 C           4.6264   -2.0450   24.2631 C.ar    1  UNL1        0.0192
      6 C           5.7962   -2.5962   25.0232 C.ar    1  UNL1        0.0046
      7 C           6.0412   -2.1650   26.4388 C.ar    1  UNL1        0.0375
      8 C           5.1164   -1.1827   27.0943 C.ar    1  UNL1        0.1493
      9 N           5.1045   -0.5768   28.4664 N.ar    1  UNL1       -0.2116
     10 C           4.3815   -2.4763   22.8474 C.ar    1  UNL1        0.0207
     11 C           4.7775   -3.8533   22.4036 C.ar    1  UNL1        0.1003
     12 N           4.5326   -4.2846   20.9880 N.ar    1  UNL1       -0.2297
     13 C           3.8916   -3.3388   20.0161 C.ar    1  UNL1        0.1292
     14 N           3.6467   -3.7700   18.6004 N.pl3   1  UNL1       -0.3427
     15 C           3.4956   -1.9617   20.4598 C.ar    1  UNL1        0.1025
     16 C           3.7405   -1.5305   21.8755 C.ar    1  UNL1        0.0083
     17 H           3.9067   -4.6738   18.3092 H       1  UNL1        0.1437
     18 H           3.2260   -3.1493   17.9625 H       1  UNL1        0.1437
     19 C           2.8546   -1.0159   19.4879 C.3     1  UNL1        0.4211
     20 F           2.2137   -0.0701   18.5160 F       1  UNL1       -0.1658
     21 F           4.2090   -0.6239   18.9762 F       1  UNL1       -0.1658
     22 F           1.5002   -1.4080   19.9996 F       1  UNL1       -0.1658
     23 C           2.0436    1.5065   31.8499 C.3     1  UNL1        0.0950
     24 C           2.4361    0.6904   30.6541 C.2     1  UNL1        0.2277
     25 O           1.7298   -0.6004   30.3624 O.2     1  UNL1       -0.2747
     26 N           3.5349    1.1649   29.7501 N.am    1  UNL1       -0.2681
     27 H           3.9985    2.0121   29.9416 H       1  UNL1        0.1563
@<TRIPOS>BOND
     1    23    24    1
     2    24    25    2
     3    24    26   am
     4    26     1    1
     5     1     2   ar
     6     2     3   ar
     7     3     4   ar
     8     4     5   ar
     9     5    10    1
    10    10    11   ar
    11    11    12   ar
    12    12    13   ar
    13    13    14    1
    14    13    15   ar
    15    15    19    1
    16    19    20    1
    17    19    21    1
    18    19    22    1
    19    15    16   ar
    20     5     6   ar
    21     6     7   ar
    22     7     8   ar
    23     8     9   ar
    24     9     1   ar
    25     8     3   ar
    26    16    10   ar
    27    26    27    1
    28    14    17    1
    29    14    18    1
@<TRIPOS>MOLECULE
*****
 27 29 0 0 0
SMALL
GASTEIGER

@<TRIPOS>ATOM
      1 C         -12.3034   -5.1541   18.7858 C.ar    1  UNL1        0.1535
      2 C         -13.5453   -4.9666   19.6059 C.ar    1  UNL1        0.1162
      3 N         -14.0163   -3.5549   19.4178 N.ar    1  UNL1       -0.2864
      4 C         -15.1880   -2.8046   19.9781 C.ar    1  UNL1        0.0815
      5 C         -15.4089   -1.3695   19.6021 C.ar    1  UNL1        0.0192
      6 C         -14.4581   -0.6845   18.6658 C.ar    1  UNL1        0.0046
      7 C         -13.2863   -1.4348   18.1055 C.ar    1  UNL1        0.0375
      8 C         -13.0654   -2.8699   18.4815 C.ar    1  UNL1        0.1493
      9 N         -12.0068   -3.8583   18.0909 N.ar    1  UNL1       -0.2116
     10 C         -16.5808   -0.6191   20.1625 C.ar    1  UNL1        0.0207
     11 C         -17.9627   -1.1906   20.0454 C.ar    1  UNL1        0.1003
     12 N         -19.1345   -0.4404   20.6057 N.ar    1  UNL1       -0.2297
     13 C         -18.9244    0.8814   21.2831 C.ar    1  UNL1        0.1292
     14 N         -20.0962    1.6317   21.8434 N.pl3   1  UNL1       -0.3427
     15 C         -17.5425    1.4529   21.4002 C.ar    1  UNL1        0.1025
     16 C         -16.3706    0.7026   20.8398 C.ar    1  UNL1        0.0083
     17 H         -21.0032    1.2566   21.7666 H       1  UNL1        0.1437
     18 H         -19.9583    2.4992   22.2880 H       1  UNL1        0.1437
     19 C         -17.3323    2.7746   22.0776 C.3     1  UNL1        0.4211
     20 F         -17.1222    4.0963   22.7549 F       1  UNL1       -0.1658
     21 F         -17.5537    3.4789   20.7719 F       1  UNL1       -0.1658
     22 F         -17.1110    2.0703   23.3832 F       1  UNL1       -0.1658
     23 C          -9.2342   -7.6668   18.9122 C.3     1  UNL1        0.0950
     24 C         -10.0383   -6.4050   19.0186 C.2     1  UNL1        0.2277
     25 O          -9.3812   -5.1323   19.4643 O.2     1  UNL1       -0.2747
     26 N         -11.4993   -6.4159   18.6794 N.am    1  UNL1       -0.2681
     27 H         -11.9306   -7.2512   18.3869 H       1  UNL1        0.1563
@<TRIPOS>BOND
     1    23    24    1
     2    24    25    2
     3    24    26   am
     4    26     1    1
     5     1     2   ar
     6     2     3   ar
     7     3     4   ar
     8     4     5   ar
     9     5    10    1
    10    10    11   ar
    11    11    12   ar
    12    12    13   ar
    13    13    14    1
    14    13    15   ar
    15    15    19    1
    16    19    20    1
    17    19    21    1
    18    19    22    1
    19    15    16   ar
    20     5     6   ar
    21     6     7   ar
    22     7     8   ar
    23     8     9   ar
    24     9     1   ar
    25     8     3   ar
    26    16    10   ar
    27    26    27    1
    28    14    17    1
    29    14    18    1
@<TRIPOS>MOLECULE
*****
 27 29 0 0 0
SMALL
GASTEIGER

@<TRIPOS>ATOM
      1 C           3.0751    0.3926   27.3698 C.ar    1  UNL1        0.1535
      2 C           3.8691   -0.2103   26.2490 C.ar    1  UNL1        0.1162
      3 N           3.1374    0.0561   24.9669 N.ar    1  UNL1       -0.2864
      4 C           3.4450   -0.3011   23.5429 C.ar    1  UNL1        0.0815
      5 C           2.5063    0.1093   22.4473 C.ar    1  UNL1        0.0192
      6 C           1.2601    0.8769   22.7757 C.ar    1  UNL1        0.0046
      7 C           0.9525    1.2340   24.1997 C.ar    1  UNL1        0.0375
      8 C           1.8912    0.8236   25.2953 C.ar    1  UNL1        0.1493
      9 N           1.8527    1.0316   26.7803 N.ar    1  UNL1       -0.2116
     10 C           2.8138   -0.2478   21.0232 C.ar    1  UNL1        0.0207
     11 C           2.5783    0.7533   19.9313 C.ar    1  UNL1        0.1003
     12 N           2.8858    0.3962   18.5073 N.ar    1  UNL1       -0.2297
     13 C           3.4288   -0.9621   18.1751 C.ar    1  UNL1        0.1292
     14 N           3.7362   -1.3192   16.7511 N.pl3   1  UNL1       -0.3427
     15 C           3.6643   -1.9632   19.2670 C.ar    1  UNL1        0.1025
     16 C           3.3568   -1.6061   20.6911 C.ar    1  UNL1        0.0083
     17 H           3.5817   -0.6621   16.0344 H       1  UNL1        0.1437
     18 H           4.0926   -2.2107   16.5331 H       1  UNL1        0.1437
     19 C           4.2073   -3.3215   18.9349 C.3     1  UNL1        0.4211
     20 F           4.7503   -4.6797   18.6028 F       1  UNL1       -0.1658
     21 F           2.8247   -3.8962   19.0248 F       1  UNL1       -0.1658
     22 F           5.5899   -2.7467   18.8450 F       1  UNL1       -0.1658
     23 C           2.7853   -0.0841   31.2990 C.3     1  UNL1        0.0950
     24 C           2.4209   -0.0534   29.8442 C.2     1  UNL1        0.2277
     25 O           1.0377   -0.4379   29.4093 O.2     1  UNL1       -0.2747
     26 N           3.4395    0.3619   28.8245 N.am    1  UNL1       -0.2681
     27 H           4.3473    0.6143   29.1100 H       1  UNL1        0.1563
@<TRIPOS>BOND
     1    23    24    1
     2    24    25    2
     3    24    26   am
     4    26     1    1
     5     1     2   ar
     6     2     3   ar
     7     3     4   ar
     8     4     5   ar
     9     5    10    1
    10    10    11   ar
    11    11    12   ar
    12    12    13   ar
    13    13    14    1
    14    13    15   ar
    15    15    19    1
    16    19    20    1
    17    19    21    1
    18    19    22    1
    19    15    16   ar
    20     5     6   ar
    21     6     7   ar
    22     7     8   ar
    23     8     9   ar
    24     9     1   ar
    25     8     3   ar
    26    16    10   ar
    27    26    27    1
    28    14    17    1
    29    14    18    1
@<TRIPOS>MOLECULE
*****
 27 29 0 0 0
SMALL
GASTEIGER

@<TRIPOS>ATOM
      1 C          -2.6735    3.9276   21.7030 C.ar    1  UNL1        0.1535
      2 C          -2.1598    3.2336   20.4764 C.ar    1  UNL1        0.1162
      3 N          -0.9135    2.4887   20.8530 N.ar    1  UNL1       -0.2864
      4 C           0.0209    1.6279   20.0556 C.ar    1  UNL1        0.0815
      5 C           1.2119    1.0007   20.7176 C.ar    1  UNL1        0.0192
      6 C           1.4684    1.2343   22.1769 C.ar    1  UNL1        0.0046
      7 C           0.5340    2.0951   22.9743 C.ar    1  UNL1        0.0375
      8 C          -0.6569    2.7223   22.3123 C.ar    1  UNL1        0.1493
      9 N          -1.7447    3.6116   22.8376 N.ar    1  UNL1       -0.2116
     10 C           2.1463    0.1398   19.9202 C.ar    1  UNL1        0.0207
     11 C           2.7496    0.6637   18.6507 C.ar    1  UNL1        0.1003
     12 N           3.6840   -0.1971   17.8534 N.ar    1  UNL1       -0.2297
     13 C           4.0152   -1.5819   18.3255 C.ar    1  UNL1        0.1292
     14 N           4.9497   -2.4427   17.5281 N.pl3   1  UNL1       -0.3427
     15 C           3.4120   -2.1058   19.5950 C.ar    1  UNL1        0.1025
     16 C           2.4775   -1.2449   20.3923 C.ar    1  UNL1        0.0083
     17 H           5.3456   -2.0988   16.6949 H       1  UNL1        0.1437
     18 H           5.1670   -3.3515   17.8380 H       1  UNL1        0.1437
     19 C           3.7431   -3.4904   20.0671 C.3     1  UNL1        0.4211
     20 F           4.0743   -4.8751   20.5392 F       1  UNL1       -0.1658
     21 F           2.7090   -4.0544   19.1384 F       1  UNL1       -0.1658
     22 F           4.7772   -2.9265   20.9958 F       1  UNL1       -0.1658
     23 C          -6.3736    5.1171   22.5060 C.3     1  UNL1        0.0950
     24 C          -5.1465    4.2580   22.4278 C.2     1  UNL1        0.2277
     25 O          -5.1653    2.8699   22.9963 O.2     1  UNL1       -0.2747
     26 N          -3.9006    4.7868   21.7811 N.am    1  UNL1       -0.2681
     27 H          -3.8883    5.6977   21.4080 H       1  UNL1        0.1563
@<TRIPOS>BOND
     1    23    24    1
     2    24    25    2
     3    24    26   am
     4    26     1    1
     5     1     2   ar
     6     2     3   ar
     7     3     4   ar
     8     4     5   ar
     9     5    10    1
    10    10    11   ar
    11    11    12   ar
    12    12    13   ar
    13    13    14    1
    14    13    15   ar
    15    15    19    1
    16    19    20    1
    17    19    21    1
    18    19    22    1
    19    15    16   ar
    20     5     6   ar
    21     6     7   ar
    22     7     8   ar
    23     8     9   ar
    24     9     1   ar
    25     8     3   ar
    26    16    10   ar
    27    26    27    1
    28    14    17    1
    29    14    18    1
@<TRIPOS>MOLECULE
*****
 27 29 0 0 0
SMALL
GASTEIGER

@<TRIPOS>ATOM
      1 C          -1.4330    3.5240   23.8057 C.ar    1  UNL1        0.1535
      2 C          -0.3924    2.4445   23.7632 C.ar    1  UNL1        0.1162
      3 N          -0.0358    2.2006   22.3267 N.ar    1  UNL1       -0.2864
      4 C           0.9297    1.2528   21.6792 C.ar    1  UNL1        0.0815
      5 C           1.0750    1.2338   20.1864 C.ar    1  UNL1        0.0192
      6 C           0.2548    2.1627   19.3412 C.ar    1  UNL1        0.0046
      7 C          -0.7107    3.1105   19.9887 C.ar    1  UNL1        0.0375
      8 C          -0.8561    3.1295   21.4814 C.ar    1  UNL1        0.1493
      9 N          -1.7195    3.9473   22.3955 N.ar    1  UNL1       -0.2116
     10 C           2.0406    0.2860   19.5389 C.ar    1  UNL1        0.0207
     11 C           2.6405    0.6212   18.2055 C.ar    1  UNL1        0.1003
     12 N           3.6061   -0.3266   17.5579 N.ar    1  UNL1       -0.2297
     13 C           3.9718   -1.6096   18.2437 C.ar    1  UNL1        0.1292
     14 N           4.9373   -2.5574   17.5961 N.pl3   1  UNL1       -0.3427
     15 C           3.3719   -1.9448   19.5770 C.ar    1  UNL1        0.1025
     16 C           2.4063   -0.9969   20.2246 C.ar    1  UNL1        0.0083
     17 H           5.3311   -2.3374   16.7210 H       1  UNL1        0.1437
     18 H           5.1774   -3.3994   18.0462 H       1  UNL1        0.1437
     19 C           3.7376   -3.2277   20.2628 C.3     1  UNL1        0.4211
     20 F           4.1032   -4.5107   20.9485 F       1  UNL1       -0.1658
     21 F           2.8470   -3.9843   19.3223 F       1  UNL1       -0.1658
     22 F           4.6281   -2.4712   21.2033 F       1  UNL1       -0.1658
     23 C          -4.1793    4.4252   26.5252 C.3     1  UNL1        0.0950
     24 C          -3.5379    3.8670   25.2894 C.2     1  UNL1        0.2277
     25 O          -4.3602    3.0935   24.3016 O.2     1  UNL1       -0.2747
     26 N          -2.0743    4.0822   25.0415 N.am    1  UNL1       -0.2681
     27 H          -1.5347    4.5899   25.6898 H       1  UNL1        0.1563
@<TRIPOS>BOND
     1    23    24    1
     2    24    25    2
     3    24    26   am
     4    26     1    1
     5     1     2   ar
     6     2     3   ar
     7     3     4   ar
     8     4     5   ar
     9     5    10    1
    10    10    11   ar
    11    11    12   ar
    12    12    13   ar
    13    13    14    1
    14    13    15   ar
    15    15    19    1
    16    19    20    1
    17    19    21    1
    18    19    22    1
    19    15    16   ar
    20     5     6   ar
    21     6     7   ar
    22     7     8   ar
    23     8     9   ar
    24     9     1   ar
    25     8     3   ar
    26    16    10   ar
    27    26    27    1
    28    14    17    1
    29    14    18    1
@<TRIPOS>MOLECULE
*****
 27 29 0 0 0
SMALL
GASTEIGER

@<TRIPOS>ATOM
      1 C           3.8727    0.1480   28.1690 C.ar    1  UNL1        0.1535
      2 C           4.4911   -0.9597   27.3686 C.ar    1  UNL1        0.1162
      3 N           4.0160   -0.8290   25.9518 N.ar    1  UNL1       -0.2864
      4 C           4.2961   -1.6386   24.7206 C.ar    1  UNL1        0.0815
      5 C           3.6641   -1.2597   23.4141 C.ar    1  UNL1        0.0192
      6 C           2.7521   -0.0712   23.3388 C.ar    1  UNL1        0.0046
      7 C           2.4720    0.7384   24.5700 C.ar    1  UNL1        0.0375
      8 C           3.1040    0.3595   25.8766 C.ar    1  UNL1        0.1493
      9 N           3.0154    0.9633   27.2468 N.ar    1  UNL1       -0.2116
     10 C           3.9442   -2.0693   22.1827 C.ar    1  UNL1        0.0207
     11 C           4.3351   -3.5122   22.3067 C.ar    1  UNL1        0.1003
     12 N           4.6151   -4.3218   21.0754 N.ar    1  UNL1       -0.2297
     13 C           4.5043   -3.6886   19.7201 C.ar    1  UNL1        0.1292
     14 N           4.7843   -4.4982   18.4889 N.pl3   1  UNL1       -0.3427
     15 C           4.1134   -2.2457   19.5961 C.ar    1  UNL1        0.1025
     16 C           3.8333   -1.4361   20.8275 C.ar    1  UNL1        0.0083
     17 H           5.0409   -5.4452   18.5703 H       1  UNL1        0.1437
     18 H           4.7116   -4.0826   17.5994 H       1  UNL1        0.1437
     19 C           4.0026   -1.6125   18.2409 C.3     1  UNL1        0.4211
     20 F           3.8917   -0.9793   16.8857 F       1  UNL1       -0.1658
     21 F           2.5642   -1.2844   18.5118 F       1  UNL1       -0.1658
     22 F           5.4409   -1.9406   17.9700 F       1  UNL1       -0.1658
     23 C           3.1933    0.3025   32.0760 C.3     1  UNL1        0.0950
     24 C           2.9902    0.0538   30.6107 C.2     1  UNL1        0.2277
     25 O           1.7012   -0.5378   30.1221 O.2     1  UNL1       -0.2747
     26 N           4.0758    0.3967   29.6342 N.am    1  UNL1       -0.2681
     27 H           4.9218    0.7850   29.9549 H       1  UNL1        0.1563
@<TRIPOS>BOND
     1    23    24    1
     2    24    25    2
     3    24    26   am
     4    26     1    1
     5     1     2   ar
     6     2     3   ar
     7     3     4   ar
     8     4     5   ar
     9     5    10    1
    10    10    11   ar
    11    11    12   ar
    12    12    13   ar
    13    13    14    1
    14    13    15   ar
    15    15    19    1
    16    19    20    1
    17    19    21    1
    18    19    22    1
    19    15    16   ar
    20     5     6   ar
    21     6     7   ar
    22     7     8   ar
    23     8     9   ar
    24     9     1   ar
    25     8     3   ar
    26    16    10   ar
    27    26    27    1
    28    14    17    1
    29    14    18    1
@<TRIPOS>MOLECULE
*****
 27 29 0 0 0
SMALL
GASTEIGER

@<TRIPOS>ATOM
      1 C          -2.5210    3.8681   21.5616 C.ar    1  UNL1        0.1535
      2 C          -2.0221    3.0476   20.4093 C.ar    1  UNL1        0.1162
      3 N          -0.7689    2.3487   20.8460 N.ar    1  UNL1       -0.2864
      4 C           0.1569    1.4087   20.1324 C.ar    1  UNL1        0.0815
      5 C           1.3583    0.8571   20.8410 C.ar    1  UNL1        0.0192
      6 C           1.6341    1.2457   22.2634 C.ar    1  UNL1        0.0046
      7 C           0.7084    2.1857   22.9770 C.ar    1  UNL1        0.0375
      8 C          -0.4931    2.7372   22.2684 C.ar    1  UNL1        0.1493
      9 N          -1.5760    3.6762   22.7106 N.ar    1  UNL1       -0.2116
     10 C           2.2841   -0.0829   20.1274 C.ar    1  UNL1        0.0207
     11 C           2.3572   -1.5226   20.5422 C.ar    1  UNL1        0.1003
     12 N           3.2830   -2.4626   19.8286 N.ar    1  UNL1       -0.2297
     13 C           4.1357   -1.9630   18.7001 C.ar    1  UNL1        0.1292
     14 N           5.0614   -2.9031   17.9865 N.pl3   1  UNL1       -0.3427
     15 C           4.0626   -0.5234   18.2853 C.ar    1  UNL1        0.1025
     16 C           3.1368    0.4167   18.9989 C.ar    1  UNL1        0.0083
     17 H           5.1094   -3.8480   18.2588 H       1  UNL1        0.1437
     18 H           5.6210   -2.5752   17.2459 H       1  UNL1        0.1437
     19 C           4.9152   -0.0238   17.1568 C.3     1  UNL1        0.4211
     20 F           5.7678    0.4758   16.0284 F       1  UNL1       -0.1658
     21 F           5.8328    0.6366   18.1426 F       1  UNL1       -0.1658
     22 F           3.9976   -0.6843   16.1711 F       1  UNL1       -0.1658
     23 C          -6.2316    5.1058   22.2321 C.3     1  UNL1        0.0950
     24 C          -5.0034    4.2446   22.2292 C.2     1  UNL1        0.2277
     25 O          -5.0295    2.8988   22.8911 O.2     1  UNL1       -0.2747
     26 N          -3.7491    4.7293   21.5645 N.am    1  UNL1       -0.2681
     27 H          -3.7320    5.6126   21.1301 H       1  UNL1        0.1563
@<TRIPOS>BOND
     1    23    24    1
     2    24    25    2
     3    24    26   am
     4    26     1    1
     5     1     2   ar
     6     2     3   ar
     7     3     4   ar
     8     4     5   ar
     9     5    10    1
    10    10    11   ar
    11    11    12   ar
    12    12    13   ar
    13    13    14    1
    14    13    15   ar
    15    15    19    1
    16    19    20    1
    17    19    21    1
    18    19    22    1
    19    15    16   ar
    20     5     6   ar
    21     6     7   ar
    22     7     8   ar
    23     8     9   ar
    24     9     1   ar
    25     8     3   ar
    26    16    10   ar
    27    26    27    1
    28    14    17    1
    29    14    18    1
