@<TRIPOS>MOLECULE
*****
 40 45 0 0 0
SMALL
GASTEIGER

@<TRIPOS>ATOM
      1 C           4.2473   -1.9609   23.9813 C.3     1  UNL1        0.0749
      2 C           3.6983   -1.4641   22.6769 C.3     1  UNL1        0.0444
      3 C           4.0858   -2.1388   21.3945 C.ar    1  UNL1       -0.0101
      4 C           5.0223   -3.3104   21.4166 C.ar    1  UNL1       -0.0091
      5 C           5.4098   -3.9851   20.1341 C.ar    1  UNL1       -0.0032
      6 C           4.8608   -3.4883   18.8296 C.ar    1  UNL1        0.0010
      7 C           3.9243   -2.3168   18.8075 C.ar    1  UNL1        0.0142
      8 C           3.5368   -1.6420   20.0899 C.ar    1  UNL1        0.0437
      9 C           5.5713   -3.8072   22.7211 C.3     1  UNL1        0.0954
     10 N           5.1838   -3.1324   24.0034 N.3     1  UNL1       -0.2934
     11 H           6.0479   -2.8105   24.4395 H       1  UNL1        0.1236
     12 N           2.6002   -0.4705   20.0678 N.pl3   1  UNL1       -0.3043
     13 C           3.1387    0.9166   19.8776 C.3     1  UNL1        0.1122
     14 C           2.2022    2.0881   19.8555 C.3     1  UNL1        0.1122
     15 N           0.7272    1.8725   20.0236 N.pl3   1  UNL1       -0.3041
     16 C           0.1889    0.4855   20.2138 C.3     1  UNL1        0.1122
     17 C           1.1254   -0.6861   20.2359 C.3     1  UNL1        0.1122
     18 C          -0.2093    3.0440   20.0015 C.ar    1  UNL1        0.0479
     19 C           0.1729    4.2961   19.2690 C.ar    1  UNL1        0.0145
     20 C          -0.7636    5.4676   19.2469 C.ar    1  UNL1        0.0012
     21 C          -2.0823    5.3871   19.9573 C.ar    1  UNL1        0.0039
     22 C          -2.4645    4.1351   20.6897 C.ar    1  UNL1        0.0726
     23 C          -1.5280    2.9636   20.7118 C.ar    1  UNL1        0.0184
     24 C          -3.7832    4.0546   21.4001 C.3     1  UNL1        0.4186
     25 F          -5.1019    3.9741   22.1104 F       1  UNL1       -0.1659
     26 F          -4.4356    4.7993   20.2733 F       1  UNL1       -0.1659
     27 F          -3.1308    3.3099   22.5269 F       1  UNL1       -0.1659
     28 C           3.8598   -1.2862   25.2638 C.3     1  UNL1        0.0886
     29 C           4.8855    1.0924   25.4650 C.3     1  UNL1        0.0899
     30 N           3.6879    0.2033   25.3055 N.3     1  UNL1       -0.2667
     31 C           2.3184    0.8038   25.1876 C.3     1  UNL1        0.0978
     32 C           1.8297    1.3021   23.8599 C.3     1  UNL1        0.0224
     33 C           0.4603    1.9026   23.7420 C.3     1  UNL1        0.0065
     34 C          -0.4205    2.0049   24.9518 C.3     1  UNL1        0.0277
     35 C           0.0682    1.5066   26.2796 C.ar    1  UNL1       -0.0073
     36 C          -0.8126    1.6089   27.4894 C.ar    1  UNL1       -0.0015
     37 C          -0.3239    1.1106   28.8172 C.ar    1  UNL1        0.0203
     38 C           1.0456    0.5101   28.9350 C.ar    1  UNL1        0.0985
     39 N           1.9263    0.4078   27.7252 N.ar    1  UNL1       -0.2471
     40 C           1.4376    0.9061   26.3975 C.ar    1  UNL1        0.0695
@<TRIPOS>BOND
     1    29    30    1
     2    30    28    1
     3     1    28    1
     4     1     2    1
     5     2     3    1
     6     3     4   ar
     7     4     5   ar
     8     5     6   ar
     9     6     7   ar
    10     7     8   ar
    11     8    12    1
    12    12    13    1
    13    13    14    1
    14    14    15    1
    15    15    18    1
    16    18    19   ar
    17    19    20   ar
    18    20    21   ar
    19    21    22   ar
    20    22    24    1
    21    24    25    1
    22    24    26    1
    23    24    27    1
    24    22    23   ar
    25    15    16    1
    26    16    17    1
    27     4     9    1
    28     9    10    1
    29    31    30    1
    30    31    32    1
    31    32    33    1
    32    33    34    1
    33    34    35    1
    34    35    36   ar
    35    36    37   ar
    36    37    38   ar
    37    38    39   ar
    38    39    40   ar
    39    10     1    1
    40    40    31    1
    41     8     3   ar
    42    17    12    1
    43    40    35   ar
    44    23    18   ar
    45    10    11    1
@<TRIPOS>MOLECULE
*****
 40 45 0 0 0
SMALL
GASTEIGER

@<TRIPOS>ATOM
      1 C          -3.4466  -17.7598   23.3254 C.3     1  UNL1        0.0749
      2 C          -4.5759  -18.3962   22.5707 C.3     1  UNL1        0.0444
      3 C          -4.2874  -19.4083   21.5019 C.ar    1  UNL1       -0.0101
      4 C          -2.8696  -19.7841   21.1879 C.ar    1  UNL1       -0.0091
      5 C          -2.5812  -20.7962   20.1190 C.ar    1  UNL1       -0.0032
      6 C          -3.7105  -21.4326   19.3643 C.ar    1  UNL1        0.0010
      7 C          -5.1283  -21.0568   19.6784 C.ar    1  UNL1        0.0142
      8 C          -5.4168  -20.0447   20.7472 C.ar    1  UNL1        0.0437
      9 C          -1.7403  -19.1477   21.9426 C.3     1  UNL1        0.0954
     10 N          -2.0288  -18.1356   23.0114 N.3     1  UNL1       -0.2934
     11 H          -1.5496  -17.2768   22.7407 H       1  UNL1        0.1236
     12 N          -6.8346  -19.6690   21.0612 N.pl3   1  UNL1       -0.3043
     13 C          -7.7719  -19.2865   19.9543 C.3     1  UNL1        0.1122
     14 C          -9.1897  -18.9107   20.2684 C.3     1  UNL1        0.1122
     15 N          -9.6702  -18.9175   21.6894 N.pl3   1  UNL1       -0.3041
     16 C          -8.7329  -19.2999   22.7962 C.3     1  UNL1        0.1122
     17 C          -7.3151  -19.6757   22.4822 C.3     1  UNL1        0.1122
     18 C         -11.0880  -18.5417   22.0035 C.ar    1  UNL1        0.0479
     19 C         -11.9634  -17.9575   20.9346 C.ar    1  UNL1        0.0145
     20 C         -13.3812  -17.5818   21.2487 C.ar    1  UNL1        0.0012
     21 C         -13.9236  -17.7902   22.6317 C.ar    1  UNL1        0.0039
     22 C         -13.0481  -18.3743   23.7005 C.ar    1  UNL1        0.0726
     23 C         -11.6303  -18.7501   23.3864 C.ar    1  UNL1        0.0184
     24 C         -13.5905  -18.5827   25.0834 C.3     1  UNL1        0.4186
     25 F         -14.1328  -18.7911   26.4663 F       1  UNL1       -0.1659
     26 F         -12.2194  -18.9543   25.5651 F       1  UNL1       -0.1659
     27 F         -14.9616  -18.2112   24.6018 F       1  UNL1       -0.1659
     28 C          -3.7350  -16.7477   24.3943 C.3     1  UNL1        0.0886
     29 C          -4.4642  -14.6231   23.0887 C.3     1  UNL1        0.0899
     30 N          -4.7320  -15.6554   24.1435 N.3     1  UNL1       -0.2667
     31 C          -5.9970  -15.5955   24.9475 C.3     1  UNL1        0.0978
     32 C          -5.9315  -15.5186   26.4440 C.3     1  UNL1        0.0224
     33 C          -7.1964  -15.4587   27.2480 C.3     1  UNL1        0.0065
     34 C          -8.5268  -15.4756   26.5554 C.3     1  UNL1        0.0277
     35 C          -8.5923  -15.5524   25.0588 C.ar    1  UNL1       -0.0073
     36 C          -9.9227  -15.5693   24.3662 C.ar    1  UNL1       -0.0015
     37 C          -9.9882  -15.6462   22.8696 C.ar    1  UNL1        0.0203
     38 C          -8.7232  -15.7061   22.0656 C.ar    1  UNL1        0.0985
     39 N          -7.3929  -15.6892   22.7582 N.ar    1  UNL1       -0.2471
     40 C          -7.3274  -15.6124   24.2548 C.ar    1  UNL1        0.0695
@<TRIPOS>BOND
     1    29    30    1
     2    30    28    1
     3     1    28    1
     4     1     2    1
     5     2     3    1
     6     3     4   ar
     7     4     5   ar
     8     5     6   ar
     9     6     7   ar
    10     7     8   ar
    11     8    12    1
    12    12    13    1
    13    13    14    1
    14    14    15    1
    15    15    18    1
    16    18    19   ar
    17    19    20   ar
    18    20    21   ar
    19    21    22   ar
    20    22    24    1
    21    24    25    1
    22    24    26    1
    23    24    27    1
    24    22    23   ar
    25    15    16    1
    26    16    17    1
    27     4     9    1
    28     9    10    1
    29    31    30    1
    30    31    32    1
    31    32    33    1
    32    33    34    1
    33    34    35    1
    34    35    36   ar
    35    36    37   ar
    36    37    38   ar
    37    38    39   ar
    38    39    40   ar
    39    10     1    1
    40    40    31    1
    41     8     3   ar
    42    17    12    1
    43    40    35   ar
    44    23    18   ar
    45    10    11    1
@<TRIPOS>MOLECULE
*****
 40 45 0 0 0
SMALL
GASTEIGER

@<TRIPOS>ATOM
      1 C           6.7889   -3.9576   30.7147 C.3     1  UNL1        0.0749
      2 C           6.2114   -2.7780   29.9902 C.3     1  UNL1        0.0444
      3 C           6.0543   -1.4657   30.6995 C.ar    1  UNL1       -0.0101
      4 C           6.4747   -1.3330   32.1333 C.ar    1  UNL1       -0.0091
      5 C           6.3176   -0.0207   32.8426 C.ar    1  UNL1       -0.0032
      6 C           5.7401    1.1590   32.1181 C.ar    1  UNL1        0.0010
      7 C           5.3196    1.0263   30.6844 C.ar    1  UNL1        0.0142
      8 C           5.4767   -0.2860   29.9751 C.ar    1  UNL1        0.0437
      9 C           7.0522   -2.5127   32.8577 C.3     1  UNL1        0.0954
     10 N           7.2093   -3.8250   32.1484 N.3     1  UNL1       -0.2934
     11 H           6.6721   -4.5118   32.6775 H       1  UNL1        0.1236
     12 N           5.0563   -0.4186   28.5413 N.pl3   1  UNL1       -0.3043
     13 C           6.0241   -0.0925   27.4427 C.3     1  UNL1        0.1122
     14 C           5.6037   -0.2251   26.0089 C.3     1  UNL1        0.1122
     15 N           4.2154   -0.6839   25.6738 N.pl3   1  UNL1       -0.3041
     16 C           3.2476   -1.0101   26.7725 C.3     1  UNL1        0.1122
     17 C           3.6681   -0.8774   28.2062 C.3     1  UNL1        0.1122
     18 C           3.7949   -0.8166   24.2401 C.ar    1  UNL1        0.0479
     19 C           2.8376    0.1729   23.6446 C.ar    1  UNL1        0.0145
     20 C           2.4172    0.0403   22.2108 C.ar    1  UNL1        0.0012
     21 C           2.9540   -1.0819   21.3726 C.ar    1  UNL1        0.0039
     22 C           3.9112   -2.0714   21.9681 C.ar    1  UNL1        0.0726
     23 C           4.3317   -1.9387   23.4018 C.ar    1  UNL1        0.0184
     24 C           4.4481   -3.1936   21.1298 C.3     1  UNL1        0.4186
     25 F           4.9849   -4.3157   20.2916 F       1  UNL1       -0.1659
     26 F           4.4842   -2.2851   19.9368 F       1  UNL1       -0.1659
     27 F           4.4120   -4.1020   22.3229 F       1  UNL1       -0.1659
     28 C           6.9460   -5.2700   30.0054 C.3     1  UNL1        0.0886
     29 C           9.5357   -5.1550   29.8307 C.3     1  UNL1        0.0899
     30 N           8.2125   -5.5734   29.2612 N.3     1  UNL1       -0.2667
     31 C           8.1560   -6.2953   27.9475 C.3     1  UNL1        0.0978
     32 C           8.3614   -7.7803   27.8983 C.3     1  UNL1        0.0224
     33 C           8.3049   -8.5021   26.5846 C.3     1  UNL1        0.0065
     34 C           8.0429   -7.7389   25.3201 C.3     1  UNL1        0.0277
     35 C           7.8374   -6.2538   25.3693 C.ar    1  UNL1       -0.0073
     36 C           7.5754   -5.4907   24.1049 C.ar    1  UNL1       -0.0015
     37 C           7.3700   -4.0056   24.1541 C.ar    1  UNL1        0.0203
     38 C           7.4265   -3.2838   25.4678 C.ar    1  UNL1        0.0985
     39 N           7.6885   -4.0470   26.7323 N.ar    1  UNL1       -0.2471
     40 C           7.8940   -5.5320   26.6830 C.ar    1  UNL1        0.0695
@<TRIPOS>BOND
     1    29    30    1
     2    30    28    1
     3     1    28    1
     4     1     2    1
     5     2     3    1
     6     3     4   ar
     7     4     5   ar
     8     5     6   ar
     9     6     7   ar
    10     7     8   ar
    11     8    12    1
    12    12    13    1
    13    13    14    1
    14    14    15    1
    15    15    18    1
    16    18    19   ar
    17    19    20   ar
    18    20    21   ar
    19    21    22   ar
    20    22    24    1
    21    24    25    1
    22    24    26    1
    23    24    27    1
    24    22    23   ar
    25    15    16    1
    26    16    17    1
    27     4     9    1
    28     9    10    1
    29    31    30    1
    30    31    32    1
    31    32    33    1
    32    33    34    1
    33    34    35    1
    34    35    36   ar
    35    36    37   ar
    36    37    38   ar
    37    38    39   ar
    38    39    40   ar
    39    10     1    1
    40    40    31    1
    41     8     3   ar
    42    17    12    1
    43    40    35   ar
    44    23    18   ar
    45    10    11    1
@<TRIPOS>MOLECULE
*****
 40 45 0 0 0
SMALL
GASTEIGER

@<TRIPOS>ATOM
      1 C           4.6405   -0.4996   28.8843 C.3     1  UNL1        0.0749
      2 C           5.0871   -0.9566   30.2414 C.3     1  UNL1        0.0444
      3 C           5.8868   -2.2178   30.3824 C.ar    1  UNL1       -0.0101
      4 C           6.2399   -3.0219   29.1663 C.ar    1  UNL1       -0.0091
      5 C           7.0397   -4.2831   29.3074 C.ar    1  UNL1       -0.0032
      6 C           7.4863   -4.7401   30.6644 C.ar    1  UNL1        0.0010
      7 C           7.1332   -3.9360   31.8805 C.ar    1  UNL1        0.0142
      8 C           6.3334   -2.6749   31.7395 C.ar    1  UNL1        0.0437
      9 C           5.7933   -2.5648   27.8093 C.3     1  UNL1        0.0954
     10 N           4.9936   -1.3037   27.6683 N.3     1  UNL1       -0.2934
     11 H           4.1143   -1.5612   27.2200 H       1  UNL1        0.1236
     12 N           5.9803   -1.8708   32.9555 N.pl3   1  UNL1       -0.3043
     13 C           4.6395   -2.0436   33.6055 C.3     1  UNL1        0.1122
     14 C           4.2864   -1.2395   34.8216 C.3     1  UNL1        0.1122
     15 N           5.2741   -0.2626   35.3876 N.pl3   1  UNL1       -0.3041
     16 C           6.6148   -0.0899   34.7376 C.3     1  UNL1        0.1122
     17 C           6.9679   -0.8940   33.5215 C.3     1  UNL1        0.1122
     18 C           4.9210    0.5415   36.6036 C.ar    1  UNL1        0.0479
     19 C           5.9870    1.3017   37.3357 C.ar    1  UNL1        0.0145
     20 C           5.6339    2.1057   38.5517 C.ar    1  UNL1        0.0012
     21 C           4.2147    2.1497   39.0357 C.ar    1  UNL1        0.0039
     22 C           3.1488    1.3895   38.3037 C.ar    1  UNL1        0.0726
     23 C           3.5019    0.5854   37.0876 C.ar    1  UNL1        0.0184
     24 C           1.7297    1.4334   38.7877 C.3     1  UNL1        0.4186
     25 F           0.3106    1.4773   39.2717 F       1  UNL1       -0.1659
     26 F           1.8019   -0.0248   39.1315 F       1  UNL1       -0.1659
     27 F           1.6575    2.8917   38.4439 F       1  UNL1       -0.1659
     28 C           3.8407    0.7616   28.7433 C.3     1  UNL1        0.0886
     29 C           1.5651   -0.4481   29.0725 C.3     1  UNL1        0.0899
     30 N           2.4043    0.7910   29.1745 N.3     1  UNL1       -0.2667
     31 C           1.8071    2.0595   29.7077 C.3     1  UNL1        0.0978
     32 C           1.1334    3.0214   28.7745 C.3     1  UNL1        0.0224
     33 C           0.5362    4.2899   29.3077 C.3     1  UNL1        0.0065
     34 C           0.6127    4.5965   30.7740 C.3     1  UNL1        0.0277
     35 C           1.2865    3.6346   31.7072 C.ar    1  UNL1       -0.0073
     36 C           1.3631    3.9412   33.1735 C.ar    1  UNL1       -0.0015
     37 C           2.0368    2.9793   34.1066 C.ar    1  UNL1        0.0203
     38 C           2.6340    1.7108   33.5735 C.ar    1  UNL1        0.0985
     39 N           2.5575    1.4042   32.1072 N.ar    1  UNL1       -0.2471
     40 C           1.8837    2.3661   31.1740 C.ar    1  UNL1        0.0695
@<TRIPOS>BOND
     1    29    30    1
     2    30    28    1
     3     1    28    1
     4     1     2    1
     5     2     3    1
     6     3     4   ar
     7     4     5   ar
     8     5     6   ar
     9     6     7   ar
    10     7     8   ar
    11     8    12    1
    12    12    13    1
    13    13    14    1
    14    14    15    1
    15    15    18    1
    16    18    19   ar
    17    19    20   ar
    18    20    21   ar
    19    21    22   ar
    20    22    24    1
    21    24    25    1
    22    24    26    1
    23    24    27    1
    24    22    23   ar
    25    15    16    1
    26    16    17    1
    27     4     9    1
    28     9    10    1
    29    31    30    1
    30    31    32    1
    31    32    33    1
    32    33    34    1
    33    34    35    1
    34    35    36   ar
    35    36    37   ar
    36    37    38   ar
    37    38    39   ar
    38    39    40   ar
    39    10     1    1
    40    40    31    1
    41     8     3   ar
    42    17    12    1
    43    40    35   ar
    44    23    18   ar
    45    10    11    1
@<TRIPOS>MOLECULE
*****
 40 45 0 0 0
SMALL
GASTEIGER

@<TRIPOS>ATOM
      1 C           5.2823   -3.3521   21.9475 C.3     1  UNL1        0.0749
      2 C           4.3104   -2.2422   21.6765 C.3     1  UNL1        0.0444
      3 C           4.1060   -1.7499   20.2745 C.ar    1  UNL1       -0.0101
      4 C           4.8736   -2.3675   19.1434 C.ar    1  UNL1       -0.0091
      5 C           4.6693   -1.8751   17.7412 C.ar    1  UNL1       -0.0032
      6 C           3.6973   -0.7653   17.4703 C.ar    1  UNL1        0.0010
      7 C           2.9297   -0.1477   18.6014 C.ar    1  UNL1        0.0142
      8 C           3.1340   -0.6400   20.0034 C.ar    1  UNL1        0.0437
      9 C           5.8456   -3.4773   19.4143 C.3     1  UNL1        0.0954
     10 N           6.0500   -3.9696   20.8164 N.3     1  UNL1       -0.2934
     11 H           7.0396   -3.8465   21.0304 H       1  UNL1        0.1236
     12 N           2.3664   -0.0225   21.1345 N.pl3   1  UNL1       -0.3043
     13 C           1.0490    0.6447   20.8709 C.3     1  UNL1        0.1122
     14 C           0.2814    1.2622   22.0020 C.3     1  UNL1        0.1122
     15 N           0.8311    1.2126   23.3968 N.pl3   1  UNL1       -0.3041
     16 C           2.1485    0.5455   23.6604 C.3     1  UNL1        0.1122
     17 C           2.9161   -0.0720   22.5293 C.3     1  UNL1        0.1122
     18 C           0.0635    1.8302   24.5279 C.ar    1  UNL1        0.0479
     19 C          -0.8710    2.9735   24.2640 C.ar    1  UNL1        0.0145
     20 C          -1.6386    3.5910   25.3951 C.ar    1  UNL1        0.0012
     21 C          -1.4717    3.0653   26.7901 C.ar    1  UNL1        0.0039
     22 C          -0.5372    1.9220   27.0538 C.ar    1  UNL1        0.0726
     23 C           0.2304    1.3045   25.9227 C.ar    1  UNL1        0.0184
     24 C          -0.3703    1.3962   28.4488 C.3     1  UNL1        0.4186
     25 F          -0.2035    0.8704   29.8436 F       1  UNL1       -0.1659
     26 F          -1.7375    0.7828   28.3811 F       1  UNL1       -0.1659
     27 F           0.9968    2.0096   28.5164 F       1  UNL1       -0.1659
     28 C           5.4867   -3.8444   23.3496 C.3     1  UNL1        0.0886
     29 C           7.6928   -2.6151   23.9598 C.3     1  UNL1        0.0899
     30 N           6.8638   -3.8652   23.9440 N.3     1  UNL1       -0.2667
     31 C           7.4119   -5.1360   24.5225 C.3     1  UNL1        0.0978
     32 C           8.0304   -6.1642   23.6224 C.3     1  UNL1        0.0224
     33 C           8.5785   -7.4350   24.2009 C.3     1  UNL1        0.0065
     34 C           8.5081   -7.6776   25.6795 C.3     1  UNL1        0.0277
     35 C           7.8896   -6.6493   26.5796 C.ar    1  UNL1       -0.0073
     36 C           7.8192   -6.8919   28.0582 C.ar    1  UNL1       -0.0015
     37 C           7.2007   -5.8636   28.9582 C.ar    1  UNL1        0.0203
     38 C           6.6526   -4.5928   28.3797 C.ar    1  UNL1        0.0985
     39 N           6.7230   -4.3503   26.9012 N.ar    1  UNL1       -0.2471
     40 C           7.3415   -5.3785   26.0011 C.ar    1  UNL1        0.0695
@<TRIPOS>BOND
     1    29    30    1
     2    30    28    1
     3     1    28    1
     4     1     2    1
     5     2     3    1
     6     3     4   ar
     7     4     5   ar
     8     5     6   ar
     9     6     7   ar
    10     7     8   ar
    11     8    12    1
    12    12    13    1
    13    13    14    1
    14    14    15    1
    15    15    18    1
    16    18    19   ar
    17    19    20   ar
    18    20    21   ar
    19    21    22   ar
    20    22    24    1
    21    24    25    1
    22    24    26    1
    23    24    27    1
    24    22    23   ar
    25    15    16    1
    26    16    17    1
    27     4     9    1
    28     9    10    1
    29    31    30    1
    30    31    32    1
    31    32    33    1
    32    33    34    1
    33    34    35    1
    34    35    36   ar
    35    36    37   ar
    36    37    38   ar
    37    38    39   ar
    38    39    40   ar
    39    10     1    1
    40    40    31    1
    41     8     3   ar
    42    17    12    1
    43    40    35   ar
    44    23    18   ar
    45    10    11    1
@<TRIPOS>MOLECULE
*****
 40 45 0 0 0
SMALL
GASTEIGER

@<TRIPOS>ATOM
      1 C           2.5580   -0.0101   23.6494 C.3     1  UNL1        0.0749
      2 C           2.0854    0.5361   24.9640 C.3     1  UNL1        0.0444
      3 C           0.9630    1.5304   25.0031 C.ar    1  UNL1       -0.0101
      4 C           0.3131    1.9784   23.7276 C.ar    1  UNL1       -0.0091
      5 C          -0.8094    2.9727   23.7667 C.ar    1  UNL1       -0.0032
      6 C          -1.2820    3.5189   25.0813 C.ar    1  UNL1        0.0010
      7 C          -0.6321    3.0709   26.3568 C.ar    1  UNL1        0.0142
      8 C           0.4903    2.0767   26.3178 C.ar    1  UNL1        0.0437
      9 C           0.7857    1.4321   22.4130 C.3     1  UNL1        0.0954
     10 N           1.9081    0.4379   22.3739 N.3     1  UNL1       -0.2934
     11 H           2.6432    0.8462   21.7965 H       1  UNL1        0.1236
     12 N           1.1402    1.6287   27.5933 N.pl3   1  UNL1       -0.3043
     13 C           0.6512    0.3940   28.2908 C.3     1  UNL1        0.1122
     14 C           1.3011   -0.0540   29.5663 C.3     1  UNL1        0.1122
     15 N           2.4399    0.7327   30.1444 N.pl3   1  UNL1       -0.3041
     16 C           2.9289    1.9674   29.4469 C.3     1  UNL1        0.1122
     17 C           2.2790    2.4154   28.1714 C.3     1  UNL1        0.1122
     18 C           3.0898    0.2847   31.4199 C.ar    1  UNL1        0.0479
     19 C           3.0019    1.1420   32.6477 C.ar    1  UNL1        0.0145
     20 C           3.6517    0.6940   33.9233 C.ar    1  UNL1        0.0012
     21 C           4.3895   -0.6112   33.9710 C.ar    1  UNL1        0.0039
     22 C           4.4774   -1.4684   32.7432 C.ar    1  UNL1        0.0726
     23 C           3.8276   -1.0204   31.4676 C.ar    1  UNL1        0.0184
     24 C           5.2152   -2.7736   32.7908 C.3     1  UNL1        0.4186
     25 F           5.9529   -4.0787   32.8385 F       1  UNL1       -0.1659
     26 F           4.1787   -3.3253   33.7242 F       1  UNL1       -0.1659
     27 F           6.2517   -2.2218   31.8575 F       1  UNL1       -0.1659
     28 C           3.6804   -1.0044   23.6103 C.3     1  UNL1        0.0886
     29 C           5.8537    0.3051   23.0516 C.3     1  UNL1        0.0899
     30 N           4.8609   -0.7680   22.7156 N.3     1  UNL1       -0.2667
     31 C           5.0486   -1.6047   21.4848 C.3     1  UNL1        0.0978
     32 C           5.7569   -2.9238   21.5755 C.3     1  UNL1        0.0224
     33 C           5.9446   -3.7605   20.3448 C.3     1  UNL1        0.0065
     34 C           5.4240   -3.2781   19.0233 C.3     1  UNL1        0.0277
     35 C           4.7157   -1.9589   18.9326 C.ar    1  UNL1       -0.0073
     36 C           4.1952   -1.4765   17.6112 C.ar    1  UNL1       -0.0015
     37 C           3.4870   -0.1574   17.5205 C.ar    1  UNL1        0.0203
     38 C           3.2992    0.6793   18.7512 C.ar    1  UNL1        0.0985
     39 N           3.8198    0.1969   20.0726 N.ar    1  UNL1       -0.2471
     40 C           4.5280   -1.1222   20.1633 C.ar    1  UNL1        0.0695
@<TRIPOS>BOND
     1    29    30    1
     2    30    28    1
     3     1    28    1
     4     1     2    1
     5     2     3    1
     6     3     4   ar
     7     4     5   ar
     8     5     6   ar
     9     6     7   ar
    10     7     8   ar
    11     8    12    1
    12    12    13    1
    13    13    14    1
    14    14    15    1
    15    15    18    1
    16    18    19   ar
    17    19    20   ar
    18    20    21   ar
    19    21    22   ar
    20    22    24    1
    21    24    25    1
    22    24    26    1
    23    24    27    1
    24    22    23   ar
    25    15    16    1
    26    16    17    1
    27     4     9    1
    28     9    10    1
    29    31    30    1
    30    31    32    1
    31    32    33    1
    32    33    34    1
    33    34    35    1
    34    35    36   ar
    35    36    37   ar
    36    37    38   ar
    37    38    39   ar
    38    39    40   ar
    39    10     1    1
    40    40    31    1
    41     8     3   ar
    42    17    12    1
    43    40    35   ar
    44    23    18   ar
    45    10    11    1
@<TRIPOS>MOLECULE
*****
 40 45 0 0 0
SMALL
GASTEIGER

@<TRIPOS>ATOM
      1 C           4.1095    1.5921   19.9805 C.3     1  UNL1        0.0749
      2 C           3.9229    0.8728   21.2834 C.3     1  UNL1        0.0444
      3 C           2.7282    1.1707   22.1401 C.ar    1  UNL1       -0.0101
      4 C           1.7202    2.1879   21.6939 C.ar    1  UNL1       -0.0091
      5 C           0.5255    2.4858   22.5506 C.ar    1  UNL1       -0.0032
      6 C           0.3388    1.7665   23.8536 C.ar    1  UNL1        0.0010
      7 C           1.3469    0.7493   24.2998 C.ar    1  UNL1        0.0142
      8 C           2.5415    0.4514   23.4432 C.ar    1  UNL1        0.0437
      9 C           1.9068    2.9072   20.3909 C.3     1  UNL1        0.0954
     10 N           3.1015    2.6093   19.5342 N.3     1  UNL1       -0.2934
     11 H           3.6041    3.4887   19.4137 H       1  UNL1        0.1236
     12 N           3.5496   -0.5658   23.8894 N.pl3   1  UNL1       -0.3043
     13 C           3.7912   -1.7946   23.0637 C.3     1  UNL1        0.1122
     14 C           4.7992   -2.8119   23.5099 C.3     1  UNL1        0.1122
     15 N           5.5656   -2.6003   24.7819 N.pl3   1  UNL1       -0.3041
     16 C           5.3240   -1.3715   25.6076 C.3     1  UNL1        0.1122
     17 C           4.3160   -0.3543   25.1613 C.3     1  UNL1        0.1122
     18 C           6.5737   -3.6175   25.2282 C.ar    1  UNL1        0.0479
     19 C           7.1036   -3.5828   26.6311 C.ar    1  UNL1        0.0145
     20 C           8.1116   -4.6001   27.0774 C.ar    1  UNL1        0.0012
     21 C           8.5897   -5.6519   26.1207 C.ar    1  UNL1        0.0039
     22 C           8.0598   -5.6865   24.7179 C.ar    1  UNL1        0.0726
     23 C           7.0518   -4.6693   24.2716 C.ar    1  UNL1        0.0184
     24 C           8.5380   -6.7383   23.7612 C.3     1  UNL1        0.4186
     25 F           9.0161   -7.7901   22.8046 F       1  UNL1       -0.1659
     26 F           9.2662   -5.6904   22.9730 F       1  UNL1       -0.1659
     27 F           7.8097   -7.7863   24.5495 F       1  UNL1       -0.1659
     28 C           5.3043    1.2942   19.1237 C.3     1  UNL1        0.0886
     29 C           5.5178    0.2393   16.7590 C.3     1  UNL1        0.0899
     30 N           5.3080    0.0849   18.2363 N.3     1  UNL1       -0.2667
     31 C           5.1020   -1.2788   18.8260 C.3     1  UNL1        0.0978
     32 C           3.7417   -1.9104   18.7979 C.3     1  UNL1        0.0224
     33 C           3.5357   -3.2742   19.3876 C.3     1  UNL1        0.0065
     34 C           4.6899   -4.0063   20.0055 C.3     1  UNL1        0.0277
     35 C           6.0502   -3.3747   20.0337 C.ar    1  UNL1       -0.0073
     36 C           7.2043   -4.1068   20.6516 C.ar    1  UNL1       -0.0015
     37 C           8.5645   -3.4752   20.6798 C.ar    1  UNL1        0.0203
     38 C           8.7706   -2.1115   20.0900 C.ar    1  UNL1        0.0985
     39 N           7.6164   -1.3793   19.4721 N.ar    1  UNL1       -0.2471
     40 C           6.2562   -2.0109   19.4440 C.ar    1  UNL1        0.0695
@<TRIPOS>BOND
     1    29    30    1
     2    30    28    1
     3     1    28    1
     4     1     2    1
     5     2     3    1
     6     3     4   ar
     7     4     5   ar
     8     5     6   ar
     9     6     7   ar
    10     7     8   ar
    11     8    12    1
    12    12    13    1
    13    13    14    1
    14    14    15    1
    15    15    18    1
    16    18    19   ar
    17    19    20   ar
    18    20    21   ar
    19    21    22   ar
    20    22    24    1
    21    24    25    1
    22    24    26    1
    23    24    27    1
    24    22    23   ar
    25    15    16    1
    26    16    17    1
    27     4     9    1
    28     9    10    1
    29    31    30    1
    30    31    32    1
    31    32    33    1
    32    33    34    1
    33    34    35    1
    34    35    36   ar
    35    36    37   ar
    36    37    38   ar
    37    38    39   ar
    38    39    40   ar
    39    10     1    1
    40    40    31    1
    41     8     3   ar
    42    17    12    1
    43    40    35   ar
    44    23    18   ar
    45    10    11    1
@<TRIPOS>MOLECULE
*****
 40 45 0 0 0
SMALL
GASTEIGER

@<TRIPOS>ATOM
      1 C           5.3589   -2.0397   27.7919 C.3     1  UNL1        0.0749
      2 C           5.7851   -2.4294   26.4076 C.3     1  UNL1        0.0444
      3 C           6.9074   -3.4058   26.2154 C.ar    1  UNL1       -0.0101
      4 C           7.6034   -3.9926   27.4076 C.ar    1  UNL1       -0.0091
      5 C           8.7258   -4.9691   27.2153 C.ar    1  UNL1       -0.0032
      6 C           9.1520   -5.3587   25.8310 C.ar    1  UNL1        0.0010
      7 C           8.4560   -4.7719   24.6388 C.ar    1  UNL1        0.0142
      8 C           7.3337   -3.7955   24.8310 C.ar    1  UNL1        0.0437
      9 C           7.1772   -3.6029   28.7919 C.3     1  UNL1        0.0954
     10 N           6.0549   -2.6265   28.9841 N.3     1  UNL1       -0.2934
     11 H           6.4333   -1.8445   29.5186 H       1  UNL1        0.1236
     12 N           6.6377   -3.2087   23.6389 N.pl3   1  UNL1       -0.3043
     13 C           5.4364   -3.8948   23.0589 C.3     1  UNL1        0.1122
     14 C           4.7404   -3.3080   21.8667 C.3     1  UNL1        0.1122
     15 N           5.2456   -2.0351   21.2546 N.pl3   1  UNL1       -0.3041
     16 C           6.4468   -1.3491   21.8346 C.3     1  UNL1        0.1122
     17 C           7.1429   -1.9359   23.0267 C.3     1  UNL1        0.1122
     18 C           4.5496   -1.4483   20.0624 C.ar    1  UNL1        0.0479
     19 C           5.1763   -1.5490   18.7033 C.ar    1  UNL1        0.0145
     20 C           4.4803   -0.9622   17.5111 C.ar    1  UNL1        0.0012
     21 C           3.1575   -0.2747   17.6781 C.ar    1  UNL1        0.0039
     22 C           2.5309   -0.1741   19.0372 C.ar    1  UNL1        0.0726
     23 C           3.2269   -0.7609   20.2294 C.ar    1  UNL1        0.0184
     24 C           1.2081    0.5134   19.2042 C.3     1  UNL1        0.4186
     25 F          -0.1146    1.2007   19.3712 F       1  UNL1       -0.1659
     26 F           0.8084   -0.5052   20.2302 F       1  UNL1       -0.1659
     27 F           1.6079    1.5319   18.1782 F       1  UNL1       -0.1659
     28 C           4.2365   -1.0632   27.9842 C.3     1  UNL1        0.0886
     29 C           5.2188    1.2900   27.4864 C.3     1  UNL1        0.0899
     30 N           4.2122    0.2153   27.2001 N.3     1  UNL1       -0.2667
     31 C           3.1813    0.4193   26.1298 C.3     1  UNL1        0.0978
     32 C           3.4845    0.0318   24.7128 C.3     1  UNL1        0.0224
     33 C           2.4536    0.2357   23.6425 C.3     1  UNL1        0.0065
     34 C           1.1194    0.8272   23.9892 C.3     1  UNL1        0.0277
     35 C           0.8161    1.2146   25.4062 C.ar    1  UNL1       -0.0073
     36 C          -0.5180    1.8061   25.7529 C.ar    1  UNL1       -0.0015
     37 C          -0.8213    2.1935   27.1699 C.ar    1  UNL1        0.0203
     38 C           0.2097    1.9896   28.2402 C.ar    1  UNL1        0.0985
     39 N           1.5438    1.3981   27.8935 N.ar    1  UNL1       -0.2471
     40 C           1.8470    1.0107   26.4765 C.ar    1  UNL1        0.0695
@<TRIPOS>BOND
     1    29    30    1
     2    30    28    1
     3     1    28    1
     4     1     2    1
     5     2     3    1
     6     3     4   ar
     7     4     5   ar
     8     5     6   ar
     9     6     7   ar
    10     7     8   ar
    11     8    12    1
    12    12    13    1
    13    13    14    1
    14    14    15    1
    15    15    18    1
    16    18    19   ar
    17    19    20   ar
    18    20    21   ar
    19    21    22   ar
    20    22    24    1
    21    24    25    1
    22    24    26    1
    23    24    27    1
    24    22    23   ar
    25    15    16    1
    26    16    17    1
    27     4     9    1
    28     9    10    1
    29    31    30    1
    30    31    32    1
    31    32    33    1
    32    33    34    1
    33    34    35    1
    34    35    36   ar
    35    36    37   ar
    36    37    38   ar
    37    38    39   ar
    38    39    40   ar
    39    10     1    1
    40    40    31    1
    41     8     3   ar
    42    17    12    1
    43    40    35   ar
    44    23    18   ar
    45    10    11    1
@<TRIPOS>MOLECULE
*****
 40 45 0 0 0
SMALL
GASTEIGER

@<TRIPOS>ATOM
      1 C           0.1498    3.5695   24.7124 C.3     1  UNL1        0.0749
      2 C           0.1898    3.1113   23.2847 C.3     1  UNL1        0.0444
      3 C          -0.8213    3.6257   22.3034 C.ar    1  UNL1       -0.0101
      4 C          -1.8724    4.5983   22.7498 C.ar    1  UNL1       -0.0091
      5 C          -2.8835    5.1127   21.7683 C.ar    1  UNL1       -0.0032
      6 C          -2.8435    4.6545   20.3406 C.ar    1  UNL1        0.0010
      7 C          -1.7924    3.6819   19.8942 C.ar    1  UNL1        0.0142
      8 C          -0.7813    3.1675   20.8756 C.ar    1  UNL1        0.0437
      9 C          -1.9124    5.0564   24.1775 C.3     1  UNL1        0.0954
     10 N          -0.9014    4.5421   25.1588 N.3     1  UNL1       -0.2934
     11 H          -1.4231    4.0882   25.9085 H       1  UNL1        0.1236
     12 N           0.2698    2.1949   20.4292 N.pl3   1  UNL1       -0.3043
     13 C          -0.0214    0.7234   20.4293 C.3     1  UNL1        0.1122
     14 C           1.0297   -0.2491   19.9829 C.3     1  UNL1        0.1122
     15 N           2.3721    0.2498   19.5364 N.pl3   1  UNL1       -0.3041
     16 C           2.6632    1.7212   19.5363 C.3     1  UNL1        0.1122
     17 C           1.6121    2.6938   19.9827 C.3     1  UNL1        0.1122
     18 C           3.4232   -0.7228   19.0900 C.ar    1  UNL1        0.0479
     19 C           4.6448   -0.2299   18.3726 C.ar    1  UNL1        0.0145
     20 C           5.6960   -1.2024   17.9262 C.ar    1  UNL1        0.0012
     21 C           5.5254   -2.6679   18.1973 C.ar    1  UNL1        0.0039
     22 C           4.3038   -3.1607   18.9147 C.ar    1  UNL1        0.0726
     23 C           3.2527   -2.1882   19.3611 C.ar    1  UNL1        0.0184
     24 C           4.1333   -4.6262   19.1858 C.3     1  UNL1        0.4186
     25 F           3.9628   -6.0916   19.4569 F       1  UNL1       -0.1659
     26 F           5.5739   -4.7185   19.5930 F       1  UNL1       -0.1659
     27 F           2.6926   -4.5339   18.7786 F       1  UNL1       -0.1659
     28 C           1.1609    3.0551   25.6938 C.3     1  UNL1        0.0886
     29 C          -0.4666    1.3870   26.8423 C.3     1  UNL1        0.0899
     30 N           0.9205    1.7582   26.4081 N.3     1  UNL1       -0.2667
     31 C           2.0670    0.8325   26.6883 C.3     1  UNL1        0.0978
     32 C           2.5821    0.6790   28.0887 C.3     1  UNL1        0.0224
     33 C           3.7286   -0.2467   28.3689 C.3     1  UNL1        0.0065
     34 C           4.3601   -1.0189   27.2487 C.3     1  UNL1        0.0277
     35 C           3.8450   -0.8654   25.8482 C.ar    1  UNL1       -0.0073
     36 C           4.4765   -1.6376   24.7280 C.ar    1  UNL1       -0.0015
     37 C           3.9614   -1.4841   23.3276 C.ar    1  UNL1        0.0203
     38 C           2.8149   -0.5584   23.0475 C.ar    1  UNL1        0.0985
     39 N           2.1834    0.2138   24.1677 N.ar    1  UNL1       -0.2471
     40 C           2.6985    0.0603   25.5680 C.ar    1  UNL1        0.0695
@<TRIPOS>BOND
     1    29    30    1
     2    30    28    1
     3     1    28    1
     4     1     2    1
     5     2     3    1
     6     3     4   ar
     7     4     5   ar
     8     5     6   ar
     9     6     7   ar
    10     7     8   ar
    11     8    12    1
    12    12    13    1
    13    13    14    1
    14    14    15    1
    15    15    18    1
    16    18    19   ar
    17    19    20   ar
    18    20    21   ar
    19    21    22   ar
    20    22    24    1
    21    24    25    1
    22    24    26    1
    23    24    27    1
    24    22    23   ar
    25    15    16    1
    26    16    17    1
    27     4     9    1
    28     9    10    1
    29    31    30    1
    30    31    32    1
    31    32    33    1
    32    33    34    1
    33    34    35    1
    34    35    36   ar
    35    36    37   ar
    36    37    38   ar
    37    38    39   ar
    38    39    40   ar
    39    10     1    1
    40    40    31    1
    41     8     3   ar
    42    17    12    1
    43    40    35   ar
    44    23    18   ar
    45    10    11    1
