@<TRIPOS>MOLECULE
*****
 26 29 0 0 0
SMALL
GASTEIGER

@<TRIPOS>ATOM
      1 C           5.1333   -1.9368   33.1514 C.2     1  UNL1        0.2650
      2 O           3.9447   -2.5626   33.8189 O.2     1  UNL1       -0.2684
      3 N           5.6253   -0.5932   33.6018 N.am    1  UNL1       -0.3011
      4 H           6.4055   -0.1825   33.1637 H       1  UNL1        0.1497
      5 C           7.1620   -4.2659   30.8009 C.ar    1  UNL1        0.1239
      6 N           6.6603   -3.8967   32.1654 N.ar    1  UNL1       -0.2260
      7 C           5.8299   -2.6545   32.0335 C.ar    1  UNL1        0.1517
      8 C           5.8185   -2.2560   30.5875 C.ar    1  UNL1        0.0872
      9 C           5.1648   -1.1149   29.8660 C.ar    1  UNL1        0.0193
     10 C           5.3344   -0.9697   28.3827 C.ar    1  UNL1        0.0031
     11 C           6.1576   -1.9657   27.6209 C.ar    1  UNL1        0.0191
     12 C           6.8114   -3.1067   28.3424 C.ar    1  UNL1        0.0811
     13 N           6.6418   -3.2519   29.8257 N.ar    1  UNL1       -0.2921
     14 C           7.6714   -6.3425   29.3248 C.3     1  UNL1        0.0079
     15 C           8.0314   -5.4426   30.4697 C.3     1  UNL1        0.0573
     16 C           9.2607   -5.7195   31.2833 C.3     1  UNL1        0.0079
     17 C           4.9287    0.1245   34.7196 C.3     1  UNL1        0.0747
     18 C           5.2499   -0.2160   36.1447 C.3     1  UNL1        0.0369
     19 C           4.5533    0.5017   37.2625 C.3     1  UNL1        0.0738
     20 N           3.5355    1.5599   36.9553 N.3     1  UNL1       -0.2726
     21 C           3.2143    1.9004   35.5303 C.3     1  UNL1        0.0738
     22 C           3.9109    1.1827   34.4124 C.3     1  UNL1        0.0369
     23 C           2.8389    2.2775   38.0733 C.3     1  UNL1        0.0720
     24 C           1.7790    1.5759   38.8696 C.3     1  UNL1        0.0160
     25 C           0.4886    1.6151   39.6335 C.3     1  UNL1        0.0014
     26 C           1.2334    0.3215   39.4852 C.3     1  UNL1        0.0014
@<TRIPOS>BOND
     1    14    15    1
     2    15    16    1
     3    15     5    1
     4     5     6   ar
     5     6     7   ar
     6     7     1    1
     7     1     2    2
     8     1     3   am
     9     3    17    1
    10    17    18    1
    11    18    19    1
    12    19    20    1
    13    20    23    1
    14    23    24    1
    15    24    25    1
    16    25    26    1
    17    20    21    1
    18    21    22    1
    19     7     8   ar
    20     8     9   ar
    21     9    10   ar
    22    10    11   ar
    23    11    12   ar
    24    12    13   ar
    25    13     5   ar
    26    22    17    1
    27    13     8   ar
    28    26    24    1
    29     3     4    1
@<TRIPOS>MOLECULE
*****
 26 29 0 0 0
SMALL
GASTEIGER

@<TRIPOS>ATOM
      1 C           4.9352   -1.4682   32.6250 C.2     1  UNL1        0.2650
      2 O           3.9072   -2.2662   33.3708 O.2     1  UNL1       -0.2684
      3 N           5.4174   -0.1608   33.1803 N.am    1  UNL1       -0.3011
      4 H           6.0921    0.3630   32.6908 H       1  UNL1        0.1497
      5 C           6.0900   -2.1351   28.9799 C.ar    1  UNL1        0.1239
      6 N           5.4280   -1.2637   30.0058 N.ar    1  UNL1       -0.2260
      7 C           5.4811   -1.9775   31.3240 C.ar    1  UNL1        0.1517
      8 C           6.1759   -3.2900   31.1128 C.ar    1  UNL1        0.0872
      9 C           6.5145   -4.4090   32.0525 C.ar    1  UNL1        0.0193
     10 C           7.2294   -5.6255   31.5435 C.ar    1  UNL1        0.0031
     11 C           7.6058   -5.7229   30.0947 C.ar    1  UNL1        0.0191
     12 C           7.2672   -4.6038   29.1550 C.ar    1  UNL1        0.0811
     13 N           6.5522   -3.3874   29.6641 N.ar    1  UNL1       -0.2921
     14 C           7.6357   -1.6826   26.9412 C.3     1  UNL1        0.0079
     15 C           6.2600   -1.8111   27.5252 C.3     1  UNL1        0.0573
     16 C           5.0544   -1.6156   26.6545 C.3     1  UNL1        0.0079
     17 C           4.8715    0.3485   34.4813 C.3     1  UNL1        0.0747
     18 C           5.3787   -0.2105   35.7775 C.3     1  UNL1        0.0369
     19 C           4.8328    0.2988   37.0785 C.3     1  UNL1        0.0738
     20 N           3.7798    1.3670   37.0833 N.3     1  UNL1       -0.2726
     21 C           3.2727    1.9260   35.7870 C.3     1  UNL1        0.0738
     22 C           3.8185    1.4168   34.4860 C.3     1  UNL1        0.0369
     23 C           3.2340    1.8763   38.3844 C.3     1  UNL1        0.0720
     24 C           1.9830    1.2796   38.9578 C.3     1  UNL1        0.0160
     25 C           0.5831    1.4426   39.4714 C.3     1  UNL1        0.0014
     26 C           1.2160    0.0831   39.4375 C.3     1  UNL1        0.0014
@<TRIPOS>BOND
     1    14    15    1
     2    15    16    1
     3    15     5    1
     4     5     6   ar
     5     6     7   ar
     6     7     1    1
     7     1     2    2
     8     1     3   am
     9     3    17    1
    10    17    18    1
    11    18    19    1
    12    19    20    1
    13    20    23    1
    14    23    24    1
    15    24    25    1
    16    25    26    1
    17    20    21    1
    18    21    22    1
    19     7     8   ar
    20     8     9   ar
    21     9    10   ar
    22    10    11   ar
    23    11    12   ar
    24    12    13   ar
    25    13     5   ar
    26    22    17    1
    27    13     8   ar
    28    26    24    1
    29     3     4    1
@<TRIPOS>MOLECULE
*****
 26 29 0 0 0
SMALL
GASTEIGER

@<TRIPOS>ATOM
      1 C          -8.0020  -17.7790   21.9696 C.2     1  UNL1        0.2650
      2 O          -7.1101  -16.6225   22.3116 O.2     1  UNL1       -0.2684
      3 N          -7.4147  -19.0357   21.3986 N.am    1  UNL1       -0.3011
      4 H          -8.0001  -19.7948   21.1741 H       1  UNL1        0.1497
      5 C         -11.6832  -17.9038   23.1936 C.ar    1  UNL1        0.1239
      6 N         -10.2309  -18.2333   23.3734 N.ar    1  UNL1       -0.2260
      7 C          -9.4810  -17.6789   22.1985 C.ar    1  UNL1        0.1517
      8 C         -10.4698  -17.0068   21.2927 C.ar    1  UNL1        0.0872
      9 C         -10.3068  -16.2861   19.9873 C.ar    1  UNL1        0.0193
     10 C         -11.5047  -15.7045   19.2970 C.ar    1  UNL1        0.0031
     11 C         -12.8657  -15.8436   19.9120 C.ar    1  UNL1        0.0191
     12 C         -13.0288  -16.5642   21.2174 C.ar    1  UNL1        0.0811
     13 N         -11.8309  -17.1458   21.9077 N.ar    1  UNL1       -0.2921
     14 C         -14.2113  -17.9203   23.7923 C.3     1  UNL1        0.0079
     15 C         -12.7929  -18.2684   24.1346 C.3     1  UNL1        0.0573
     16 C         -12.4845  -18.9810   25.4179 C.3     1  UNL1        0.0079
     17 C          -5.9357  -19.1358   21.1697 C.3     1  UNL1        0.0747
     18 C          -5.3851  -19.0533   19.7769 C.3     1  UNL1        0.0369
     19 C          -3.9061  -19.1534   19.5480 C.3     1  UNL1        0.0738
     20 N          -2.9777  -19.3360   20.7119 N.3     1  UNL1       -0.2726
     21 C          -3.5282  -19.4186   22.1047 C.3     1  UNL1        0.0738
     22 C          -5.0073  -19.3185   22.3336 C.3     1  UNL1        0.0369
     23 C          -1.4986  -19.4361   20.4829 C.3     1  UNL1        0.0720
     24 C          -0.6815  -18.1912   20.3032 C.3     1  UNL1        0.0160
     25 C           0.6492  -17.5283   20.1033 C.3     1  UNL1        0.0014
     26 C          -0.5967  -16.6977   20.1918 C.3     1  UNL1        0.0014
@<TRIPOS>BOND
     1    14    15    1
     2    15    16    1
     3    15     5    1
     4     5     6   ar
     5     6     7   ar
     6     7     1    1
     7     1     2    2
     8     1     3   am
     9     3    17    1
    10    17    18    1
    11    18    19    1
    12    19    20    1
    13    20    23    1
    14    23    24    1
    15    24    25    1
    16    25    26    1
    17    20    21    1
    18    21    22    1
    19     7     8   ar
    20     8     9   ar
    21     9    10   ar
    22    10    11   ar
    23    11    12   ar
    24    12    13   ar
    25    13     5   ar
    26    22    17    1
    27    13     8   ar
    28    26    24    1
    29     3     4    1
@<TRIPOS>MOLECULE
*****
 26 29 0 0 0
SMALL
GASTEIGER

@<TRIPOS>ATOM
      1 C           3.3939   -0.3193   25.3948 C.2     1  UNL1        0.2650
      2 O           3.5165    1.1197   25.8000 O.2     1  UNL1       -0.2684
      3 N           3.3157   -1.3895   26.4430 N.am    1  UNL1       -0.3011
      4 H           3.2353   -2.3340   26.1771 H       1  UNL1        0.1497
      5 C           2.7844   -0.7081   21.5813 C.ar    1  UNL1        0.1239
      6 N           2.5192   -0.0188   22.8869 N.ar    1  UNL1       -0.2260
      7 C           3.3497   -0.6882   23.9415 C.ar    1  UNL1        0.1517
      8 C           4.1281   -1.7912   23.2878 C.ar    1  UNL1        0.0872
      9 C           5.1099   -2.7860   23.8323 C.ar    1  UNL1        0.0193
     10 C           5.7423   -3.7931   22.9182 C.ar    1  UNL1        0.0031
     11 C           5.3930   -3.8054   21.4595 C.ar    1  UNL1        0.0191
     12 C           4.4112   -2.8107   20.9149 C.ar    1  UNL1        0.0811
     13 N           3.7788   -1.8036   21.8291 N.ar    1  UNL1       -0.2921
     14 C           0.6725   -0.2674   20.1337 C.3     1  UNL1        0.0079
     15 C           2.1642   -0.3627   20.2600 C.3     1  UNL1        0.0573
     16 C           3.0355   -0.1127   19.0649 C.3     1  UNL1        0.0079
     17 C           3.3600   -1.0206   27.8962 C.3     1  UNL1        0.0747
     18 C           2.1102   -0.5734   28.5948 C.3     1  UNL1        0.0369
     19 C           2.1545   -0.2045   30.0481 C.3     1  UNL1        0.0738
     20 N           3.4485   -0.2829   30.8027 N.3     1  UNL1       -0.2726
     21 C           4.6982   -0.7302   30.1041 C.3     1  UNL1        0.0738
     22 C           4.6539   -1.0990   28.6509 C.3     1  UNL1        0.0369
     23 C           3.4926    0.0860   32.2560 C.3     1  UNL1        0.0720
     24 C           4.0703   -0.8715   33.2557 C.3     1  UNL1        0.0160
     25 C           4.4813   -2.2636   33.6340 C.3     1  UNL1        0.0014
     26 C           4.6599   -1.1379   34.6090 C.3     1  UNL1        0.0014
@<TRIPOS>BOND
     1    14    15    1
     2    15    16    1
     3    15     5    1
     4     5     6   ar
     5     6     7   ar
     6     7     1    1
     7     1     2    2
     8     1     3   am
     9     3    17    1
    10    17    18    1
    11    18    19    1
    12    19    20    1
    13    20    23    1
    14    23    24    1
    15    24    25    1
    16    25    26    1
    17    20    21    1
    18    21    22    1
    19     7     8   ar
    20     8     9   ar
    21     9    10   ar
    22    10    11   ar
    23    11    12   ar
    24    12    13   ar
    25    13     5   ar
    26    22    17    1
    27    13     8   ar
    28    26    24    1
    29     3     4    1
@<TRIPOS>MOLECULE
*****
 26 29 0 0 0
SMALL
GASTEIGER

@<TRIPOS>ATOM
      1 C           6.4475   -3.4015   24.2016 C.2     1  UNL1        0.2650
      2 O           7.3590   -2.4866   23.4388 O.2     1  UNL1       -0.2684
      3 N           5.0252   -3.5818   23.7603 N.am    1  UNL1       -0.3011
      4 H           4.4268   -4.1823   24.2609 H       1  UNL1        0.1497
      5 C           7.4964   -4.7137   27.7006 C.ar    1  UNL1        0.1239
      6 N           6.8579   -3.6732   26.8289 N.ar    1  UNL1       -0.2260
      7 C           6.9581   -4.1361   25.4056 C.ar    1  UNL1        0.1517
      8 C           7.6584   -5.4625   25.3976 C.ar    1  UNL1        0.0872
      9 C           8.0362   -6.3914   24.2821 C.ar    1  UNL1        0.0193
     10 C           8.7467   -7.6772   24.5850 C.ar    1  UNL1        0.0031
     11 C           9.0794   -8.0342   26.0034 C.ar    1  UNL1        0.0191
     12 C           8.7016   -7.1053   27.1189 C.ar    1  UNL1        0.0811
     13 N           7.9912   -5.8195   26.8161 N.ar    1  UNL1       -0.2921
     14 C           8.4731   -3.6066   29.8385 C.3     1  UNL1        0.0079
     15 C           7.6187   -4.6580   29.1946 C.3     1  UNL1        0.0573
     16 C           6.8867   -5.6537   30.0446 C.3     1  UNL1        0.0079
     17 C           4.5146   -2.8472   22.5563 C.3     1  UNL1        0.0747
     18 C           3.9825   -1.4520   22.6989 C.3     1  UNL1        0.0369
     19 C           3.4720   -0.7174   21.4949 C.3     1  UNL1        0.0738
     20 N           3.4934   -1.3780   20.1483 N.3     1  UNL1       -0.2726
     21 C           4.0255   -2.7731   20.0057 C.3     1  UNL1        0.0738
     22 C           4.5361   -3.5077   21.2097 C.3     1  UNL1        0.0369
     23 C           2.9828   -0.6432   18.9443 C.3     1  UNL1        0.0720
     24 C           1.7581    0.2158   19.0535 C.3     1  UNL1        0.0160
     25 C           0.8813    1.3035   18.5073 C.3     1  UNL1        0.0014
     26 C           0.5134    0.6162   19.7888 C.3     1  UNL1        0.0014
@<TRIPOS>BOND
     1    14    15    1
     2    15    16    1
     3    15     5    1
     4     5     6   ar
     5     6     7   ar
     6     7     1    1
     7     1     2    2
     8     1     3   am
     9     3    17    1
    10    17    18    1
    11    18    19    1
    12    19    20    1
    13    20    23    1
    14    23    24    1
    15    24    25    1
    16    25    26    1
    17    20    21    1
    18    21    22    1
    19     7     8   ar
    20     8     9   ar
    21     9    10   ar
    22    10    11   ar
    23    11    12   ar
    24    12    13   ar
    25    13     5   ar
    26    22    17    1
    27    13     8   ar
    28    26    24    1
    29     3     4    1
@<TRIPOS>MOLECULE
*****
 26 29 0 0 0
SMALL
GASTEIGER

@<TRIPOS>ATOM
      1 C           4.3190   -1.0667   24.2721 C.2     1  UNL1        0.2650
      2 O           5.4121   -0.0782   24.5509 O.2     1  UNL1       -0.2684
      3 N           3.6492   -1.7840   25.4065 N.am    1  UNL1       -0.3011
      4 H           2.9317   -2.4328   25.2236 H       1  UNL1        0.1497
      5 C           3.7870   -2.2690   20.6201 C.ar    1  UNL1        0.1239
      6 N           4.5252   -2.3283   21.9246 N.ar    1  UNL1       -0.2260
      7 C           3.8956   -1.3380   22.8588 C.ar    1  UNL1        0.1517
      8 C           2.7683   -0.6667   22.1319 C.ar    1  UNL1        0.0872
      9 C           1.7943    0.3942   22.5510 C.ar    1  UNL1        0.0193
     10 C           0.7532    0.8797   21.5866 C.ar    1  UNL1        0.0031
     11 C           0.6861    0.3044   20.2029 C.ar    1  UNL1        0.0191
     12 C           1.6601   -0.7565   19.7838 C.ar    1  UNL1        0.0811
     13 N           2.7012   -1.2421   20.7482 N.ar    1  UNL1       -0.2921
     14 C           5.1123   -2.6277   18.4144 C.3     1  UNL1        0.0079
     15 C           4.0827   -3.0921   19.4015 C.3     1  UNL1        0.0573
     16 C           3.3489   -4.3796   19.1699 C.3     1  UNL1        0.0079
     17 C           4.0725   -1.5126   26.8197 C.3     1  UNL1        0.0747
     18 C           5.3341   -2.1224   27.3548 C.3     1  UNL1        0.0369
     19 C           5.7575   -1.8511   28.7681 C.3     1  UNL1        0.0738
     20 N           4.9192   -0.9700   29.6461 N.3     1  UNL1       -0.2726
     21 C           3.6576   -0.3602   29.1110 C.3     1  UNL1        0.0738
     22 C           3.2343   -0.6315   27.6978 C.3     1  UNL1        0.0369
     23 C           5.3427   -0.6987   31.0593 C.3     1  UNL1        0.0720
     24 C           5.2937   -1.7960   32.0808 C.3     1  UNL1        0.0160
     25 C           4.6765   -2.4047   33.3049 C.3     1  UNL1        0.0014
     26 C           5.8262   -3.0880   32.6259 C.3     1  UNL1        0.0014
@<TRIPOS>BOND
     1    14    15    1
     2    15    16    1
     3    15     5    1
     4     5     6   ar
     5     6     7   ar
     6     7     1    1
     7     1     2    2
     8     1     3   am
     9     3    17    1
    10    17    18    1
    11    18    19    1
    12    19    20    1
    13    20    23    1
    14    23    24    1
    15    24    25    1
    16    25    26    1
    17    20    21    1
    18    21    22    1
    19     7     8   ar
    20     8     9   ar
    21     9    10   ar
    22    10    11   ar
    23    11    12   ar
    24    12    13   ar
    25    13     5   ar
    26    22    17    1
    27    13     8   ar
    28    26    24    1
    29     3     4    1
@<TRIPOS>MOLECULE
*****
 26 29 0 0 0
SMALL
GASTEIGER

@<TRIPOS>ATOM
      1 C          -0.4501    2.5575   21.1778 C.2     1  UNL1        0.2650
      2 O           0.9109    3.1588   21.3672 O.2     1  UNL1       -0.2684
      3 N          -0.5989    1.2507   20.4565 N.am    1  UNL1       -0.3011
      4 H          -1.4922    0.8560   20.3321 H       1  UNL1        0.1497
      5 C          -3.2558    4.2911   23.2242 C.ar    1  UNL1        0.1239
      6 N          -1.9347    3.5847   23.1490 N.ar    1  UNL1       -0.2260
      7 C          -1.6624    3.2629   21.7095 C.ar    1  UNL1        0.1517
      8 C          -2.8153    3.7703   20.8949 C.ar    1  UNL1        0.0872
      9 C          -3.0955    3.7359   19.4218 C.ar    1  UNL1        0.0193
     10 C          -4.3606    4.3368   18.8848 C.ar    1  UNL1        0.0031
     11 C          -5.3454    4.9722   19.8210 C.ar    1  UNL1        0.0191
     12 C          -5.0652    5.0067   21.2941 C.ar    1  UNL1        0.0811
     13 N          -3.8001    4.4058   21.8311 N.ar    1  UNL1       -0.2921
     14 C          -4.8941    3.9247   25.2072 C.3     1  UNL1        0.0079
     15 C          -3.9168    4.7943   24.4731 C.3     1  UNL1        0.0573
     16 C          -3.6005    6.1671   24.9881 C.3     1  UNL1        0.0079
     17 C           0.6135    0.5453   19.9247 C.3     1  UNL1        0.0747
     18 C           1.1910    0.9428   18.5987 C.3     1  UNL1        0.0369
     19 C           2.4034    0.2374   18.0670 C.3     1  UNL1        0.0738
     20 N           3.0380   -0.8655   18.8613 N.3     1  UNL1       -0.2726
     21 C           2.4604   -1.2630   20.1873 C.3     1  UNL1        0.0738
     22 C           1.2481   -0.5576   20.7190 C.3     1  UNL1        0.0369
     23 C           4.2503   -1.5708   18.3295 C.3     1  UNL1        0.0720
     24 C           4.5464   -2.9782   18.7555 C.3     1  UNL1        0.0160
     25 C           5.4509   -3.9695   19.4258 C.3     1  UNL1        0.0014
     26 C           4.1549   -4.4246   18.8231 C.3     1  UNL1        0.0014
@<TRIPOS>BOND
     1    14    15    1
     2    15    16    1
     3    15     5    1
     4     5     6   ar
     5     6     7   ar
     6     7     1    1
     7     1     2    2
     8     1     3   am
     9     3    17    1
    10    17    18    1
    11    18    19    1
    12    19    20    1
    13    20    23    1
    14    23    24    1
    15    24    25    1
    16    25    26    1
    17    20    21    1
    18    21    22    1
    19     7     8   ar
    20     8     9   ar
    21     9    10   ar
    22    10    11   ar
    23    11    12   ar
    24    12    13   ar
    25    13     5   ar
    26    22    17    1
    27    13     8   ar
    28    26    24    1
    29     3     4    1
@<TRIPOS>MOLECULE
*****
 26 29 0 0 0
SMALL
GASTEIGER

@<TRIPOS>ATOM
      1 C           4.8036   -1.6519   33.4460 C.2     1  UNL1        0.2650
      2 O           3.9110   -2.8548   33.3679 O.2     1  UNL1       -0.2684
      3 N           6.0265   -1.5680   32.5812 N.am    1  UNL1       -0.3011
      4 H           6.6124   -0.7785   32.6324 H       1  UNL1        0.1497
      5 C           4.3743    0.8591   36.3744 C.ar    1  UNL1        0.1239
      6 N           4.9410   -0.4092   35.8086 N.ar    1  UNL1       -0.2260
      7 C           4.4735   -0.5328   34.3887 C.ar    1  UNL1        0.1517
      8 C           3.6179    0.6592   34.0769 C.ar    1  UNL1        0.0872
      9 C           2.8867    1.0724   32.8341 C.ar    1  UNL1        0.0193
     10 C           2.0943    2.3458   32.8186 C.ar    1  UNL1        0.0031
     11 C           2.0330    3.2061   34.0458 C.ar    1  UNL1        0.0191
     12 C           2.7641    2.7929   35.2886 C.ar    1  UNL1        0.0811
     13 N           3.5566    1.5195   35.3042 N.ar    1  UNL1       -0.2921
     14 C           5.8666    2.0772   38.1178 C.3     1  UNL1        0.0079
     15 C           4.5878    1.3764   37.7661 C.3     1  UNL1        0.0573
     16 C           3.5227    1.1929   38.8061 C.3     1  UNL1        0.0079
     17 C           6.3566   -2.6871   31.6385 C.3     1  UNL1        0.0747
     18 C           6.7498   -4.0304   32.1777 C.3     1  UNL1        0.0369
     19 C           7.0800   -5.1495   31.2350 C.3     1  UNL1        0.0738
     20 N           7.0168   -4.9252   29.7532 N.3     1  UNL1       -0.2726
     21 C           6.6236   -3.5818   29.2140 C.3     1  UNL1        0.0738
     22 C           6.2935   -2.4627   30.1567 C.3     1  UNL1        0.0369
     23 C           7.3470   -6.0443   28.8105 C.3     1  UNL1        0.0720
     24 C           7.5747   -5.7573   27.3560 C.3     1  UNL1        0.0160
     25 C           8.4968   -5.3768   26.2358 C.3     1  UNL1        0.0014
     26 C           7.0469   -5.6409   25.9567 C.3     1  UNL1        0.0014
@<TRIPOS>BOND
     1    14    15    1
     2    15    16    1
     3    15     5    1
     4     5     6   ar
     5     6     7   ar
     6     7     1    1
     7     1     2    2
     8     1     3   am
     9     3    17    1
    10    17    18    1
    11    18    19    1
    12    19    20    1
    13    20    23    1
    14    23    24    1
    15    24    25    1
    16    25    26    1
    17    20    21    1
    18    21    22    1
    19     7     8   ar
    20     8     9   ar
    21     9    10   ar
    22    10    11   ar
    23    11    12   ar
    24    12    13   ar
    25    13     5   ar
    26    22    17    1
    27    13     8   ar
    28    26    24    1
    29     3     4    1
@<TRIPOS>MOLECULE
*****
 26 29 0 0 0
SMALL
GASTEIGER

@<TRIPOS>ATOM
      1 C           3.7914   -0.4681   24.5734 C.2     1  UNL1        0.2650
      2 O           4.4341    0.8038   25.0413 O.2     1  UNL1       -0.2684
      3 N           3.5836   -1.6010   25.5344 N.am    1  UNL1       -0.3011
      4 H           3.1617   -2.4359   25.2273 H       1  UNL1        0.1497
      5 C           2.3177   -0.1709   20.9950 C.ar    1  UNL1        0.1239
      6 N           2.5026    0.3636   22.3843 N.ar    1  UNL1       -0.2260
      7 C           3.3566   -0.6073   23.1445 C.ar    1  UNL1        0.1517
      8 C           3.6996   -1.7418   22.2251 C.ar    1  UNL1        0.0872
      9 C           4.5136   -2.9855   22.4260 C.ar    1  UNL1        0.0193
     10 C           4.6854   -3.9596   21.2983 C.ar    1  UNL1        0.0031
     11 C           4.0433   -3.6899   19.9698 C.ar    1  UNL1        0.0191
     12 C           3.2293   -2.4461   19.7690 C.ar    1  UNL1        0.0811
     13 N           3.0574   -1.4721   20.8966 N.ar    1  UNL1       -0.2921
     14 C           0.1026    0.8758   20.1298 C.3     1  UNL1        0.0079
     15 C           1.5311    0.4813   19.8968 C.3     1  UNL1        0.0573
     16 C           2.1727    0.7391   18.5658 C.3     1  UNL1        0.0079
     17 C           4.0184   -1.4619   26.9632 C.3     1  UNL1        0.0747
     18 C           5.3506   -1.9973   27.3972 C.3     1  UNL1        0.0369
     19 C           5.7854   -1.8581   28.8260 C.3     1  UNL1        0.0738
     20 N           4.8880   -1.1836   29.8208 N.3     1  UNL1       -0.2726
     21 C           3.5558   -0.6482   29.3868 C.3     1  UNL1        0.0738
     22 C           3.1209   -0.7873   27.9580 C.3     1  UNL1        0.0369
     23 C           5.3229   -1.0445   31.2496 C.3     1  UNL1        0.0720
     24 C           6.2123   -2.0824   31.8674 C.3     1  UNL1        0.0160
     25 C           7.4951   -2.4540   32.5503 C.3     1  UNL1        0.0014
     26 C           6.4701   -3.5085   32.2546 C.3     1  UNL1        0.0014
@<TRIPOS>BOND
     1    14    15    1
     2    15    16    1
     3    15     5    1
     4     5     6   ar
     5     6     7   ar
     6     7     1    1
     7     1     2    2
     8     1     3   am
     9     3    17    1
    10    17    18    1
    11    18    19    1
    12    19    20    1
    13    20    23    1
    14    23    24    1
    15    24    25    1
    16    25    26    1
    17    20    21    1
    18    21    22    1
    19     7     8   ar
    20     8     9   ar
    21     9    10   ar
    22    10    11   ar
    23    11    12   ar
    24    12    13   ar
    25    13     5   ar
    26    22    17    1
    27    13     8   ar
    28    26    24    1
    29     3     4    1
