@<TRIPOS>MOLECULE
*****
 30 32 0 0 0
SMALL
GASTEIGER

@<TRIPOS>ATOM
      1 C          -9.5712  -20.8063   24.4635 C.3     1  UNL1        0.1152
      2 N          -9.6701  -19.5003   23.7323 N.am    1  UNL1       -0.2729
      3 C          -9.8650  -18.2252   24.4977 C.2     1  UNL1        0.2459
      4 O          -9.9611  -18.2559   25.9943 O.2     1  UNL1       -0.2730
      5 C          -9.9639  -16.9191   23.7665 C.3     1  UNL1        0.1738
      6 N          -9.3879  -15.6743   24.3736 N.pl3   1  UNL1       -0.3253
      7 H          -9.9393  -14.8620   24.4473 H       1  UNL1        0.1473
      8 C          -7.9718  -15.6670   24.8683 C.ar    1  UNL1        0.0456
      9 C          -7.6864  -15.4314   26.3219 C.ar    1  UNL1        0.0143
     10 C          -6.2704  -15.4241   26.8166 C.ar    1  UNL1        0.0020
     11 C          -5.1398  -15.6525   25.8577 C.ar    1  UNL1        0.0104
     12 C          -5.4252  -15.8881   24.4041 C.ar    1  UNL1        0.0697
     13 C          -6.8412  -15.8953   23.9094 C.ar    1  UNL1        0.0246
     14 C          -4.2945  -16.1164   23.4452 C.1     1  UNL1        0.1005
     15 N          -3.1639  -16.3447   22.4863 N.1     1  UNL1       -0.1908
     16 C          -9.5740  -19.4695   22.2357 C.3     1  UNL1        0.1139
     17 C          -8.2306  -19.4054   21.5715 C.ar    1  UNL1       -0.0029
     18 C          -8.1238  -19.5363   20.0811 C.ar    1  UNL1       -0.0026
     19 C          -6.7803  -19.4721   19.4169 C.ar    1  UNL1       -0.0003
     20 C          -5.5438  -19.2771   20.2432 C.ar    1  UNL1       -0.0000
     21 C          -5.6506  -19.1462   21.7337 C.ar    1  UNL1       -0.0003
     22 C          -6.9940  -19.2103   22.3978 C.ar    1  UNL1       -0.0026
     23 C         -10.8213  -19.5029   21.4032 C.3     1  UNL1        0.0968
     24 N         -11.4812  -18.2210   20.9891 N.3     1  UNL1       -0.2689
     25 C         -12.6439  -17.5664   21.6744 C.3     1  UNL1        0.0748
     26 C         -12.9755  -16.3095   20.9259 C.3     1  UNL1        0.0480
     27 C         -12.0177  -16.1873   19.7779 C.3     1  UNL1        0.1278
     28 O         -11.9885  -15.0785   18.7682 O.3     1  UNL1       -0.3830
     29 C         -11.0941  -17.3687   19.8170 C.3     1  UNL1        0.1017
     30 H         -11.2734  -15.2386   18.1327 H       1  UNL1        0.2104
@<TRIPOS>BOND
     1     1     2    1
     2     2     3   am
     3     3     4    2
     4     3     5    1
     5     5     6    1
     6     6     8    1
     7     8     9   ar
     8     9    10   ar
     9    10    11   ar
    10    11    12   ar
    11    12    14    1
    12    14    15    3
    13    12    13   ar
    14     2    16    1
    15    16    23    1
    16    23    24    1
    17    24    25    1
    18    25    26    1
    19    26    27    1
    20    27    28    1
    21    27    29    1
    22    16    17    1
    23    17    18   ar
    24    18    19   ar
    25    19    20   ar
    26    20    21   ar
    27    21    22   ar
    28    13     8   ar
    29    29    24    1
    30    22    17   ar
    31     6     7    1
    32    28    30    1
@<TRIPOS>MOLECULE
*****
 30 32 0 0 0
SMALL
GASTEIGER

@<TRIPOS>ATOM
      1 C          -8.8632  -16.1526   21.6325 C.3     1  UNL1        0.1152
      2 N          -8.4049  -17.3819   22.3597 N.am    1  UNL1       -0.2729
      3 C          -7.5672  -18.4042   21.6506 C.2     1  UNL1        0.2459
      4 O          -7.1877  -18.1974   20.2142 O.2     1  UNL1       -0.2730
      5 C          -7.1089  -19.6335   22.3779 C.3     1  UNL1        0.1738
      6 N          -5.7283  -20.1718   22.1451 N.pl3   1  UNL1       -0.3253
      7 H          -5.5811  -21.1439   22.0939 H       1  UNL1        0.1473
      8 C          -4.5720  -19.2289   21.9901 C.ar    1  UNL1        0.0456
      9 C          -4.1279  -18.3895   23.1511 C.ar    1  UNL1        0.0143
     10 C          -2.9716  -17.4467   22.9961 C.ar    1  UNL1        0.0020
     11 C          -2.2594  -17.3434   21.6800 C.ar    1  UNL1        0.0104
     12 C          -2.7034  -18.1828   20.5189 C.ar    1  UNL1        0.0697
     13 C          -3.8597  -19.1256   20.6740 C.ar    1  UNL1        0.0246
     14 C          -1.9912  -18.0795   19.2029 C.1     1  UNL1        0.1005
     15 N          -1.2790  -17.9762   17.8868 N.1     1  UNL1       -0.1908
     16 C          -8.7844  -17.5887   23.7961 C.3     1  UNL1        0.1139
     17 C          -8.1304  -16.7708   24.8699 C.ar    1  UNL1       -0.0029
     18 C          -6.8506  -16.0427   24.5835 C.ar    1  UNL1       -0.0026
     19 C          -6.1965  -15.2248   25.6574 C.ar    1  UNL1       -0.0003
     20 C          -6.8223  -15.1349   27.0177 C.ar    1  UNL1       -0.0000
     21 C          -8.1021  -15.8629   27.3041 C.ar    1  UNL1       -0.0003
     22 C          -8.7561  -16.6809   26.2303 C.ar    1  UNL1       -0.0026
     23 C          -9.8180  -18.6135   24.1587 C.3     1  UNL1        0.0968
     24 N         -11.2755  -18.3002   23.9922 N.3     1  UNL1       -0.2689
     25 C         -11.8720  -17.4125   22.9406 C.3     1  UNL1        0.0748
     26 C         -13.3575  -17.3833   23.1466 C.3     1  UNL1        0.0480
     27 C         -13.6791  -18.2530   24.3257 C.3     1  UNL1        0.1278
     28 O         -15.0472  -18.5108   24.8841 O.3     1  UNL1       -0.3830
     29 C         -12.3923  -18.8197   24.8484 C.3     1  UNL1        0.1017
     30 H         -14.9784  -19.1076   25.6457 H       1  UNL1        0.2104
@<TRIPOS>BOND
     1     1     2    1
     2     2     3   am
     3     3     4    2
     4     3     5    1
     5     5     6    1
     6     6     8    1
     7     8     9   ar
     8     9    10   ar
     9    10    11   ar
    10    11    12   ar
    11    12    14    1
    12    14    15    3
    13    12    13   ar
    14     2    16    1
    15    16    23    1
    16    23    24    1
    17    24    25    1
    18    25    26    1
    19    26    27    1
    20    27    28    1
    21    27    29    1
    22    16    17    1
    23    17    18   ar
    24    18    19   ar
    25    19    20   ar
    26    20    21   ar
    27    21    22   ar
    28    13     8   ar
    29    29    24    1
    30    22    17   ar
    31     6     7    1
    32    28    30    1
@<TRIPOS>MOLECULE
*****
 30 32 0 0 0
SMALL
GASTEIGER

@<TRIPOS>ATOM
      1 C         -10.2904  -18.7713   19.5681 C.3     1  UNL1        0.1152
      2 N          -9.3851  -18.5403   20.7415 N.am    1  UNL1       -0.2729
      3 C          -8.0852  -19.2819   20.8432 C.2     1  UNL1        0.2459
      4 O          -7.6907  -20.2544   19.7714 O.2     1  UNL1       -0.2730
      5 C          -7.1798  -19.0509   22.0166 C.3     1  UNL1        0.1738
      6 N          -5.8491  -19.7399   22.0842 N.pl3   1  UNL1       -0.3253
      7 H          -5.8050  -20.7115   22.2371 H       1  UNL1        0.1473
      8 C          -4.5855  -18.9486   21.9188 C.ar    1  UNL1        0.0456
      9 C          -3.9939  -18.2263   23.0927 C.ar    1  UNL1        0.0143
     10 C          -2.7304  -17.4350   22.9273 C.ar    1  UNL1        0.0020
     11 C          -2.0585  -17.3661   21.5879 C.ar    1  UNL1        0.0104
     12 C          -2.6501  -18.0885   20.4140 C.ar    1  UNL1        0.0697
     13 C          -3.9136  -18.8797   20.5795 C.ar    1  UNL1        0.0246
     14 C          -1.9782  -18.0196   19.0747 C.1     1  UNL1        0.1005
     15 N          -1.3064  -17.9507   17.7353 N.1     1  UNL1       -0.1908
     16 C          -9.7796  -17.5678   21.8132 C.3     1  UNL1        0.1139
     17 C         -10.9062  -17.8972   22.7471 C.ar    1  UNL1       -0.0029
     18 C         -12.2557  -17.2749   22.5432 C.ar    1  UNL1       -0.0026
     19 C         -13.3824  -17.6043   23.4771 C.ar    1  UNL1       -0.0003
     20 C         -13.1596  -18.5560   24.6148 C.ar    1  UNL1       -0.0000
     21 C         -11.8101  -19.1784   24.8187 C.ar    1  UNL1       -0.0003
     22 C         -10.6834  -18.8490   23.8849 C.ar    1  UNL1       -0.0026
     23 C          -9.0475  -16.2660   21.9511 C.3     1  UNL1        0.0968
     24 N          -8.4543  -15.8753   23.2723 N.3     1  UNL1       -0.2689
     25 C          -9.1660  -15.8752   24.5927 C.3     1  UNL1        0.0748
     26 C          -8.1969  -15.4160   25.6416 C.3     1  UNL1        0.0480
     27 C          -6.8863  -15.1323   24.9693 C.3     1  UNL1        0.1278
     28 O          -5.6361  -14.6495   25.6430 O.3     1  UNL1       -0.3830
     29 C          -7.0454  -15.4161   23.5050 C.3     1  UNL1        0.1017
     30 H          -4.9328  -14.5454   24.9832 H       1  UNL1        0.2104
@<TRIPOS>BOND
     1     1     2    1
     2     2     3   am
     3     3     4    2
     4     3     5    1
     5     5     6    1
     6     6     8    1
     7     8     9   ar
     8     9    10   ar
     9    10    11   ar
    10    11    12   ar
    11    12    14    1
    12    14    15    3
    13    12    13   ar
    14     2    16    1
    15    16    23    1
    16    23    24    1
    17    24    25    1
    18    25    26    1
    19    26    27    1
    20    27    28    1
    21    27    29    1
    22    16    17    1
    23    17    18   ar
    24    18    19   ar
    25    19    20   ar
    26    20    21   ar
    27    21    22   ar
    28    13     8   ar
    29    29    24    1
    30    22    17   ar
    31     6     7    1
    32    28    30    1
@<TRIPOS>MOLECULE
*****
 30 32 0 0 0
SMALL
GASTEIGER

@<TRIPOS>ATOM
      1 C          -4.7696  -18.5593   23.0795 C.3     1  UNL1        0.1152
      2 N          -6.0132  -17.9838   22.4695 N.am    1  UNL1       -0.2729
      3 C          -6.5444  -16.6664   22.9513 C.2     1  UNL1        0.2459
      4 O          -5.8320  -15.9244   24.0431 O.2     1  UNL1       -0.2730
      5 C          -7.7881  -16.0908   22.3414 C.3     1  UNL1        0.1738
      6 N          -9.0282  -15.9363   23.1710 N.pl3   1  UNL1       -0.3253
      7 H          -8.9682  -15.5677   24.0819 H       1  UNL1        0.1473
      8 C         -10.3596  -16.3436   22.6129 C.ar    1  UNL1        0.0456
      9 C         -10.6603  -16.1305   21.1589 C.ar    1  UNL1        0.0143
     10 C         -11.9917  -16.5377   20.6008 C.ar    1  UNL1        0.0020
     11 C         -13.0224  -17.1581   21.4968 C.ar    1  UNL1        0.0104
     12 C         -12.7218  -17.3712   22.9508 C.ar    1  UNL1        0.0697
     13 C         -11.3904  -16.9640   23.5088 C.ar    1  UNL1        0.0246
     14 C         -13.7525  -17.9916   23.8467 C.1     1  UNL1        0.1005
     15 N         -14.7833  -18.6120   24.7426 N.1     1  UNL1       -0.1908
     16 C          -6.7256  -18.7257   21.3778 C.3     1  UNL1        0.1139
     17 C          -8.1127  -19.2483   21.6076 C.ar    1  UNL1       -0.0029
     18 C          -8.5300  -19.6905   22.9788 C.ar    1  UNL1       -0.0026
     19 C          -9.9171  -20.2131   23.2086 C.ar    1  UNL1       -0.0003
     20 C         -10.8870  -20.2935   22.0671 C.ar    1  UNL1       -0.0000
     21 C         -10.4697  -19.8512   20.6959 C.ar    1  UNL1       -0.0003
     22 C          -9.0826  -19.3286   20.4661 C.ar    1  UNL1       -0.0026
     23 C          -6.0509  -18.9451   20.0562 C.3     1  UNL1        0.0968
     24 N          -4.5551  -19.0285   19.9824 N.3     1  UNL1       -0.2689
     25 C          -3.6982  -20.0818   20.6198 C.3     1  UNL1        0.0748
     26 C          -2.2670  -19.7775   20.2896 C.3     1  UNL1        0.0480
     27 C          -2.2393  -18.5361   19.4481 C.3     1  UNL1        0.1278
     28 O          -1.0129  -17.8738   18.8938 O.3     1  UNL1       -0.3830
     29 C          -3.6534  -18.0731   19.2582 C.3     1  UNL1        0.1017
     30 H          -1.2709  -17.0889   18.3857 H       1  UNL1        0.2104
@<TRIPOS>BOND
     1     1     2    1
     2     2     3   am
     3     3     4    2
     4     3     5    1
     5     5     6    1
     6     6     8    1
     7     8     9   ar
     8     9    10   ar
     9    10    11   ar
    10    11    12   ar
    11    12    14    1
    12    14    15    3
    13    12    13   ar
    14     2    16    1
    15    16    23    1
    16    23    24    1
    17    24    25    1
    18    25    26    1
    19    26    27    1
    20    27    28    1
    21    27    29    1
    22    16    17    1
    23    17    18   ar
    24    18    19   ar
    25    19    20   ar
    26    20    21   ar
    27    21    22   ar
    28    13     8   ar
    29    29    24    1
    30    22    17   ar
    31     6     7    1
    32    28    30    1
@<TRIPOS>MOLECULE
*****
 30 32 0 0 0
SMALL
GASTEIGER

@<TRIPOS>ATOM
      1 C          -8.6472  -15.2174   25.7306 C.3     1  UNL1        0.1152
      2 N          -7.8136  -15.7837   24.6196 N.am    1  UNL1       -0.2729
      3 C          -6.3255  -15.5956   24.6277 C.2     1  UNL1        0.2459
      4 O          -5.6710  -14.8412   25.7469 O.2     1  UNL1       -0.2730
      5 C          -5.4918  -16.1619   23.5167 C.3     1  UNL1        0.1738
      6 N          -4.7053  -17.4202   23.7356 N.pl3   1  UNL1       -0.3253
      7 H          -4.4652  -17.6980   24.6491 H       1  UNL1        0.1473
      8 C          -4.2846  -18.2554   22.5628 C.ar    1  UNL1        0.0456
      9 C          -5.2228  -19.2795   21.9962 C.ar    1  UNL1        0.0143
     10 C          -4.8021  -20.1146   20.8234 C.ar    1  UNL1        0.0020
     11 C          -3.4431  -19.9257   20.2172 C.ar    1  UNL1        0.0104
     12 C          -2.5049  -18.9017   20.7837 C.ar    1  UNL1        0.0697
     13 C          -2.9256  -18.0666   21.9565 C.ar    1  UNL1        0.0246
     14 C          -1.1459  -18.7128   20.1775 C.1     1  UNL1        0.1005
     15 N           0.2131  -18.5239   19.5713 N.1     1  UNL1       -0.1908
     16 C          -8.4681  -16.5381   23.5004 C.3     1  UNL1        0.1139
     17 C          -9.0806  -17.8826   23.7596 C.ar    1  UNL1       -0.0029
     18 C          -8.4082  -19.1236   23.2520 C.ar    1  UNL1       -0.0026
     19 C          -9.0207  -20.4681   23.5113 C.ar    1  UNL1       -0.0003
     20 C         -10.3057  -20.5715   24.2782 C.ar    1  UNL1       -0.0000
     21 C         -10.9781  -19.3305   24.7858 C.ar    1  UNL1       -0.0003
     22 C         -10.3656  -17.9861   24.5266 C.ar    1  UNL1       -0.0026
     23 C          -8.5101  -15.9481   22.1220 C.3     1  UNL1        0.0968
     24 N          -9.6581  -16.2587   21.2078 N.3     1  UNL1       -0.2689
     25 C         -10.1328  -17.6285   20.8227 C.3     1  UNL1        0.0748
     26 C         -11.3010  -17.4705   19.8952 C.3     1  UNL1        0.0480
     27 C         -11.5482  -16.0031   19.7070 C.3     1  UNL1        0.1278
     28 O         -12.6223  -15.3918   18.8568 O.3     1  UNL1       -0.3830
     29 C         -10.5329  -15.2541   20.5182 C.3     1  UNL1        0.1017
     30 H         -12.5644  -14.4249   18.9083 H       1  UNL1        0.2104
@<TRIPOS>BOND
     1     1     2    1
     2     2     3   am
     3     3     4    2
     4     3     5    1
     5     5     6    1
     6     6     8    1
     7     8     9   ar
     8     9    10   ar
     9    10    11   ar
    10    11    12   ar
    11    12    14    1
    12    14    15    3
    13    12    13   ar
    14     2    16    1
    15    16    23    1
    16    23    24    1
    17    24    25    1
    18    25    26    1
    19    26    27    1
    20    27    28    1
    21    27    29    1
    22    16    17    1
    23    17    18   ar
    24    18    19   ar
    25    19    20   ar
    26    20    21   ar
    27    21    22   ar
    28    13     8   ar
    29    29    24    1
    30    22    17   ar
    31     6     7    1
    32    28    30    1
@<TRIPOS>MOLECULE
*****
 30 32 0 0 0
SMALL
GASTEIGER

@<TRIPOS>ATOM
      1 C          -8.0339  -15.2818   21.7132 C.3     1  UNL1        0.1152
      2 N          -8.2492  -16.5633   22.4624 N.am    1  UNL1       -0.2729
      3 C          -7.8841  -17.8729   21.8288 C.2     1  UNL1        0.2459
      4 O          -7.3037  -17.9011   20.4459 O.2     1  UNL1       -0.2730
      5 C          -8.0994  -19.1545   22.5780 C.3     1  UNL1        0.1738
      6 N          -7.0762  -20.2487   22.5021 N.pl3   1  UNL1       -0.3253
      7 H          -7.2364  -21.1051   22.9604 H       1  UNL1        0.1473
      8 C          -5.8089  -20.0379   21.7277 C.ar    1  UNL1        0.0456
      9 C          -5.4672  -20.9489   20.5861 C.ar    1  UNL1        0.0143
     10 C          -4.2000  -20.7382   19.8118 C.ar    1  UNL1        0.0020
     11 C          -3.2743  -19.6165   20.1791 C.ar    1  UNL1        0.0104
     12 C          -3.6159  -18.7055   21.3208 C.ar    1  UNL1        0.0697
     13 C          -4.8832  -18.9163   22.0951 C.ar    1  UNL1        0.0246
     14 C          -2.6903  -17.5838   21.6882 C.1     1  UNL1        0.1005
     15 N          -1.7646  -16.4621   22.0555 N.1     1  UNL1       -0.1908
     16 C          -8.8296  -16.5352   23.8453 C.3     1  UNL1        0.1139
     17 C          -7.9852  -16.0952   25.0043 C.ar    1  UNL1       -0.0029
     18 C          -6.5489  -15.7214   24.7866 C.ar    1  UNL1       -0.0026
     19 C          -5.7044  -15.2814   25.9457 C.ar    1  UNL1       -0.0003
     20 C          -6.2963  -15.2152   27.3223 C.ar    1  UNL1       -0.0000
     21 C          -7.7326  -15.5889   27.5400 C.ar    1  UNL1       -0.0003
     22 C          -8.5770  -16.0289   26.3811 C.ar    1  UNL1       -0.0026
     23 C         -10.2544  -16.9471   24.0692 C.3     1  UNL1        0.0968
     24 N         -11.1964  -17.0519   22.9066 N.3     1  UNL1       -0.2689
     25 C         -12.0047  -18.2590   22.5328 C.3     1  UNL1        0.0748
     26 C         -12.8033  -17.9212   21.3088 C.3     1  UNL1        0.0480
     27 C         -12.4886  -16.5054   20.9261 C.3     1  UNL1        0.1278
     28 O         -13.0656  -15.7580   19.7606 O.3     1  UNL1       -0.3830
     29 C         -11.4954  -15.9681   21.9136 C.3     1  UNL1        0.1017
     30 H         -12.6972  -14.8610   19.7373 H       1  UNL1        0.2104
@<TRIPOS>BOND
     1     1     2    1
     2     2     3   am
     3     3     4    2
     4     3     5    1
     5     5     6    1
     6     6     8    1
     7     8     9   ar
     8     9    10   ar
     9    10    11   ar
    10    11    12   ar
    11    12    14    1
    12    14    15    3
    13    12    13   ar
    14     2    16    1
    15    16    23    1
    16    23    24    1
    17    24    25    1
    18    25    26    1
    19    26    27    1
    20    27    28    1
    21    27    29    1
    22    16    17    1
    23    17    18   ar
    24    18    19   ar
    25    19    20   ar
    26    20    21   ar
    27    21    22   ar
    28    13     8   ar
    29    29    24    1
    30    22    17   ar
    31     6     7    1
    32    28    30    1
@<TRIPOS>MOLECULE
*****
 30 32 0 0 0
SMALL
GASTEIGER

@<TRIPOS>ATOM
      1 C          -8.5355  -15.2177   26.2715 C.3     1  UNL1        0.1152
      2 N          -7.7845  -15.7191   25.0738 N.am    1  UNL1       -0.2729
      3 C          -6.2911  -15.5911   25.0174 C.2     1  UNL1        0.2459
      4 O          -5.5486  -14.9618   26.1588 O.2     1  UNL1       -0.2730
      5 C          -5.5400  -16.0925   23.8197 C.3     1  UNL1        0.1738
      6 N          -4.2869  -16.8963   24.0027 N.pl3   1  UNL1       -0.3253
      7 H          -3.7549  -16.7982   24.8252 H       1  UNL1        0.1473
      8 C          -3.8442  -17.8495   22.9324 C.ar    1  UNL1        0.0456
      9 C          -2.4012  -17.9038   22.5264 C.ar    1  UNL1        0.0143
     10 C          -1.9586  -18.8570   21.4562 C.ar    1  UNL1        0.0020
     11 C          -2.9590  -19.7559   20.7919 C.ar    1  UNL1        0.0104
     12 C          -4.4020  -19.7016   21.1979 C.ar    1  UNL1        0.0697
     13 C          -4.8446  -18.7484   22.2681 C.ar    1  UNL1        0.0246
     14 C          -5.4023  -20.6005   20.5336 C.1     1  UNL1        0.1005
     15 N          -6.4027  -21.4994   19.8693 N.1     1  UNL1       -0.1908
     16 C          -8.5270  -16.3484   23.9324 C.3     1  UNL1        0.1139
     17 C          -8.8587  -17.8108   23.9689 C.ar    1  UNL1       -0.0029
     18 C          -8.2637  -18.7404   22.9531 C.ar    1  UNL1       -0.0026
     19 C          -8.5954  -20.2028   22.9896 C.ar    1  UNL1       -0.0003
     20 C          -9.5221  -20.7356   24.0418 C.ar    1  UNL1       -0.0000
     21 C         -10.1172  -19.8060   25.0576 C.ar    1  UNL1       -0.0003
     22 C          -9.7855  -18.3437   25.0212 C.ar    1  UNL1       -0.0026
     23 C          -8.9377  -15.5154   22.7546 C.3     1  UNL1        0.0968
     24 N         -10.1109  -15.9287   21.9163 N.3     1  UNL1       -0.2689
     25 C         -10.2934  -15.6457   20.4546 C.3     1  UNL1        0.0748
     26 C         -11.6029  -16.2396   20.0274 C.3     1  UNL1        0.0480
     27 C         -12.2297  -16.8897   21.2250 C.3     1  UNL1        0.1278
     28 O         -13.5472  -17.6063   21.2508 O.3     1  UNL1       -0.3830
     29 C         -11.3076  -16.6976   22.3925 C.3     1  UNL1        0.1017
     30 H         -13.7200  -17.9333   22.1475 H       1  UNL1        0.2104
@<TRIPOS>BOND
     1     1     2    1
     2     2     3   am
     3     3     4    2
     4     3     5    1
     5     5     6    1
     6     6     8    1
     7     8     9   ar
     8     9    10   ar
     9    10    11   ar
    10    11    12   ar
    11    12    14    1
    12    14    15    3
    13    12    13   ar
    14     2    16    1
    15    16    23    1
    16    23    24    1
    17    24    25    1
    18    25    26    1
    19    26    27    1
    20    27    28    1
    21    27    29    1
    22    16    17    1
    23    17    18   ar
    24    18    19   ar
    25    19    20   ar
    26    20    21   ar
    27    21    22   ar
    28    13     8   ar
    29    29    24    1
    30    22    17   ar
    31     6     7    1
    32    28    30    1
@<TRIPOS>MOLECULE
*****
 30 32 0 0 0
SMALL
GASTEIGER

@<TRIPOS>ATOM
      1 C          -8.8462  -20.7392   23.8573 C.3     1  UNL1        0.1152
      2 N          -8.9681  -19.3401   23.3305 N.am    1  UNL1       -0.2729
      3 C          -9.7999  -18.3316   24.0660 C.2     1  UNL1        0.2459
      4 O         -10.5098  -18.7222   25.3283 O.2     1  UNL1       -0.2730
      5 C          -9.9218  -16.9324   23.5393 C.3     1  UNL1        0.1738
      6 N          -9.5212  -15.7700   24.3985 N.pl3   1  UNL1       -0.3253
      7 H         -10.1892  -15.0932   24.6537 H       1  UNL1        0.1473
      8 C          -8.1029  -15.6385   24.8688 C.ar    1  UNL1        0.0456
      9 C          -7.8078  -15.5039   26.3333 C.ar    1  UNL1        0.0143
     10 C          -6.3896  -15.3725   26.8036 C.ar    1  UNL1        0.0020
     11 C          -5.2664  -15.3758   25.8094 C.ar    1  UNL1        0.0104
     12 C          -5.5615  -15.5104   24.3449 C.ar    1  UNL1        0.0697
     13 C          -6.9797  -15.6418   23.8746 C.ar    1  UNL1        0.0246
     14 C          -4.4383  -15.5136   23.3507 C.1     1  UNL1        0.1005
     15 N          -3.3151  -15.5169   22.3565 N.1     1  UNL1       -0.1908
     16 C          -8.2581  -18.9494   22.0682 C.3     1  UNL1        0.1139
     17 C          -8.8190  -19.3526   20.7368 C.ar    1  UNL1       -0.0029
     18 C          -8.0203  -20.2330   19.8220 C.ar    1  UNL1       -0.0026
     19 C          -8.5812  -20.6362   18.4905 C.ar    1  UNL1       -0.0003
     20 C          -9.9408  -20.1589   18.0738 C.ar    1  UNL1       -0.0000
     21 C         -10.7395  -19.2785   18.9886 C.ar    1  UNL1       -0.0003
     22 C         -10.1787  -18.8753   20.3201 C.ar    1  UNL1       -0.0026
     23 C          -6.9873  -18.1556   22.1374 C.3     1  UNL1        0.0968
     24 N          -5.7239  -18.7096   21.5484 N.3     1  UNL1       -0.2689
     25 C          -5.4290  -18.8698   20.0865 C.3     1  UNL1        0.0748
     26 C          -4.0564  -19.4599   19.9524 C.3     1  UNL1        0.0480
     27 C          -3.5031  -19.6643   21.3316 C.3     1  UNL1        0.1278
     28 O          -2.1558  -20.2327   21.6657 O.3     1  UNL1       -0.3830
     29 C          -4.5336  -19.2006   22.3180 C.3     1  UNL1        0.1017
     30 H          -2.0452  -20.2575   22.6291 H       1  UNL1        0.2104
@<TRIPOS>BOND
     1     1     2    1
     2     2     3   am
     3     3     4    2
     4     3     5    1
     5     5     6    1
     6     6     8    1
     7     8     9   ar
     8     9    10   ar
     9    10    11   ar
    10    11    12   ar
    11    12    14    1
    12    14    15    3
    13    12    13   ar
    14     2    16    1
    15    16    23    1
    16    23    24    1
    17    24    25    1
    18    25    26    1
    19    26    27    1
    20    27    28    1
    21    27    29    1
    22    16    17    1
    23    17    18   ar
    24    18    19   ar
    25    19    20   ar
    26    20    21   ar
    27    21    22   ar
    28    13     8   ar
    29    29    24    1
    30    22    17   ar
    31     6     7    1
    32    28    30    1
@<TRIPOS>MOLECULE
*****
 30 32 0 0 0
SMALL
GASTEIGER

@<TRIPOS>ATOM
      1 C         -15.5458   -6.5233   16.0851 C.3     1  UNL1        0.1152
      2 N         -14.9337   -6.2649   17.4299 N.am    1  UNL1       -0.2729
      3 C         -15.4999   -5.1978   18.3191 C.2     1  UNL1        0.2459
      4 O         -16.6782   -4.3891   17.8634 O.2     1  UNL1       -0.2730
      5 C         -14.8878   -4.9393   19.6639 C.3     1  UNL1        0.1738
      6 N         -14.6761   -3.5305   20.1333 N.pl3   1  UNL1       -0.3253
      7 H         -15.2282   -3.1664   20.8626 H       1  UNL1        0.1473
      8 C         -13.6231   -2.6764   19.4916 C.ar    1  UNL1        0.0456
      9 C         -12.2351   -3.2125   19.3023 C.ar    1  UNL1        0.0143
     10 C         -11.1822   -2.3584   18.6605 C.ar    1  UNL1        0.0020
     11 C         -11.5174   -0.9681   18.2081 C.ar    1  UNL1        0.0104
     12 C         -12.9054   -0.4319   18.3974 C.ar    1  UNL1        0.0697
     13 C         -13.9583   -1.2860   19.0391 C.ar    1  UNL1        0.0246
     14 C         -13.2406    0.9584   17.9450 C.1     1  UNL1        0.1005
     15 N         -13.5757    2.3487   17.4925 N.1     1  UNL1       -0.1908
     16 C         -13.7553   -7.0736   17.8855 C.3     1  UNL1        0.1139
     17 C         -12.3669   -6.5262   17.7353 C.ar    1  UNL1       -0.0029
     18 C         -11.9984   -5.7415   16.5113 C.ar    1  UNL1       -0.0026
     19 C         -10.6099   -5.1942   16.3611 C.ar    1  UNL1       -0.0003
     20 C          -9.5899   -5.4316   17.4350 C.ar    1  UNL1       -0.0000
     21 C          -9.9584   -6.2163   18.6591 C.ar    1  UNL1       -0.0003
     22 C         -11.3469   -6.7636   18.8093 C.ar    1  UNL1       -0.0026
     23 C         -13.9655   -8.4296   18.4914 C.3     1  UNL1        0.0968
     24 N         -15.3562   -8.9266   18.7535 N.3     1  UNL1       -0.2689
     25 C         -16.2922   -8.4128   19.8070 C.3     1  UNL1        0.0748
     26 C         -17.5697   -9.1934   19.7127 C.3     1  UNL1        0.0480
     27 C         -17.4232  -10.1896   18.6009 C.3     1  UNL1        0.1278
     28 O         -18.4622  -11.1773   18.1594 O.3     1  UNL1       -0.3830
     29 C         -16.0552  -10.0248   18.0080 C.3     1  UNL1        0.1017
     30 H         -18.1155  -11.7034   17.4220 H       1  UNL1        0.2104
@<TRIPOS>BOND
     1     1     2    1
     2     2     3   am
     3     3     4    2
     4     3     5    1
     5     5     6    1
     6     6     8    1
     7     8     9   ar
     8     9    10   ar
     9    10    11   ar
    10    11    12   ar
    11    12    14    1
    12    14    15    3
    13    12    13   ar
    14     2    16    1
    15    16    23    1
    16    23    24    1
    17    24    25    1
    18    25    26    1
    19    26    27    1
    20    27    28    1
    21    27    29    1
    22    16    17    1
    23    17    18   ar
    24    18    19   ar
    25    19    20   ar
    26    20    21   ar
    27    21    22   ar
    28    13     8   ar
    29    29    24    1
    30    22    17   ar
    31     6     7    1
    32    28    30    1
