@<TRIPOS>MOLECULE
*****
 32 36 0 0 0
SMALL
GASTEIGER

@<TRIPOS>ATOM
      1 C           6.8004   -4.0289   23.0180 C.ar    1  UNL1        0.1385
      2 C           6.4397   -2.6174   23.3750 C.ar    1  UNL1        0.0384
      3 C           6.3082   -2.2182   24.8149 C.ar    1  UNL1        0.0203
      4 C           6.5375   -3.2305   25.8977 C.ar    1  UNL1        0.0602
      5 C           6.8982   -4.6420   25.5407 C.ar    1  UNL1        0.0204
      6 C           7.0297   -5.0412   24.1008 C.ar    1  UNL1        0.0384
      7 C           7.0634   -5.4148   26.8157 C.ar    1  UNL1        0.0234
      8 C           6.8048   -4.4809   27.9607 C.ar    1  UNL1        0.1143
      9 N           6.4798   -3.1309   27.3934 N.ar    1  UNL1       -0.3219
     10 C           6.1732   -1.9855   28.3119 C.3     1  UNL1        0.1276
     11 C           6.1917   -2.1899   29.7978 C.3     1  UNL1        0.1185
     12 N           6.5167   -3.5399   30.3651 N.am    1  UNL1       -0.2688
     13 C           6.8233   -4.6855   29.4465 C.2     1  UNL1        0.2652
     14 O           7.1483   -6.0355   30.0138 O.2     1  UNL1       -0.2683
     15 O           6.9318   -4.4281   21.5780 O.3     1  UNL1       -0.4791
     16 N           5.5703   -1.6242   18.3324 N.3     1  UNL1       -0.2737
     17 C           7.0196   -1.6816   18.7146 C.3     1  UNL1        0.0758
     18 C           7.4735   -2.6163   19.7965 C.3     1  UNL1        0.0609
     19 C           6.4780   -3.4935   20.4961 C.3     1  UNL1        0.1687
     20 C           5.0286   -3.4361   20.1139 C.3     1  UNL1        0.0609
     21 C           4.5748   -2.5015   19.0320 C.3     1  UNL1        0.0758
     22 C           3.7287   -0.8051   16.6930 C.3     1  UNL1        0.0173
     23 C           5.1164   -0.6896   17.2505 C.3     1  UNL1        0.0576
     24 C           6.0504    0.3606   16.7261 C.3     1  UNL1        0.0173
     25 C           6.5352   -3.7445   31.8510 C.3     1  UNL1        0.1205
     26 C           6.1110   -2.6343   32.7662 C.ar    1  UNL1       -0.0022
     27 C           7.1097   -1.6089   33.2146 C.ar    1  UNL1       -0.0003
     28 C           6.6854   -0.4987   34.1298 C.ar    1  UNL1        0.0294
     29 C           5.2625   -0.4140   34.5966 C.ar    1  UNL1        0.1401
     30 F           4.8383    0.6962   35.5118 F       1  UNL1       -0.2042
     31 C           4.2638   -1.4394   34.1482 C.ar    1  UNL1        0.0294
     32 C           4.6880   -2.5496   33.2330 C.ar    1  UNL1       -0.0003
@<TRIPOS>BOND
     1    22    23    1
     2    23    24    1
     3    23    16    1
     4    16    17    1
     5    17    18    1
     6    18    19    1
     7    19    15    1
     8    15     1    1
     9     1     2   ar
    10     2     3   ar
    11     3     4   ar
    12     4     5   ar
    13     5     6   ar
    14     5     7   ar
    15     7     8   ar
    16     8     9   ar
    17     9    10    1
    18    10    11    1
    19    11    12    1
    20    12    25    1
    21    25    26    1
    22    26    27   ar
    23    27    28   ar
    24    28    29   ar
    25    29    30    1
    26    29    31   ar
    27    31    32   ar
    28    12    13   am
    29    13    14    2
    30    19    20    1
    31    20    21    1
    32    21    16    1
    33     6     1   ar
    34    13     8    1
    35     9     4   ar
    36    32    26   ar
@<TRIPOS>MOLECULE
*****
 32 36 0 0 0
SMALL
GASTEIGER

@<TRIPOS>ATOM
      1 C           0.7001    1.6491   27.8996 C.ar    1  UNL1        0.1385
      2 C          -0.4825    1.8077   26.9906 C.ar    1  UNL1        0.0384
      3 C          -0.3234    1.6119   25.5120 C.ar    1  UNL1        0.0203
      4 C           1.0182    1.2575   24.9424 C.ar    1  UNL1        0.0602
      5 C           2.2008    1.0989   25.8514 C.ar    1  UNL1        0.0204
      6 C           2.0417    1.2948   27.3300 C.ar    1  UNL1        0.0384
      7 C           3.3902    0.7478   25.0077 C.ar    1  UNL1        0.0234
      8 C           2.9428    0.6893   23.5771 C.ar    1  UNL1        0.1143
      9 N           1.4768    1.0043   23.5368 N.ar    1  UNL1       -0.3219
     10 C           0.7489    1.0200   22.2254 C.3     1  UNL1        0.1276
     11 C           1.4869    0.7206   20.9543 C.3     1  UNL1        0.1185
     12 N           2.9529    0.4056   20.9947 N.am    1  UNL1       -0.2688
     13 C           3.6808    0.3900   22.3061 C.2     1  UNL1        0.2652
     14 O           5.1469    0.0750   22.3465 O.2     1  UNL1       -0.2683
     15 O           0.5410    1.8450   29.3783 O.3     1  UNL1       -0.4791
     16 N           3.2710   -0.3029   32.2390 N.3     1  UNL1       -0.2737
     17 C           2.8997   -0.9420   30.9337 C.3     1  UNL1        0.0758
     18 C           1.9897   -0.2260   29.9801 C.3     1  UNL1        0.0609
     19 C           1.4510    1.1290   30.3318 C.3     1  UNL1        0.1687
     20 C           1.8224    1.7681   31.6371 C.3     1  UNL1        0.0609
     21 C           2.7323    1.0521   32.5906 C.3     1  UNL1        0.0758
     22 C           4.8104   -0.2731   34.3316 C.3     1  UNL1        0.0173
     23 C           4.1810   -1.0189   33.1925 C.3     1  UNL1        0.0576
     24 C           4.4616   -2.4807   33.0069 C.3     1  UNL1        0.0173
     25 C           3.6910    0.1062   19.7236 C.3     1  UNL1        0.1205
     26 C           4.0079   -1.3133   19.3569 C.ar    1  UNL1       -0.0022
     27 C           5.2556   -1.6282   18.5860 C.ar    1  UNL1       -0.0003
     28 C           5.5725   -3.0478   18.2193 C.ar    1  UNL1        0.0294
     29 C           4.6417   -4.1524   18.6235 C.ar    1  UNL1        0.1401
     30 F           4.9586   -5.5719   18.2568 F       1  UNL1       -0.2042
     31 C           3.3940   -3.8375   19.3943 C.ar    1  UNL1        0.0294
     32 C           3.0771   -2.4179   19.7610 C.ar    1  UNL1       -0.0003
@<TRIPOS>BOND
     1    22    23    1
     2    23    24    1
     3    23    16    1
     4    16    17    1
     5    17    18    1
     6    18    19    1
     7    19    15    1
     8    15     1    1
     9     1     2   ar
    10     2     3   ar
    11     3     4   ar
    12     4     5   ar
    13     5     6   ar
    14     5     7   ar
    15     7     8   ar
    16     8     9   ar
    17     9    10    1
    18    10    11    1
    19    11    12    1
    20    12    25    1
    21    25    26    1
    22    26    27   ar
    23    27    28   ar
    24    28    29   ar
    25    29    30    1
    26    29    31   ar
    27    31    32   ar
    28    12    13   am
    29    13    14    2
    30    19    20    1
    31    20    21    1
    32    21    16    1
    33     6     1   ar
    34    13     8    1
    35     9     4   ar
    36    32    26   ar
@<TRIPOS>MOLECULE
*****
 32 36 0 0 0
SMALL
GASTEIGER

@<TRIPOS>ATOM
      1 C           6.5566   -3.6073   29.9748 C.ar    1  UNL1        0.1385
      2 C           6.1587   -2.2559   29.4597 C.ar    1  UNL1        0.0384
      3 C           6.1597   -1.9855   27.9843 C.ar    1  UNL1        0.0203
      4 C           6.5586   -3.0665   27.0240 C.ar    1  UNL1        0.0602
      5 C           6.9565   -4.4179   27.5390 C.ar    1  UNL1        0.0204
      6 C           6.9555   -4.6883   29.0144 C.ar    1  UNL1        0.0384
      7 C           7.2990   -5.2806   26.3607 C.ar    1  UNL1        0.0234
      8 C           7.1128   -4.4624   25.1174 C.ar    1  UNL1        0.1143
      9 N           6.6552   -3.0940   25.5273 N.ar    1  UNL1       -0.3219
     10 C           6.3856   -2.0498   24.4848 C.3     1  UNL1        0.1276
     11 C           6.5736   -2.3739   23.0324 C.3     1  UNL1        0.1185
     12 N           7.0312   -3.7423   22.6225 N.am    1  UNL1       -0.2688
     13 C           7.3008   -4.7866   23.6650 C.2     1  UNL1        0.2652
     14 O           7.7584   -6.1551   23.2551 O.2     1  UNL1       -0.2683
     15 O           6.5556   -3.8777   31.4502 O.3     1  UNL1       -0.4791
     16 N           5.3259   -0.6453   34.3294 N.3     1  UNL1       -0.2737
     17 C           6.7307   -0.6882   33.8053 C.3     1  UNL1        0.0758
     18 C           7.1407   -1.7657   32.8455 C.3     1  UNL1        0.0609
     19 C           6.1458   -2.8003   32.4099 C.3     1  UNL1        0.1687
     20 C           4.7409   -2.7574   32.9341 C.3     1  UNL1        0.0609
     21 C           4.3311   -1.6800   33.8938 C.3     1  UNL1        0.0758
     22 C           4.2082    1.6551   34.7860 C.3     1  UNL1        0.0173
     23 C           4.9161    0.4321   35.2891 C.3     1  UNL1        0.0576
     24 C           5.2140    0.2865   36.7520 C.3     1  UNL1        0.0173
     25 C           7.2192   -4.0666   21.1700 C.3     1  UNL1        0.1205
     26 C           6.3625   -3.3989   20.1355 C.ar    1  UNL1       -0.0022
     27 C           6.9563   -2.3687   19.2211 C.ar    1  UNL1       -0.0003
     28 C           6.0996   -1.7010   18.1866 C.ar    1  UNL1        0.0294
     29 C           4.6490   -2.0635   18.0666 C.ar    1  UNL1        0.1401
     30 F           3.7923   -1.3957   17.0321 F       1  UNL1       -0.2042
     31 C           4.0552   -3.0936   18.9809 C.ar    1  UNL1        0.0294
     32 C           4.9120   -3.7613   20.0154 C.ar    1  UNL1       -0.0003
@<TRIPOS>BOND
     1    22    23    1
     2    23    24    1
     3    23    16    1
     4    16    17    1
     5    17    18    1
     6    18    19    1
     7    19    15    1
     8    15     1    1
     9     1     2   ar
    10     2     3   ar
    11     3     4   ar
    12     4     5   ar
    13     5     6   ar
    14     5     7   ar
    15     7     8   ar
    16     8     9   ar
    17     9    10    1
    18    10    11    1
    19    11    12    1
    20    12    25    1
    21    25    26    1
    22    26    27   ar
    23    27    28   ar
    24    28    29   ar
    25    29    30    1
    26    29    31   ar
    27    31    32   ar
    28    12    13   am
    29    13    14    2
    30    19    20    1
    31    20    21    1
    32    21    16    1
    33     6     1   ar
    34    13     8    1
    35     9     4   ar
    36    32    26   ar
@<TRIPOS>MOLECULE
*****
 32 36 0 0 0
SMALL
GASTEIGER

@<TRIPOS>ATOM
      1 C          -1.6675    2.8459   26.3091 C.ar    1  UNL1        0.1385
      2 C          -0.8321    1.8415   27.0461 C.ar    1  UNL1        0.0384
      3 C           0.2827    1.1297   26.3387 C.ar    1  UNL1        0.0203
      4 C           0.5620    1.4222   24.8943 C.ar    1  UNL1        0.0602
      5 C          -0.2734    2.4265   24.1573 C.ar    1  UNL1        0.0204
      6 C          -1.3882    3.1384   24.8647 C.ar    1  UNL1        0.0384
      7 C           0.2339    2.5066   22.7480 C.ar    1  UNL1        0.0234
      8 C           1.3830    1.5517   22.6140 C.ar    1  UNL1        0.1143
      9 N           1.5858    0.8815   23.9405 N.ar    1  UNL1       -0.3219
     10 C           2.6763   -0.1345   24.1084 C.3     1  UNL1        0.1276
     11 C           3.5642   -0.4803   22.9499 C.3     1  UNL1        0.1185
     12 N           3.3614    0.1899   21.6234 N.am    1  UNL1       -0.2688
     13 C           2.2707    1.2060   21.4554 C.2     1  UNL1        0.2652
     14 O           2.0680    1.8763   20.1289 O.2     1  UNL1       -0.2683
     15 O          -2.7824    3.5578   27.0166 O.3     1  UNL1       -0.4791
     16 N          -6.3521    5.0146   24.6961 N.3     1  UNL1       -0.2737
     17 C          -5.5573    3.8458   24.1940 C.3     1  UNL1        0.0758
     18 C          -4.3673    3.3601   24.9675 C.3     1  UNL1        0.0609
     19 C          -3.9722    4.0434   26.2431 C.3     1  UNL1        0.1687
     20 C          -4.7671    5.2122   26.7451 C.3     1  UNL1        0.0609
     21 C          -5.9570    5.6978   25.9716 C.3     1  UNL1        0.0758
     22 C          -7.4522    5.6665   22.4345 C.3     1  UNL1        0.0173
     23 C          -7.5420    5.5001   23.9226 C.3     1  UNL1        0.0576
     24 C          -8.8217    5.8193   24.6371 C.3     1  UNL1        0.0173
     25 C           4.2492   -0.1559   20.4648 C.3     1  UNL1        0.1205
     26 C           4.3951   -1.5846   20.0320 C.ar    1  UNL1       -0.0022
     27 C           3.1868   -2.3685   19.6132 C.ar    1  UNL1       -0.0003
     28 C           3.3327   -3.7973   19.1804 C.ar    1  UNL1        0.0294
     29 C           4.6868   -4.4421   19.1664 C.ar    1  UNL1        0.1401
     30 F           4.8327   -5.8709   18.7336 F       1  UNL1       -0.2042
     31 C           5.8952   -3.6582   19.5853 C.ar    1  UNL1        0.0294
     32 C           5.7493   -2.2295   20.0181 C.ar    1  UNL1       -0.0003
@<TRIPOS>BOND
     1    22    23    1
     2    23    24    1
     3    23    16    1
     4    16    17    1
     5    17    18    1
     6    18    19    1
     7    19    15    1
     8    15     1    1
     9     1     2   ar
    10     2     3   ar
    11     3     4   ar
    12     4     5   ar
    13     5     6   ar
    14     5     7   ar
    15     7     8   ar
    16     8     9   ar
    17     9    10    1
    18    10    11    1
    19    11    12    1
    20    12    25    1
    21    25    26    1
    22    26    27   ar
    23    27    28   ar
    24    28    29   ar
    25    29    30    1
    26    29    31   ar
    27    31    32   ar
    28    12    13   am
    29    13    14    2
    30    19    20    1
    31    20    21    1
    32    21    16    1
    33     6     1   ar
    34    13     8    1
    35     9     4   ar
    36    32    26   ar
@<TRIPOS>MOLECULE
*****
 32 36 0 0 0
SMALL
GASTEIGER

@<TRIPOS>ATOM
      1 C           3.5533   -2.0152   19.1100 C.ar    1  UNL1        0.1385
      2 C           3.9897   -1.0659   18.0338 C.ar    1  UNL1        0.0384
      3 C           3.2847    0.2467   17.8605 C.ar    1  UNL1        0.0203
      4 C           2.1434    0.6100   18.7635 C.ar    1  UNL1        0.0602
      5 C           1.7070   -0.3393   19.8397 C.ar    1  UNL1        0.0204
      6 C           2.4120   -1.6519   20.0130 C.ar    1  UNL1        0.0384
      7 C           0.5584    0.2876   20.5730 C.ar    1  UNL1        0.0234
      8 C           0.2848    1.6244   19.9499 C.ar    1  UNL1        0.1143
      9 N           1.2644    1.8236   18.8315 N.ar    1  UNL1       -0.3219
     10 C           1.2295    3.0844   18.0197 C.3     1  UNL1        0.1276
     11 C           0.2150    4.1459   18.3261 C.3     1  UNL1        0.1185
     12 N          -0.7646    3.9466   19.4445 N.am    1  UNL1       -0.2688
     13 C          -0.7297    2.6858   20.2563 C.2     1  UNL1        0.2652
     14 O          -1.7093    2.4865   21.3747 O.2     1  UNL1       -0.2683
     15 O           4.2583   -3.3279   19.2834 O.3     1  UNL1       -0.4791
     16 N           6.8948   -4.0101   22.8657 N.3     1  UNL1       -0.2737
     17 C           5.4106   -3.8816   23.0405 C.3     1  UNL1        0.0758
     18 C           4.5317   -3.6542   21.8463 C.3     1  UNL1        0.0609
     19 C           5.1371   -3.5553   20.4775 C.3     1  UNL1        0.1687
     20 C           6.6214   -3.6838   20.3028 C.3     1  UNL1        0.0609
     21 C           7.5002   -3.9112   21.4969 C.3     1  UNL1        0.0758
     22 C           7.1765   -4.7141   25.3507 C.3     1  UNL1        0.0173
     23 C           7.7736   -4.2375   24.0598 C.3     1  UNL1        0.0576
     24 C           9.2497   -3.9883   23.9631 C.3     1  UNL1        0.0173
     25 C          -1.7792    5.0082   19.7510 C.3     1  UNL1        0.1205
     26 C          -3.2339    4.7535   19.4882 C.ar    1  UNL1       -0.0022
     27 C          -4.2700    5.2701   20.4420 C.ar    1  UNL1       -0.0003
     28 C          -5.7247    5.0154   20.1793 C.ar    1  UNL1        0.0294
     29 C          -6.1432    4.2441   18.9628 C.ar    1  UNL1        0.1401
     30 F          -7.5979    3.9895   18.7001 F       1  UNL1       -0.2042
     31 C          -5.1072    3.7275   18.0091 C.ar    1  UNL1        0.0294
     32 C          -3.6525    3.9822   18.2718 C.ar    1  UNL1       -0.0003
@<TRIPOS>BOND
     1    22    23    1
     2    23    24    1
     3    23    16    1
     4    16    17    1
     5    17    18    1
     6    18    19    1
     7    19    15    1
     8    15     1    1
     9     1     2   ar
    10     2     3   ar
    11     3     4   ar
    12     4     5   ar
    13     5     6   ar
    14     5     7   ar
    15     7     8   ar
    16     8     9   ar
    17     9    10    1
    18    10    11    1
    19    11    12    1
    20    12    25    1
    21    25    26    1
    22    26    27   ar
    23    27    28   ar
    24    28    29   ar
    25    29    30    1
    26    29    31   ar
    27    31    32   ar
    28    12    13   am
    29    13    14    2
    30    19    20    1
    31    20    21    1
    32    21    16    1
    33     6     1   ar
    34    13     8    1
    35     9     4   ar
    36    32    26   ar
@<TRIPOS>MOLECULE
*****
 32 36 0 0 0
SMALL
GASTEIGER

@<TRIPOS>ATOM
      1 C           0.5254    1.1556   21.4330 C.ar    1  UNL1        0.1385
      2 C           0.3571    0.0570   20.4257 C.ar    1  UNL1        0.0384
      3 C           1.4454   -0.9571   20.2331 C.ar    1  UNL1        0.0203
      4 C           2.7020   -0.8727   21.0479 C.ar    1  UNL1        0.0602
      5 C           2.8703    0.2259   22.0553 C.ar    1  UNL1        0.0204
      6 C           1.7820    1.2400   22.2478 C.ar    1  UNL1        0.0384
      7 C           4.2098    0.0549   22.7082 C.ar    1  UNL1        0.0234
      8 C           4.8695   -1.1494   22.1044 C.ar    1  UNL1        0.1143
      9 N           3.9376   -1.7227   21.0783 N.ar    1  UNL1       -0.3219
     10 C           4.3345   -2.9446   20.3042 C.3     1  UNL1        0.1276
     11 C           5.6633   -3.5933   20.5562 C.3     1  UNL1        0.1185
     12 N           6.5952   -3.0200   21.5823 N.am    1  UNL1       -0.2688
     13 C           6.1982   -1.7980   22.3564 C.2     1  UNL1        0.2652
     14 O           7.1302   -1.2247   23.3826 O.2     1  UNL1       -0.2683
     15 O          -0.5629    2.1698   21.6256 O.3     1  UNL1       -0.4791
     16 N          -2.4022    4.2016   18.0564 N.3     1  UNL1       -0.2737
     17 C          -3.2546    3.8444   19.2379 C.3     1  UNL1        0.0758
     18 C          -2.6415    3.1672   20.4277 C.3     1  UNL1        0.0609
     19 C          -1.1760    2.8470   20.4359 C.3     1  UNL1        0.1687
     20 C          -0.3237    3.2042   19.2543 C.3     1  UNL1        0.0609
     21 C          -0.9368    3.8815   18.0646 C.3     1  UNL1        0.0758
     22 C          -4.4701    4.6820   16.5588 C.3     1  UNL1        0.0173
     23 C          -3.0153    4.8788   16.8667 C.3     1  UNL1        0.0576
     24 C          -2.1736    5.7530   15.9849 C.3     1  UNL1        0.0173
     25 C           7.9240   -3.6686   21.8343 C.3     1  UNL1        0.1205
     26 C           8.0243   -4.8315   22.7765 C.ar    1  UNL1       -0.0022
     27 C           7.3747   -4.7611   24.1266 C.ar    1  UNL1       -0.0003
     28 C           7.4749   -5.9240   25.0688 C.ar    1  UNL1        0.0294
     29 C           8.2248   -7.1573   24.6607 C.ar    1  UNL1        0.1401
     30 F           8.3251   -8.3202   25.6029 F       1  UNL1       -0.2042
     31 C           8.8745   -7.2277   23.3105 C.ar    1  UNL1        0.0294
     32 C           8.7742   -6.0648   22.3684 C.ar    1  UNL1       -0.0003
@<TRIPOS>BOND
     1    22    23    1
     2    23    24    1
     3    23    16    1
     4    16    17    1
     5    17    18    1
     6    18    19    1
     7    19    15    1
     8    15     1    1
     9     1     2   ar
    10     2     3   ar
    11     3     4   ar
    12     4     5   ar
    13     5     6   ar
    14     5     7   ar
    15     7     8   ar
    16     8     9   ar
    17     9    10    1
    18    10    11    1
    19    11    12    1
    20    12    25    1
    21    25    26    1
    22    26    27   ar
    23    27    28   ar
    24    28    29   ar
    25    29    30    1
    26    29    31   ar
    27    31    32   ar
    28    12    13   am
    29    13    14    2
    30    19    20    1
    31    20    21    1
    32    21    16    1
    33     6     1   ar
    34    13     8    1
    35     9     4   ar
    36    32    26   ar
@<TRIPOS>MOLECULE
*****
 32 36 0 0 0
SMALL
GASTEIGER

@<TRIPOS>ATOM
      1 C           6.4340   -2.4693   29.0862 C.ar    1  UNL1        0.1385
      2 C           5.4374   -1.3512   29.0057 C.ar    1  UNL1        0.0384
      3 C           4.7800   -1.0253   27.6975 C.ar    1  UNL1        0.0203
      4 C           5.1192   -1.8174   26.4697 C.ar    1  UNL1        0.0602
      5 C           6.1158   -2.9356   26.5502 C.ar    1  UNL1        0.0204
      6 C           6.7732   -3.2615   27.8584 C.ar    1  UNL1        0.0384
      7 C           6.2490   -3.5370   25.1825 C.ar    1  UNL1        0.0234
      8 C           5.3347   -2.7906   24.2568 C.ar    1  UNL1        0.1143
      9 N           4.6364   -1.7279   25.0523 N.ar    1  UNL1       -0.3219
     10 C           3.6513   -0.8159   24.3833 C.3     1  UNL1        0.1276
     11 C           3.3644   -0.9667   22.9187 C.3     1  UNL1        0.1185
     12 N           4.0627   -2.0295   22.1232 N.am    1  UNL1       -0.2688
     13 C           5.0479   -2.9415   22.7923 C.2     1  UNL1        0.2652
     14 O           5.7462   -4.0043   21.9967 O.2     1  UNL1       -0.2683
     15 O           7.0915   -2.7953   30.3945 O.3     1  UNL1       -0.4791
     16 N           5.8024   -0.6776   34.1499 N.3     1  UNL1       -0.2737
     17 C           6.9960   -0.1879   33.3848 C.3     1  UNL1        0.0758
     18 C           7.4258   -0.8938   32.1330 C.3     1  UNL1        0.0609
     19 C           6.6618   -2.0894   31.6462 C.3     1  UNL1        0.1687
     20 C           5.4681   -2.5791   32.4114 C.3     1  UNL1        0.0609
     21 C           5.0384   -1.8732   33.6631 C.3     1  UNL1        0.0758
     22 C           6.1361   -0.1745   36.6768 C.3     1  UNL1        0.0173
     23 C           5.3727    0.0283   35.4016 C.3     1  UNL1        0.0576
     24 C           4.1796    0.9372   35.3783 C.3     1  UNL1        0.0173
     25 C           3.7758   -2.1803   20.6586 C.3     1  UNL1        0.1205
     26 C           2.9462   -1.1528   19.9472 C.ar    1  UNL1       -0.0022
     27 C           1.5300   -0.9052   20.3749 C.ar    1  UNL1       -0.0003
     28 C           0.7004    0.1223   19.6635 C.ar    1  UNL1        0.0294
     29 C           1.2871    0.9021   18.5243 C.ar    1  UNL1        0.1401
     30 F           0.4575    1.9295   17.8129 F       1  UNL1       -0.2042
     31 C           2.7033    0.6544   18.0966 C.ar    1  UNL1        0.0294
     32 C           3.5329   -0.3731   18.8080 C.ar    1  UNL1       -0.0003
@<TRIPOS>BOND
     1    22    23    1
     2    23    24    1
     3    23    16    1
     4    16    17    1
     5    17    18    1
     6    18    19    1
     7    19    15    1
     8    15     1    1
     9     1     2   ar
    10     2     3   ar
    11     3     4   ar
    12     4     5   ar
    13     5     6   ar
    14     5     7   ar
    15     7     8   ar
    16     8     9   ar
    17     9    10    1
    18    10    11    1
    19    11    12    1
    20    12    25    1
    21    25    26    1
    22    26    27   ar
    23    27    28   ar
    24    28    29   ar
    25    29    30    1
    26    29    31   ar
    27    31    32   ar
    28    12    13   am
    29    13    14    2
    30    19    20    1
    31    20    21    1
    32    21    16    1
    33     6     1   ar
    34    13     8    1
    35     9     4   ar
    36    32    26   ar
@<TRIPOS>MOLECULE
*****
 32 36 0 0 0
SMALL
GASTEIGER

@<TRIPOS>ATOM
      1 C           1.2362    1.5718   23.5462 C.ar    1  UNL1        0.1385
      2 C           2.4241    2.4391   23.8405 C.ar    1  UNL1        0.0384
      3 C           2.7487    2.8110   25.2569 C.ar    1  UNL1        0.0203
      4 C           1.8854    2.3156   26.3790 C.ar    1  UNL1        0.0602
      5 C           0.6975    1.4483   26.0848 C.ar    1  UNL1        0.0204
      6 C           0.3729    1.0764   24.6684 C.ar    1  UNL1        0.0384
      7 C           0.0346    1.1125   27.3878 C.ar    1  UNL1        0.0234
      8 C           0.8128    1.7724   28.4874 C.ar    1  UNL1        0.1143
      9 N           1.9567    2.5159   27.8640 N.ar    1  UNL1       -0.3219
     10 C           2.9153    3.2793   28.7289 C.3     1  UNL1        0.1276
     11 C           2.7302    3.2991   30.2173 C.3     1  UNL1        0.1185
     12 N           1.5864    2.5555   30.8407 N.am    1  UNL1       -0.2688
     13 C           0.6277    1.7921   29.9757 C.2     1  UNL1        0.2652
     14 O          -0.5162    1.0485   30.5992 O.2     1  UNL1       -0.2683
     15 O           0.9116    1.1998   22.1298 O.3     1  UNL1       -0.4791
     16 N           3.2503   -2.0413   20.0621 N.3     1  UNL1       -0.2737
     17 C           3.5605   -1.6844   21.4856 C.3     1  UNL1        0.0758
     18 C           2.7809   -0.6040   22.1748 C.3     1  UNL1        0.0609
     19 C           1.6912    0.1194   21.4406 C.3     1  UNL1        0.1687
     20 C           1.3810   -0.2376   20.0170 C.3     1  UNL1        0.0609
     21 C           2.1606   -1.3179   19.3278 C.3     1  UNL1        0.0758
     22 C           5.2867   -2.7811   18.6283 C.3     1  UNL1        0.0173
     23 C           4.0299   -3.1217   19.3729 C.3     1  UNL1        0.0576
     24 C           3.5527   -4.5427   19.4283 C.3     1  UNL1        0.0173
     25 C           1.4012    2.5753   32.3292 C.3     1  UNL1        0.1205
     26 C           2.3785    1.8623   33.2160 C.ar    1  UNL1       -0.0022
     27 C           3.0907    0.6401   32.7172 C.ar    1  UNL1       -0.0003
     28 C           4.0680   -0.0729   33.6041 C.ar    1  UNL1        0.0294
     29 C           4.3331    0.4364   34.9898 C.ar    1  UNL1        0.1401
     30 F           5.3104   -0.2766   35.8767 F       1  UNL1       -0.2042
     31 C           3.6208    1.6586   35.4886 C.ar    1  UNL1        0.0294
     32 C           2.6435    2.3716   34.6018 C.ar    1  UNL1       -0.0003
@<TRIPOS>BOND
     1    22    23    1
     2    23    24    1
     3    23    16    1
     4    16    17    1
     5    17    18    1
     6    18    19    1
     7    19    15    1
     8    15     1    1
     9     1     2   ar
    10     2     3   ar
    11     3     4   ar
    12     4     5   ar
    13     5     6   ar
    14     5     7   ar
    15     7     8   ar
    16     8     9   ar
    17     9    10    1
    18    10    11    1
    19    11    12    1
    20    12    25    1
    21    25    26    1
    22    26    27   ar
    23    27    28   ar
    24    28    29   ar
    25    29    30    1
    26    29    31   ar
    27    31    32   ar
    28    12    13   am
    29    13    14    2
    30    19    20    1
    31    20    21    1
    32    21    16    1
    33     6     1   ar
    34    13     8    1
    35     9     4   ar
    36    32    26   ar
@<TRIPOS>MOLECULE
*****
 32 36 0 0 0
SMALL
GASTEIGER

@<TRIPOS>ATOM
      1 C           8.0025   -4.5715   23.0311 C.ar    1  UNL1        0.1385
      2 C           7.9661   -5.9393   23.6456 C.ar    1  UNL1        0.0384
      3 C           8.0595   -6.0953   25.1345 C.ar    1  UNL1        0.0203
      4 C           8.1893   -4.8834   26.0089 C.ar    1  UNL1        0.0602
      5 C           8.2257   -3.5156   25.3944 C.ar    1  UNL1        0.0204
      6 C           8.1323   -3.3597   23.9055 C.ar    1  UNL1        0.0384
      7 C           8.3596   -2.5132   26.5022 C.ar    1  UNL1        0.0234
      8 C           8.4059   -3.2615   27.8014 C.ar    1  UNL1        0.1143
      9 N           8.3006   -4.7264   27.4966 N.ar    1  UNL1       -0.3219
     10 C           8.3198   -5.7280   28.6129 C.3     1  UNL1        0.1276
     11 C           8.4442   -5.2647   30.0341 C.3     1  UNL1        0.1185
     12 N           8.5494   -3.7998   30.3390 N.am    1  UNL1       -0.2688
     13 C           8.5303   -2.7981   29.2225 C.2     1  UNL1        0.2652
     14 O           8.6355   -1.3331   29.5274 O.2     1  UNL1       -0.2683
     15 O           7.9091   -4.4155   21.5421 O.3     1  UNL1       -0.4791
     16 N           4.5630   -2.0076   19.7376 N.3     1  UNL1       -0.2737
     17 C           5.9416   -1.9332   19.1510 C.3     1  UNL1        0.0758
     18 C           7.0570   -2.7358   19.7525 C.3     1  UNL1        0.0609
     19 C           6.7938   -3.6129   20.9406 C.3     1  UNL1        0.1687
     20 C           5.4152   -3.6873   21.5272 C.3     1  UNL1        0.0609
     21 C           4.2998   -2.8847   20.9257 C.3     1  UNL1        0.0758
     22 C           2.1949   -0.9551   19.9223 C.3     1  UNL1        0.0173
     23 C           3.4477   -1.2050   19.1361 C.3     1  UNL1        0.0576
     24 C           3.5852   -0.6523   17.7484 C.3     1  UNL1        0.0173
     25 C           8.6738   -3.3364   31.7602 C.3     1  UNL1        0.1205
     26 C           7.5148   -2.6632   32.4337 C.ar    1  UNL1       -0.0022
     27 C           7.7188   -1.3656   33.1581 C.ar    1  UNL1       -0.0003
     28 C           6.5599   -0.6924   33.8316 C.ar    1  UNL1        0.0294
     29 C           5.1970   -1.3168   33.7807 C.ar    1  UNL1        0.1401
     30 F           4.0380   -0.6435   34.4542 F       1  UNL1       -0.2042
     31 C           4.9930   -2.6143   33.0564 C.ar    1  UNL1        0.0294
     32 C           6.1520   -3.2876   32.3829 C.ar    1  UNL1       -0.0003
@<TRIPOS>BOND
     1    22    23    1
     2    23    24    1
     3    23    16    1
     4    16    17    1
     5    17    18    1
     6    18    19    1
     7    19    15    1
     8    15     1    1
     9     1     2   ar
    10     2     3   ar
    11     3     4   ar
    12     4     5   ar
    13     5     6   ar
    14     5     7   ar
    15     7     8   ar
    16     8     9   ar
    17     9    10    1
    18    10    11    1
    19    11    12    1
    20    12    25    1
    21    25    26    1
    22    26    27   ar
    23    27    28   ar
    24    28    29   ar
    25    29    30    1
    26    29    31   ar
    27    31    32   ar
    28    12    13   am
    29    13    14    2
    30    19    20    1
    31    20    21    1
    32    21    16    1
    33     6     1   ar
    34    13     8    1
    35     9     4   ar
    36    32    26   ar
