@<TRIPOS>MOLECULE
*****
 43 45 0 0 0
SMALL
GASTEIGER

@<TRIPOS>ATOM
      1 C           0.7256    3.0708   19.0730 C.ar    1  UNL1        0.0539
      2 S          -0.4280    3.2374   18.1289 S.2     1  UNL1       -0.0619
      3 C          -1.2272    4.4246   18.5783 C.ar    1  UNL1        0.1641
      4 N          -0.5674    4.9917   19.8002 N.ar    1  UNL1       -0.2291
      5 C           0.6394    4.1550   20.1060 C.ar    1  UNL1        0.1414
      6 C           1.5927    4.3656   21.2448 C.2     1  UNL1        0.2673
      7 O           2.8412    5.1712   21.0386 O.2     1  UNL1       -0.2682
      8 N           1.2976    3.7707   22.5897 N.am    1  UNL1       -0.2747
      9 C           2.2509    3.9813   23.7285 C.3     1  UNL1        0.0966
     10 C           1.9558    3.3864   25.0735 C.3     1  UNL1        0.0568
     11 C           0.7074    2.5809   25.2797 C.3     1  UNL1        0.1644
     12 F           0.4122    1.9859   26.6247 F       1  UNL1       -0.2372
     13 C          -0.2460    2.3702   24.1409 C.3     1  UNL1        0.0568
     14 C           0.0491    2.9651   22.7960 C.3     1  UNL1        0.0966
     15 C           3.8893   -0.1213   18.8465 C.ar    1  UNL1        0.1333
     16 C           4.1468    1.2331   18.2557 C.ar    1  UNL1        0.0208
     17 C           3.0922    2.2971   18.3312 C.ar    1  UNL1        0.0028
     18 C           1.7801    2.0067   18.9975 C.ar    1  UNL1        0.0191
     19 C           1.5226    0.6523   19.5883 C.ar    1  UNL1        0.0700
     20 CL          0.2105    0.3618   20.2547 Cl      1  UNL1       -0.0813
     21 C           2.5772   -0.4118   19.5128 C.ar    1  UNL1        0.0867
     22 CL          2.3196   -1.7663   20.1037 Cl      1  UNL1       -0.0800
     23 S           4.9439   -1.1854   18.7710 S.O2    1  UNL1        0.0613
     24 O           4.4638   -1.5640   17.4013 O.2     1  UNL1       -0.1530
     25 O           5.4240   -0.8067   20.1408 O.2     1  UNL1       -0.1530
     26 N           5.9984   -2.2494   18.6955 N.3     1  UNL1       -0.1723
     27 H           5.9849   -2.6102   17.7416 H       1  UNL1        0.1491
     28 C           7.1035   -3.7796   20.4809 C.3     1  UNL1        0.0278
     29 C           5.9319   -3.4374   19.6088 C.3     1  UNL1        0.1701
     30 C           4.6939   -4.2833   19.6501 C.3     1  UNL1        0.4118
     31 F           3.4559   -5.1292   19.6914 F       1  UNL1       -0.1685
     32 F           4.8859   -4.6349   18.2046 F       1  UNL1       -0.1685
     33 F           4.5020   -3.9318   21.0957 F       1  UNL1       -0.1685
     34 C          -2.4681    4.9520   17.9211 C.2     1  UNL1        0.2699
     35 O          -2.3921    6.1603   17.0354 O.2     1  UNL1       -0.2679
     36 N          -3.7850    4.2712   18.1496 N.am    1  UNL1       -0.2969
     37 H          -3.8349    3.4782   18.7309 H       1  UNL1        0.1499
     38 C          -5.0259    4.7987   17.4924 C.3     1  UNL1        0.1166
     39 C          -6.3712    4.5134   18.0919 C.3     1  UNL1        0.1064
     40 C          -5.8097    3.3018   18.7751 C.3     1  UNL1        0.0311
     41 C          -6.9325    5.7251   17.4085 C.3     1  UNL1        0.0311
     42 O          -7.7163    4.2283   18.6912 O.3     1  UNL1       -0.3851
     43 H          -7.6640    3.4281   19.2370 H       1  UNL1        0.2103
@<TRIPOS>BOND
     1    29    28    1
     2    29    26    1
     3    26    23    1
     4    23    24    2
     5    23    25    2
     6    23    15    1
     7    15    16   ar
     8    16    17   ar
     9    17    18   ar
    10    18     1    1
    11     1     2   ar
    12     2     3   ar
    13     3    34    1
    14    34    35    2
    15    34    36   am
    16    36    38    1
    17    38    39    1
    18    39    40    1
    19    39    41    1
    20    39    42    1
    21     3     4   ar
    22     4     5   ar
    23     5     6    1
    24     6     7    2
    25     6     8   am
    26     8     9    1
    27     9    10    1
    28    10    11    1
    29    11    12    1
    30    11    13    1
    31    13    14    1
    32    18    19   ar
    33    19    20    1
    34    19    21   ar
    35    21    22    1
    36    29    30    1
    37    30    31    1
    38    30    32    1
    39    30    33    1
    40    21    15   ar
    41     5     1   ar
    42    14     8    1
    43    26    27    1
    44    36    37    1
    45    42    43    1
@<TRIPOS>MOLECULE
*****
 43 45 0 0 0
SMALL
GASTEIGER

@<TRIPOS>ATOM
      1 C           0.1476    2.5312   21.8476 C.ar    1  UNL1        0.0539
      2 S          -1.1293    2.9192   21.1629 S.2     1  UNL1       -0.0619
      3 C          -1.8687    3.8650   22.0623 C.ar    1  UNL1        0.1641
      4 N          -1.0488    4.0614   23.3028 N.ar    1  UNL1       -0.2291
      5 C           0.1974    3.2371   23.1701 C.ar    1  UNL1        0.1414
      6 C           1.2998    3.1364   24.1824 C.2     1  UNL1        0.2673
      7 O           2.6455    3.7298   23.8872 O.2     1  UNL1       -0.2682
      8 N           1.0566    2.4423   25.4896 N.am    1  UNL1       -0.2747
      9 C           2.1590    2.3416   26.5018 C.3     1  UNL1        0.0966
     10 C           1.9158    1.6475   27.8091 C.3     1  UNL1        0.0568
     11 C           0.5702    1.0541   28.1043 C.3     1  UNL1        0.1644
     12 F           0.3270    0.3599   29.4116 F       1  UNL1       -0.2372
     13 C          -0.5323    1.1547   27.0921 C.3     1  UNL1        0.0568
     14 C          -0.2890    1.8488   25.7848 C.3     1  UNL1        0.0966
     15 C           3.2791   -0.2606   20.2198 C.ar    1  UNL1        0.1333
     16 C           2.0706   -0.8130   20.9156 C.ar    1  UNL1        0.0208
     17 C           1.0267    0.1176   21.4582 C.ar    1  UNL1        0.0028
     18 C           1.1914    1.6006   21.3050 C.ar    1  UNL1        0.0191
     19 C           2.4000    2.1530   20.6092 C.ar    1  UNL1        0.0700
     20 CL          2.5648    3.6361   20.4560 Cl      1  UNL1       -0.0813
     21 C           3.4439    1.2225   20.0666 C.ar    1  UNL1        0.0867
     22 CL          4.6525    1.7750   19.3708 Cl      1  UNL1       -0.0800
     23 S           4.3230   -1.1911   19.6772 S.O2    1  UNL1        0.0613
     24 O           5.0653   -1.1172   20.9786 O.2     1  UNL1       -0.1530
     25 O           3.5807   -1.2650   18.3759 O.2     1  UNL1       -0.1530
     26 N           5.3668   -2.1217   19.1346 N.3     1  UNL1       -0.1723
     27 H           5.1543   -2.2585   18.1464 H       1  UNL1        0.1491
     28 C           6.8491   -3.8724   20.3545 C.3     1  UNL1        0.0278
     29 C           5.5394   -3.4861   19.7334 C.3     1  UNL1        0.1701
     30 C           4.4025   -4.4643   19.7110 C.3     1  UNL1        0.4118
     31 F           3.2655   -5.4425   19.6886 F       1  UNL1       -0.1685
     32 F           4.1873   -4.2477   21.1796 F       1  UNL1       -0.1685
     33 F           4.6177   -4.6809   18.2424 F       1  UNL1       -0.1685
     34 C          -3.1952    4.5023   21.7720 C.2     1  UNL1        0.2699
     35 O          -3.5716    4.8412   20.3601 O.2     1  UNL1       -0.2679
     36 N          -4.1453    4.8009   22.8937 N.am    1  UNL1       -0.2969
     37 H          -3.8982    4.5785   23.8204 H       1  UNL1        0.1499
     38 C          -5.4717    5.4383   22.6034 C.3     1  UNL1        0.1166
     39 C          -6.7363    4.6499   22.7756 C.3     1  UNL1        0.1064
     40 C          -6.9719    4.7046   21.2952 C.3     1  UNL1        0.0311
     41 C          -6.5006    4.5952   24.2560 C.3     1  UNL1        0.0311
     42 O          -8.0008    3.8616   22.9478 O.3     1  UNL1       -0.3851
     43 H          -8.4170    3.7250   22.0824 H       1  UNL1        0.2103
@<TRIPOS>BOND
     1    29    28    1
     2    29    26    1
     3    26    23    1
     4    23    24    2
     5    23    25    2
     6    23    15    1
     7    15    16   ar
     8    16    17   ar
     9    17    18   ar
    10    18     1    1
    11     1     2   ar
    12     2     3   ar
    13     3    34    1
    14    34    35    2
    15    34    36   am
    16    36    38    1
    17    38    39    1
    18    39    40    1
    19    39    41    1
    20    39    42    1
    21     3     4   ar
    22     4     5   ar
    23     5     6    1
    24     6     7    2
    25     6     8   am
    26     8     9    1
    27     9    10    1
    28    10    11    1
    29    11    12    1
    30    11    13    1
    31    13    14    1
    32    18    19   ar
    33    19    20    1
    34    19    21   ar
    35    21    22    1
    36    29    30    1
    37    30    31    1
    38    30    32    1
    39    30    33    1
    40    21    15   ar
    41     5     1   ar
    42    14     8    1
    43    26    27    1
    44    36    37    1
    45    42    43    1
@<TRIPOS>MOLECULE
*****
 43 45 0 0 0
SMALL
GASTEIGER

@<TRIPOS>ATOM
      1 C           2.5938    0.8338   21.9498 C.ar    1  UNL1        0.0539
      2 S           1.2526    1.4514   22.2139 S.2     1  UNL1       -0.0619
      3 C           0.7386    2.0136   20.9218 C.ar    1  UNL1        0.1641
      4 N           1.7621    1.7435   19.8590 N.ar    1  UNL1       -0.2291
      5 C           2.9087    1.0143   20.4944 C.ar    1  UNL1        0.1414
      6 C           4.1519    0.5476   19.7968 C.2     1  UNL1        0.2673
      7 O           5.2470    1.5235   19.4827 O.2     1  UNL1       -0.2682
      8 N           4.3001   -0.8949   19.4132 N.am    1  UNL1       -0.2747
      9 C           5.5433   -1.3616   18.7156 C.3     1  UNL1        0.0966
     10 C           5.6914   -2.8041   18.3320 C.3     1  UNL1        0.0568
     11 C           4.5964   -3.7800   18.6460 C.3     1  UNL1        0.1644
     12 F           4.7446   -5.2225   18.2625 F       1  UNL1       -0.2372
     13 C           3.3532   -3.3134   19.3437 C.3     1  UNL1        0.0568
     14 C           3.2050   -1.8708   19.7272 C.3     1  UNL1        0.0966
     15 C           5.2129   -1.2029   24.9899 C.ar    1  UNL1        0.1333
     16 C           4.3718   -2.0216   24.0560 C.ar    1  UNL1        0.0208
     17 C           3.4987   -1.3426   23.0426 C.ar    1  UNL1        0.0028
     18 C           3.4668    0.1549   22.9632 C.ar    1  UNL1        0.0191
     19 C           4.3080    0.9735   23.8971 C.ar    1  UNL1        0.0700
     20 CL          4.2761    2.4711   23.8178 Cl      1  UNL1       -0.0813
     21 C           5.1810    0.2946   24.9105 C.ar    1  UNL1        0.0867
     22 CL          6.0222    1.1133   25.8445 Cl      1  UNL1       -0.0800
     23 S           6.0859   -1.8818   26.0033 S.O2    1  UNL1        0.0613
     24 O           7.2315   -1.8533   25.0355 O.2     1  UNL1       -0.1530
     25 O           4.9403   -1.9104   26.9711 O.2     1  UNL1       -0.1530
     26 N           6.9589   -2.5608   27.0167 N.3     1  UNL1       -0.1723
     27 H           7.9236   -2.4143   26.7195 H       1  UNL1        0.1491
     28 C           6.8306   -5.0003   26.1323 C.3     1  UNL1        0.0278
     29 C           6.8040   -4.0300   27.2760 C.3     1  UNL1        0.1701
     30 C           6.6226   -4.5290   28.6789 C.3     1  UNL1        0.4118
     31 F           6.4411   -5.0280   30.0817 F       1  UNL1       -0.1685
     32 F           7.5845   -3.4895   29.1730 F       1  UNL1       -0.1685
     33 F           5.6607   -5.5685   28.1847 F       1  UNL1       -0.1685
     34 C          -0.5693    2.7216   20.7266 C.2     1  UNL1        0.2699
     35 O          -0.9619    3.2098   19.3637 O.2     1  UNL1       -0.2679
     36 N          -1.4846    2.9415   21.8945 N.am    1  UNL1       -0.2969
     37 H          -1.2269    2.6212   22.7890 H       1  UNL1        0.1499
     38 C          -2.7925    3.6496   21.6993 C.3     1  UNL1        0.1166
     39 C          -3.9704    3.2998   22.5599 C.3     1  UNL1        0.1064
     40 C          -4.7820    3.0117   21.3318 C.3     1  UNL1        0.0311
     41 C          -3.1586    3.5880   23.7880 C.3     1  UNL1        0.0311
     42 O          -5.1481    2.9501   23.4205 O.3     1  UNL1       -0.3851
     43 H          -5.8969    2.6990   22.8573 H       1  UNL1        0.2103
@<TRIPOS>BOND
     1    29    28    1
     2    29    26    1
     3    26    23    1
     4    23    24    2
     5    23    25    2
     6    23    15    1
     7    15    16   ar
     8    16    17   ar
     9    17    18   ar
    10    18     1    1
    11     1     2   ar
    12     2     3   ar
    13     3    34    1
    14    34    35    2
    15    34    36   am
    16    36    38    1
    17    38    39    1
    18    39    40    1
    19    39    41    1
    20    39    42    1
    21     3     4   ar
    22     4     5   ar
    23     5     6    1
    24     6     7    2
    25     6     8   am
    26     8     9    1
    27     9    10    1
    28    10    11    1
    29    11    12    1
    30    11    13    1
    31    13    14    1
    32    18    19   ar
    33    19    20    1
    34    19    21   ar
    35    21    22    1
    36    29    30    1
    37    30    31    1
    38    30    32    1
    39    30    33    1
    40    21    15   ar
    41     5     1   ar
    42    14     8    1
    43    26    27    1
    44    36    37    1
    45    42    43    1
@<TRIPOS>MOLECULE
*****
 43 45 0 0 0
SMALL
GASTEIGER

@<TRIPOS>ATOM
      1 C           3.2329   -0.2311   19.7075 C.ar    1  UNL1        0.0539
      2 S           2.0426    0.2952   20.4533 S.2     1  UNL1       -0.0619
      3 C           1.3501    1.2947   19.5751 C.ar    1  UNL1        0.1641
      4 N           2.1124    1.3862   18.2864 N.ar    1  UNL1       -0.2291
      5 C           3.2760    0.4432   18.3683 C.ar    1  UNL1        0.1414
      6 C           4.3025    0.2146   17.2987 C.2     1  UNL1        0.2673
      7 O           4.1123   -0.8886   16.3001 O.2     1  UNL1       -0.2682
      8 N           5.5191    1.0890   17.2276 N.am    1  UNL1       -0.2747
      9 C           6.5456    0.8604   16.1580 C.3     1  UNL1        0.0966
     10 C           7.7623    1.7348   16.0869 C.3     1  UNL1        0.0568
     11 C           7.9525    2.8379   17.0854 C.3     1  UNL1        0.1644
     12 F           9.1691    3.7124   17.0143 F       1  UNL1       -0.2372
     13 C           6.9260    3.0666   18.1550 C.3     1  UNL1        0.0568
     14 C           5.7093    2.1921   18.2261 C.3     1  UNL1        0.0966
     15 C           6.1603   -3.2950   21.2218 C.ar    1  UNL1        0.1333
     16 C           5.0311   -3.7142   20.3279 C.ar    1  UNL1        0.0208
     17 C           4.0552   -2.6929   19.8232 C.ar    1  UNL1        0.0028
     18 C           4.2087   -1.2524   20.2123 C.ar    1  UNL1        0.0191
     19 C           5.3380   -0.8332   21.1061 C.ar    1  UNL1        0.0700
     20 CL          5.4915    0.6073   21.4952 Cl      1  UNL1       -0.0813
     21 C           6.3138   -1.8545   21.6109 C.ar    1  UNL1        0.0867
     22 CL          7.4431   -1.4352   22.5047 Cl      1  UNL1       -0.0800
     23 S           7.1361   -4.3162   21.7265 S.O2    1  UNL1        0.0613
     24 O           6.2055   -4.6477   22.8552 O.2     1  UNL1       -0.1530
     25 O           8.0668   -3.9848   20.5978 O.2     1  UNL1       -0.1530
     26 N           8.1120   -5.3375   22.2313 N.3     1  UNL1       -0.1723
     27 H           7.7758   -6.2473   21.9155 H       1  UNL1        0.1491
     28 C           8.9960   -4.3181   24.4515 C.3     1  UNL1        0.0278
     29 C           8.3753   -5.4602   23.7028 C.3     1  UNL1        0.1701
     30 C           8.0179   -6.7249   24.4259 C.3     1  UNL1        0.4118
     31 F           7.6604   -7.9896   25.1489 F       1  UNL1       -0.1685
     32 F           8.5164   -7.5306   23.2630 F       1  UNL1       -0.1685
     33 F           7.5193   -5.9192   25.5888 F       1  UNL1       -0.1685
     34 C           0.1126    2.0672   19.9242 C.2     1  UNL1        0.2699
     35 O          -0.6625    1.7228   21.1614 O.2     1  UNL1       -0.2679
     36 N          -0.3498    3.1841   19.0361 N.am    1  UNL1       -0.2969
     37 H           0.1589    3.4102   18.2241 H       1  UNL1        0.1499
     38 C          -1.5873    3.9566   19.3852 C.3     1  UNL1        0.1166
     39 C          -2.7744    3.9254   18.4686 C.3     1  UNL1        0.1064
     40 C          -1.8639    4.0647   17.2847 C.3     1  UNL1        0.0311
     41 C          -3.6849    3.7861   19.6526 C.3     1  UNL1        0.0311
     42 O          -3.9614    3.8942   17.5521 O.3     1  UNL1       -0.3851
     43 H          -3.6622    3.9724   16.6328 H       1  UNL1        0.2103
@<TRIPOS>BOND
     1    29    28    1
     2    29    26    1
     3    26    23    1
     4    23    24    2
     5    23    25    2
     6    23    15    1
     7    15    16   ar
     8    16    17   ar
     9    17    18   ar
    10    18     1    1
    11     1     2   ar
    12     2     3   ar
    13     3    34    1
    14    34    35    2
    15    34    36   am
    16    36    38    1
    17    38    39    1
    18    39    40    1
    19    39    41    1
    20    39    42    1
    21     3     4   ar
    22     4     5   ar
    23     5     6    1
    24     6     7    2
    25     6     8   am
    26     8     9    1
    27     9    10    1
    28    10    11    1
    29    11    12    1
    30    11    13    1
    31    13    14    1
    32    18    19   ar
    33    19    20    1
    34    19    21   ar
    35    21    22    1
    36    29    30    1
    37    30    31    1
    38    30    32    1
    39    30    33    1
    40    21    15   ar
    41     5     1   ar
    42    14     8    1
    43    26    27    1
    44    36    37    1
    45    42    43    1
@<TRIPOS>MOLECULE
*****
 43 45 0 0 0
SMALL
GASTEIGER

@<TRIPOS>ATOM
      1 C           5.0549   -1.9889   20.6599 C.ar    1  UNL1        0.0539
      2 S           5.4780   -2.8897   21.7821 S.2     1  UNL1       -0.0619
      3 C           6.7497   -3.5726   21.3742 C.ar    1  UNL1        0.1641
      4 N           7.1126   -3.0938   19.9997 N.ar    1  UNL1       -0.2291
      5 C           6.0651   -2.1151   19.5583 C.ar    1  UNL1        0.1414
      6 C           6.0335   -1.3898   18.2456 C.2     1  UNL1        0.2673
      7 O           5.1264   -1.8634   17.1488 O.2     1  UNL1       -0.2682
      8 N           6.9088   -0.1911   18.0298 N.am    1  UNL1       -0.2747
      9 C           6.8772    0.5342   16.7171 C.3     1  UNL1        0.0966
     10 C           7.7525    1.7330   16.5013 C.3     1  UNL1        0.0568
     11 C           8.6596    2.2066   17.5980 C.3     1  UNL1        0.1644
     12 F           9.5350    3.4053   17.3822 F       1  UNL1       -0.2372
     13 C           8.6913    1.4814   18.9107 C.3     1  UNL1        0.0568
     14 C           7.8159    0.2826   19.1266 C.3     1  UNL1        0.0966
     15 C           1.3971    0.6317   20.6070 C.ar    1  UNL1        0.1333
     16 C           1.3165   -0.7787   20.1029 C.ar    1  UNL1        0.0208
     17 C           2.5358   -1.6523   20.1205 C.ar    1  UNL1        0.0028
     18 C           3.8356   -1.1154   20.6422 C.ar    1  UNL1        0.0191
     19 C           3.9161    0.2951   21.1463 C.ar    1  UNL1        0.0700
     20 CL          5.2160    0.8320   21.6680 Cl      1  UNL1       -0.0813
     21 C           2.6969    1.1686   21.1287 C.ar    1  UNL1        0.0867
     22 CL          2.7775    2.5791   21.6328 Cl      1  UNL1       -0.0800
     23 S           0.1778    1.5052   20.5894 S.O2    1  UNL1        0.0613
     24 O           0.5293    1.9679   19.2065 O.2     1  UNL1       -0.1530
     25 O          -0.1737    1.0426   21.9723 O.2     1  UNL1       -0.1530
     26 N          -1.0415    2.3788   20.5718 N.3     1  UNL1       -0.1723
     27 H          -1.1308    2.7406   19.6223 H       1  UNL1        0.1491
     28 C          -0.1044    4.6472   21.4240 C.3     1  UNL1        0.0278
     29 C          -1.1329    3.5576   21.4948 C.3     1  UNL1        0.1701
     30 C          -2.2529    3.6469   22.4886 C.3     1  UNL1        0.4118
     31 F          -3.3729    3.7361   23.4824 F       1  UNL1       -0.1685
     32 F          -3.2440    3.7204   21.3651 F       1  UNL1       -0.1685
     33 F          -1.2618    3.5733   23.6121 F       1  UNL1       -0.1685
     34 C           7.5228   -4.5607   22.1964 C.2     1  UNL1        0.2699
     35 O           8.3752   -5.5941   21.5213 O.2     1  UNL1       -0.2679
     36 N           7.4436   -4.5154   23.6936 N.am    1  UNL1       -0.2969
     37 H           6.8842   -3.8371   24.1366 H       1  UNL1        0.1499
     38 C           8.2167   -5.5035   24.5157 C.3     1  UNL1        0.1166
     39 C           7.5057   -6.3657   25.5164 C.3     1  UNL1        0.1064
     40 C           8.0984   -7.5895   24.8830 C.3     1  UNL1        0.0311
     41 C           6.9130   -5.1418   26.1497 C.3     1  UNL1        0.0311
     42 O           6.7947   -7.2278   26.5170 O.3     1  UNL1       -0.3851
     43 H           7.0028   -8.1597   26.3466 H       1  UNL1        0.2103
@<TRIPOS>BOND
     1    29    28    1
     2    29    26    1
     3    26    23    1
     4    23    24    2
     5    23    25    2
     6    23    15    1
     7    15    16   ar
     8    16    17   ar
     9    17    18   ar
    10    18     1    1
    11     1     2   ar
    12     2     3   ar
    13     3    34    1
    14    34    35    2
    15    34    36   am
    16    36    38    1
    17    38    39    1
    18    39    40    1
    19    39    41    1
    20    39    42    1
    21     3     4   ar
    22     4     5   ar
    23     5     6    1
    24     6     7    2
    25     6     8   am
    26     8     9    1
    27     9    10    1
    28    10    11    1
    29    11    12    1
    30    11    13    1
    31    13    14    1
    32    18    19   ar
    33    19    20    1
    34    19    21   ar
    35    21    22    1
    36    29    30    1
    37    30    31    1
    38    30    32    1
    39    30    33    1
    40    21    15   ar
    41     5     1   ar
    42    14     8    1
    43    26    27    1
    44    36    37    1
    45    42    43    1
@<TRIPOS>MOLECULE
*****
 43 45 0 0 0
SMALL
GASTEIGER

@<TRIPOS>ATOM
      1 C          -0.0336    2.7011   21.1237 C.ar    1  UNL1        0.0539
      2 S          -1.3454    2.9398   20.4366 S.2     1  UNL1       -0.0619
      3 C          -2.0882    3.9903   21.2079 C.ar    1  UNL1        0.1641
      4 N          -1.2355    4.4007   22.3717 N.ar    1  UNL1       -0.2291
      5 C           0.0344    3.6039   22.3196 C.ar    1  UNL1        0.1414
      6 C           1.1724    3.6942   23.2927 C.2     1  UNL1        0.2673
      7 O           2.3505    4.5720   22.9896 O.2     1  UNL1       -0.2682
      8 N           1.1323    2.9069   24.5687 N.am    1  UNL1       -0.2747
      9 C           2.2703    2.9972   25.5418 C.3     1  UNL1        0.0966
     10 C           2.2303    2.2098   26.8179 C.3     1  UNL1        0.0568
     11 C           1.0523    1.3321   27.1210 C.3     1  UNL1        0.1644
     12 F           1.0122    0.5448   28.3970 F       1  UNL1       -0.2372
     13 C          -0.0858    1.2418   26.1479 C.3     1  UNL1        0.0568
     14 C          -0.0457    2.0292   24.8718 C.3     1  UNL1        0.0966
     15 C           3.1408   -0.2122   19.8251 C.ar    1  UNL1        0.1333
     16 C           1.9487   -0.6963   20.5961 C.ar    1  UNL1        0.0208
     17 C           0.8905    0.2748   21.0289 C.ar    1  UNL1        0.0028
     18 C           1.0246    1.7300   20.6908 C.ar    1  UNL1        0.0191
     19 C           2.2167    2.2141   19.9199 C.ar    1  UNL1        0.0700
     20 CL          2.3507    3.6694   19.5817 Cl      1  UNL1       -0.0813
     21 C           3.2748    1.2430   19.4870 C.ar    1  UNL1        0.0867
     22 CL          4.4670    1.7272   18.7160 Cl      1  UNL1       -0.0800
     23 S           4.1989   -1.1833   19.3923 S.O2    1  UNL1        0.0613
     24 O           3.5054   -1.3508   18.0728 O.2     1  UNL1       -0.1530
     25 O           4.8924   -1.0159   20.7118 O.2     1  UNL1       -0.1530
     26 N           5.2570   -2.1544   18.9594 N.3     1  UNL1       -0.1723
     27 H           5.0720   -2.3746   17.9808 H       1  UNL1        0.1491
     28 C           6.7033   -3.7922   20.3651 C.3     1  UNL1        0.0278
     29 C           5.4123   -3.4631   19.6758 C.3     1  UNL1        0.1701
     30 C           4.2766   -4.4426   19.7030 C.3     1  UNL1        0.4118
     31 F           3.1409   -5.4221   19.7301 F       1  UNL1       -0.1685
     32 F           4.5529   -4.8026   18.2733 F       1  UNL1       -0.1685
     33 F           4.0003   -4.0826   21.1327 F       1  UNL1       -0.1685
     34 C          -3.4455    4.5346   20.8740 C.2     1  UNL1        0.2699
     35 O          -4.4667    4.7195   21.9571 O.2     1  UNL1       -0.2679
     36 N          -3.7816    4.8941   19.4571 N.am    1  UNL1       -0.2969
     37 H          -3.1114    4.7728   18.7462 H       1  UNL1        0.1499
     38 C          -5.1388    5.4385   19.1232 C.3     1  UNL1        0.1166
     39 C          -6.2815    4.5003   18.8693 C.3     1  UNL1        0.1064
     40 C          -5.3833    3.6307   18.0404 C.3     1  UNL1        0.0311
     41 C          -7.1797    5.3700   19.6982 C.3     1  UNL1        0.0311
     42 O          -7.4241    3.5622   18.6154 O.3     1  UNL1       -0.3851
     43 H          -7.1228    2.8298   18.0553 H       1  UNL1        0.2103
@<TRIPOS>BOND
     1    29    28    1
     2    29    26    1
     3    26    23    1
     4    23    24    2
     5    23    25    2
     6    23    15    1
     7    15    16   ar
     8    16    17   ar
     9    17    18   ar
    10    18     1    1
    11     1     2   ar
    12     2     3   ar
    13     3    34    1
    14    34    35    2
    15    34    36   am
    16    36    38    1
    17    38    39    1
    18    39    40    1
    19    39    41    1
    20    39    42    1
    21     3     4   ar
    22     4     5   ar
    23     5     6    1
    24     6     7    2
    25     6     8   am
    26     8     9    1
    27     9    10    1
    28    10    11    1
    29    11    12    1
    30    11    13    1
    31    13    14    1
    32    18    19   ar
    33    19    20    1
    34    19    21   ar
    35    21    22    1
    36    29    30    1
    37    30    31    1
    38    30    32    1
    39    30    33    1
    40    21    15   ar
    41     5     1   ar
    42    14     8    1
    43    26    27    1
    44    36    37    1
    45    42    43    1
@<TRIPOS>MOLECULE
*****
 43 45 0 0 0
SMALL
GASTEIGER

@<TRIPOS>ATOM
      1 C           6.3729   -2.0040   31.9306 C.ar    1  UNL1        0.0539
      2 S           6.7519   -3.4543   31.9860 S.2     1  UNL1       -0.0619
      3 C           6.8709   -3.9564   30.5776 C.ar    1  UNL1        0.1641
      4 N           6.5655   -2.8165   29.6517 N.ar    1  UNL1       -0.2291
      5 C           6.2577   -1.6099   30.4879 C.ar    1  UNL1        0.1414
      6 C           5.8978   -0.2481   29.9720 C.2     1  UNL1        0.2673
      7 O           6.9791    0.7217   29.5969 O.2     1  UNL1       -0.2682
      8 N           4.4569    0.1439   29.8311 N.am    1  UNL1       -0.2747
      9 C           4.0971    1.5057   29.3151 C.3     1  UNL1        0.0966
     10 C           2.6561    1.8977   29.1743 C.3     1  UNL1        0.0568
     11 C           1.5749    0.9280   29.5493 C.3     1  UNL1        0.1644
     12 F           0.1339    1.3200   29.4084 F       1  UNL1       -0.2372
     13 C           1.9346   -0.4338   30.0652 C.3     1  UNL1        0.0568
     14 C           3.3756   -0.8258   30.2061 C.3     1  UNL1        0.0966
     15 C           5.6997    0.6911   35.4708 C.ar    1  UNL1        0.1333
     16 C           4.6614   -0.3229   35.0920 C.ar    1  UNL1        0.0208
     17 C           4.8858   -1.2213   33.9120 C.ar    1  UNL1        0.0028
     18 C           6.1485   -1.1056   33.1107 C.ar    1  UNL1        0.0191
     19 C           7.1868   -0.0916   33.4895 C.ar    1  UNL1        0.0700
     20 CL          8.4496    0.0241   32.6882 Cl      1  UNL1       -0.0813
     21 C           6.9624    0.8068   34.6696 C.ar    1  UNL1        0.0867
     22 CL          8.0008    1.8209   35.0483 Cl      1  UNL1       -0.0800
     23 S           5.4753    1.5895   36.6509 S.O2    1  UNL1        0.0613
     24 O           6.1454    0.5861   37.5421 O.2     1  UNL1       -0.1530
     25 O           4.8052    2.5928   35.7597 O.2     1  UNL1       -0.1530
     26 N           5.2509    2.4878   37.8310 N.3     1  UNL1       -0.1723
     27 H           5.7328    2.0607   38.6220 H       1  UNL1        0.1491
     28 C           3.4713    4.1980   38.6424 C.3     1  UNL1        0.0278
     29 C           3.8548    2.7919   38.2873 C.3     1  UNL1        0.1701
     30 C           2.8421    1.6900   38.3886 C.3     1  UNL1        0.4118
     31 F           1.8294    0.5882   38.4899 F       1  UNL1       -0.1685
     32 F           3.7137    0.9803   39.3819 F       1  UNL1       -0.1685
     33 F           1.9704    2.3998   37.3954 F       1  UNL1       -0.1685
     34 C           7.2320   -5.3533   30.1671 C.2     1  UNL1        0.2699
     35 O           7.1401   -6.4741   31.1597 O.2     1  UNL1       -0.2679
     36 N           7.6849   -5.6292   28.7640 N.am    1  UNL1       -0.2969
     37 H           7.7452   -4.8936   28.1125 H       1  UNL1        0.1499
     38 C           8.0460   -7.0261   28.3536 C.3     1  UNL1        0.1166
     39 C           7.6728   -7.5272   26.9898 C.3     1  UNL1        0.1064
     40 C           6.8979   -6.2675   26.7391 C.3     1  UNL1        0.0311
     41 C           8.4479   -8.7868   27.2406 C.3     1  UNL1        0.0311
     42 O           7.2998   -8.0282   25.6261 O.3     1  UNL1       -0.3851
     43 H           6.7468   -7.3683   25.1792 H       1  UNL1        0.2103
@<TRIPOS>BOND
     1    29    28    1
     2    29    26    1
     3    26    23    1
     4    23    24    2
     5    23    25    2
     6    23    15    1
     7    15    16   ar
     8    16    17   ar
     9    17    18   ar
    10    18     1    1
    11     1     2   ar
    12     2     3   ar
    13     3    34    1
    14    34    35    2
    15    34    36   am
    16    36    38    1
    17    38    39    1
    18    39    40    1
    19    39    41    1
    20    39    42    1
    21     3     4   ar
    22     4     5   ar
    23     5     6    1
    24     6     7    2
    25     6     8   am
    26     8     9    1
    27     9    10    1
    28    10    11    1
    29    11    12    1
    30    11    13    1
    31    13    14    1
    32    18    19   ar
    33    19    20    1
    34    19    21   ar
    35    21    22    1
    36    29    30    1
    37    30    31    1
    38    30    32    1
    39    30    33    1
    40    21    15   ar
    41     5     1   ar
    42    14     8    1
    43    26    27    1
    44    36    37    1
    45    42    43    1
@<TRIPOS>MOLECULE
*****
 43 45 0 0 0
SMALL
GASTEIGER

@<TRIPOS>ATOM
      1 C           3.2841    1.6065   32.3916 C.ar    1  UNL1        0.0539
      2 S           2.6303    2.1105   33.6440 S.2     1  UNL1       -0.0619
      3 C           3.6610    2.1191   34.7338 C.ar    1  UNL1        0.1641
      4 N           4.9518    1.6203   34.1549 N.ar    1  UNL1       -0.2291
      5 C           4.7188    1.3035   32.7073 C.ar    1  UNL1        0.1414
      6 C           5.7411    0.7762   31.7446 C.2     1  UNL1        0.2673
      7 O           6.4510    1.7158   30.8153 O.2     1  UNL1       -0.2682
      8 N           6.0536   -0.6904   31.7110 N.am    1  UNL1       -0.2747
      9 C           7.0760   -1.2176   30.7482 C.3     1  UNL1        0.0966
     10 C           7.3884   -2.6843   30.7147 C.3     1  UNL1        0.0568
     11 C           6.6786   -3.6238   31.6439 C.3     1  UNL1        0.1644
     12 F           6.9911   -5.0905   31.6104 F       1  UNL1       -0.2372
     13 C           5.6563   -3.0967   32.6067 C.3     1  UNL1        0.0568
     14 C           5.3438   -1.6300   32.6402 C.3     1  UNL1        0.0966
     15 C           1.2911    1.0933   28.3897 C.ar    1  UNL1        0.1333
     16 C           1.6449   -0.1107   29.2113 C.ar    1  UNL1        0.0208
     17 C           2.3092    0.0603   30.5452 C.ar    1  UNL1        0.0028
     18 C           2.6197    1.4354   31.0576 C.ar    1  UNL1        0.0191
     19 C           2.2659    2.6395   30.2361 C.ar    1  UNL1        0.0700
     20 CL          2.5764    4.0147   30.7485 Cl      1  UNL1       -0.0813
     21 C           1.6015    2.4684   28.9021 C.ar    1  UNL1        0.0867
     22 CL          1.2477    3.6726   28.0806 Cl      1  UNL1       -0.0800
     23 S           0.6267    0.9223   27.0558 S.O2    1  UNL1        0.0613
     24 O           1.9708    0.8891   26.3907 O.2     1  UNL1       -0.1530
     25 O          -0.7174    0.9555   27.7209 O.2     1  UNL1       -0.1530
     26 N          -0.0376    0.7513   25.7218 N.3     1  UNL1       -0.1723
     27 H           0.3655   -0.0839   25.2971 H       1  UNL1        0.1491
     28 C           0.6469    1.5620   23.3503 C.3     1  UNL1        0.0278
     29 C           0.0472    1.8426   24.6963 C.3     1  UNL1        0.1701
     30 C          -0.4677    3.2145   25.0167 C.3     1  UNL1        0.4118
     31 F          -0.9826    4.5865   25.3371 F       1  UNL1       -0.1685
     32 F           0.9086    3.7773   24.8189 F       1  UNL1       -0.1685
     33 F          -1.8440    2.6518   25.2145 F       1  UNL1       -0.1685
     34 C           3.4397    2.5506   36.1532 C.2     1  UNL1        0.2699
     35 O           4.5033    3.3219   36.8771 O.2     1  UNL1       -0.2679
     36 N           2.1549    2.2110   36.8487 N.am    1  UNL1       -0.2969
     37 H           1.4568    1.7048   36.3736 H       1  UNL1        0.1499
     38 C           1.9336    2.6425   38.2681 C.3     1  UNL1        0.1166
     39 C           1.5130    1.6386   39.3003 C.3     1  UNL1        0.1064
     40 C           0.2039    2.3529   39.4617 C.3     1  UNL1        0.0311
     41 C           2.8222    0.9243   39.1389 C.3     1  UNL1        0.0311
     42 O           1.0925    0.6347   40.3325 O.3     1  UNL1       -0.3851
     43 H           0.2038    0.8537   40.6534 H       1  UNL1        0.2103
@<TRIPOS>BOND
     1    29    28    1
     2    29    26    1
     3    26    23    1
     4    23    24    2
     5    23    25    2
     6    23    15    1
     7    15    16   ar
     8    16    17   ar
     9    17    18   ar
    10    18     1    1
    11     1     2   ar
    12     2     3   ar
    13     3    34    1
    14    34    35    2
    15    34    36   am
    16    36    38    1
    17    38    39    1
    18    39    40    1
    19    39    41    1
    20    39    42    1
    21     3     4   ar
    22     4     5   ar
    23     5     6    1
    24     6     7    2
    25     6     8   am
    26     8     9    1
    27     9    10    1
    28    10    11    1
    29    11    12    1
    30    11    13    1
    31    13    14    1
    32    18    19   ar
    33    19    20    1
    34    19    21   ar
    35    21    22    1
    36    29    30    1
    37    30    31    1
    38    30    32    1
    39    30    33    1
    40    21    15   ar
    41     5     1   ar
    42    14     8    1
    43    26    27    1
    44    36    37    1
    45    42    43    1
@<TRIPOS>MOLECULE
*****
 43 45 0 0 0
SMALL
GASTEIGER

@<TRIPOS>ATOM
      1 C           3.9493    0.2692   32.1278 C.ar    1  UNL1        0.0539
      2 S           3.5846    0.5323   33.5588 S.2     1  UNL1       -0.0619
      3 C           4.7410    0.1120   34.4167 C.ar    1  UNL1        0.1641
      4 N           5.8205   -0.4109   33.5159 N.ar    1  UNL1       -0.2291
      5 C           5.3311   -0.3137   32.1013 C.ar    1  UNL1        0.1414
      6 C           6.0904   -0.7270   30.8754 C.2     1  UNL1        0.2673
      7 O           6.3631    0.2718   29.7899 O.2     1  UNL1       -0.2682
      8 N           6.5768   -2.1388   30.7349 N.am    1  UNL1       -0.2747
      9 C           7.3361   -2.5521   29.5090 C.3     1  UNL1        0.0966
     10 C           7.8225   -3.9640   29.3685 C.3     1  UNL1        0.0568
     11 C           7.5498   -4.9628   30.4539 C.3     1  UNL1        0.1644
     12 F           8.0363   -6.3747   30.3134 F       1  UNL1       -0.2372
     13 C           6.7906   -4.5496   31.6798 C.3     1  UNL1        0.0568
     14 C           6.3041   -3.1377   31.8203 C.3     1  UNL1        0.0966
     15 C           1.3536    1.0855   28.5436 C.ar    1  UNL1        0.1333
     16 C           1.4813   -0.3115   29.0747 C.ar    1  UNL1        0.0208
     17 C           2.3465   -0.5836   30.2694 C.ar    1  UNL1        0.0028
     18 C           3.0841    0.5413   30.9331 C.ar    1  UNL1        0.0191
     19 C           2.9564    1.9383   30.4021 C.ar    1  UNL1        0.0700
     20 CL          3.6940    3.0633   31.0657 Cl      1  UNL1       -0.0813
     21 C           2.0912    2.2104   29.2073 C.ar    1  UNL1        0.0867
     22 CL          1.9636    3.6075   28.6763 Cl      1  UNL1       -0.0800
     23 S           0.4884    1.3576   27.3489 S.O2    1  UNL1        0.0613
     24 O           1.6730    1.1692   26.4482 O.2     1  UNL1       -0.1530
     25 O          -0.6961    1.5460   28.2497 O.2     1  UNL1       -0.1530
     26 N          -0.3768    1.6297   26.1542 N.3     1  UNL1       -0.1723
     27 H           0.1615    1.3558   25.3323 H       1  UNL1        0.1491
     28 C           0.0172    4.1974   26.1070 C.3     1  UNL1        0.0278
     29 C          -0.8847    3.0173   25.8964 C.3     1  UNL1        0.1701
     30 C          -2.2945    3.2250   25.4280 C.3     1  UNL1        0.4118
     31 F          -3.7042    3.4328   24.9596 F       1  UNL1       -0.1685
     32 F          -2.7484    3.3551   26.8518 F       1  UNL1       -0.1685
     33 F          -1.8406    3.0950   24.0042 F       1  UNL1       -0.1685
     34 C           4.8065    0.1992   35.9127 C.2     1  UNL1        0.2699
     35 O           5.8744   -0.5420   36.6612 O.2     1  UNL1       -0.2679
     36 N           3.8041    1.0276   36.6603 N.am    1  UNL1       -0.2969
     37 H           3.1032    1.5140   36.1690 H       1  UNL1        0.1499
     38 C           3.8696    1.1148   38.1563 C.3     1  UNL1        0.1166
     39 C           2.8290    1.8905   38.9086 C.3     1  UNL1        0.1064
     40 C           1.9743    0.6607   38.9943 C.3     1  UNL1        0.0311
     41 C           3.6838    3.1202   38.8228 C.3     1  UNL1        0.0311
     42 O           1.7886    2.6661   39.6608 O.3     1  UNL1       -0.3851
     43 H           1.0432    2.0836   39.8752 H       1  UNL1        0.2103
@<TRIPOS>BOND
     1    29    28    1
     2    29    26    1
     3    26    23    1
     4    23    24    2
     5    23    25    2
     6    23    15    1
     7    15    16   ar
     8    16    17   ar
     9    17    18   ar
    10    18     1    1
    11     1     2   ar
    12     2     3   ar
    13     3    34    1
    14    34    35    2
    15    34    36   am
    16    36    38    1
    17    38    39    1
    18    39    40    1
    19    39    41    1
    20    39    42    1
    21     3     4   ar
    22     4     5   ar
    23     5     6    1
    24     6     7    2
    25     6     8   am
    26     8     9    1
    27     9    10    1
    28    10    11    1
    29    11    12    1
    30    11    13    1
    31    13    14    1
    32    18    19   ar
    33    19    20    1
    34    19    21   ar
    35    21    22    1
    36    29    30    1
    37    30    31    1
    38    30    32    1
    39    30    33    1
    40    21    15   ar
    41     5     1   ar
    42    14     8    1
    43    26    27    1
    44    36    37    1
    45    42    43    1
