@<TRIPOS>MOLECULE
*****
 29 33 0 0 0
SMALL
GASTEIGER

@<TRIPOS>ATOM
      1 C           8.3771   -6.1039   22.9227 C.ar    1  UNL1        0.1387
      2 C           8.9480   -7.4037   23.4072 C.ar    1  UNL1        0.0366
      3 C           8.9476   -7.7231   24.8728 C.ar    1  UNL1       -0.0014
      4 C           8.3762   -6.7426   25.8539 C.ar    1  UNL1       -0.0245
      5 C           7.8054   -5.4430   25.3693 C.ar    1  UNL1       -0.0217
      6 C           7.8058   -5.1236   23.9038 C.ar    1  UNL1        0.0324
      7 C           7.1914   -4.3342   26.1716 C.3     1  UNL1        0.0434
      8 C           6.9966   -4.2514   27.6567 C.3     1  UNL1        0.0768
      9 N           7.3677   -5.2568   28.7061 N.3     1  UNL1       -0.2734
     10 C           8.0253   -6.5934   28.5298 C.3     1  UNL1        0.0768
     11 C           8.4741   -7.2547   27.2604 C.3     1  UNL1        0.0433
     12 C           7.0377   -4.8752   30.1187 C.3     1  UNL1        0.0575
     13 C           7.0031   -5.5985   31.4323 C.3     1  UNL1        0.0160
     14 C           6.5708   -4.3355   32.1164 C.3     1  UNL1        0.0028
     15 C           6.6054   -3.6122   30.8028 C.3     1  UNL1        0.0160
     16 O           8.3775   -5.7846   21.4571 O.3     1  UNL1       -0.4707
     17 C           8.8183   -4.4309   20.9846 C.3     1  UNL1        0.2320
     18 C           5.3746    0.1402   17.1771 C.3     1  UNL1        0.1335
     19 N           4.9080   -0.7834   18.2631 N.ar    1  UNL1       -0.2935
     20 C           3.4639   -0.7952   18.6687 C.ar    1  UNL1        0.2610
     21 O           2.4864    0.1167   17.9883 O.2     1  UNL1       -0.2670
     22 C           2.9974   -1.7187   19.7546 C.ar    1  UNL1        0.0608
     23 C           3.9750   -2.6306   20.4350 C.ar    1  UNL1        0.0063
     24 C           5.4191   -2.6189   20.0294 C.ar    1  UNL1        0.0158
     25 C           6.3966   -3.5307   20.7098 C.ar    1  UNL1        0.0007
     26 C           7.8407   -3.5190   20.3042 C.ar    1  UNL1        0.0213
     27 C           8.3072   -2.5954   19.2183 C.ar    1  UNL1        0.0008
     28 C           7.3297   -1.6836   18.5379 C.ar    1  UNL1        0.0171
     29 C           5.8856   -1.6953   18.9435 C.ar    1  UNL1        0.0625
@<TRIPOS>BOND
     1    18    19    1
     2    19    20   ar
     3    20    21    2
     4    20    22   ar
     5    22    23   ar
     6    23    24   ar
     7    24    25   ar
     8    25    26   ar
     9    26    17    1
    10    17    16    1
    11    16     1    1
    12     1     2   ar
    13     2     3   ar
    14     3     4   ar
    15     4     5   ar
    16     5     6   ar
    17     5     7    1
    18     7     8    1
    19     8     9    1
    20     9    12    1
    21    12    13    1
    22    13    14    1
    23    14    15    1
    24     9    10    1
    25    10    11    1
    26    26    27   ar
    27    27    28   ar
    28    28    29   ar
    29    29    19   ar
    30    29    24   ar
    31     6     1   ar
    32    15    12    1
    33    11     4    1
@<TRIPOS>MOLECULE
*****
 29 33 0 0 0
SMALL
GASTEIGER

@<TRIPOS>ATOM
      1 C          -0.0495    2.6934   23.4741 C.ar    1  UNL1        0.1387
      2 C          -0.7190    2.9874   22.1644 C.ar    1  UNL1        0.0366
      3 C          -0.3462    2.2060   20.9395 C.ar    1  UNL1       -0.0014
      4 C           0.6962    1.1305   21.0243 C.ar    1  UNL1       -0.0245
      5 C           1.3656    0.8366   22.3340 C.ar    1  UNL1       -0.0217
      6 C           0.9928    1.6180   23.5589 C.ar    1  UNL1        0.0324
      7 C           2.4218   -0.1848   22.6360 C.3     1  UNL1        0.0434
      8 C           3.0693   -1.1646   21.7028 C.3     1  UNL1        0.0768
      9 N           2.8206   -1.3648   20.2373 N.3     1  UNL1       -0.2734
     10 C           1.8630   -0.6349   19.3428 C.3     1  UNL1        0.0768
     11 C           0.9175    0.4757   19.6931 C.3     1  UNL1        0.0433
     12 C           3.6376   -2.4369   19.5790 C.3     1  UNL1        0.0575
     13 C           4.9289   -2.4687   18.8164 C.3     1  UNL1        0.0160
     14 C           4.7930   -3.9530   18.6481 C.3     1  UNL1        0.0028
     15 C           3.5017   -3.9212   19.4107 C.3     1  UNL1        0.0160
     16 O          -0.4223    3.4749   24.6990 O.3     1  UNL1       -0.4707
     17 C          -1.5222    2.9863   25.5943 C.3     1  UNL1        0.2320
     18 C          -7.5292    6.2361   26.3725 C.3     1  UNL1        0.1335
     19 N          -6.9924    5.4246   25.2307 N.ar    1  UNL1       -0.2935
     20 C          -7.8231    5.2227   23.9982 C.ar    1  UNL1        0.2610
     21 O          -9.1906    5.8323   23.9074 O.2     1  UNL1       -0.2670
     22 C          -7.2864    4.4113   22.8566 C.ar    1  UNL1        0.0608
     23 C          -5.9188    3.8017   22.9475 C.ar    1  UNL1        0.0063
     24 C          -5.0880    4.0036   24.1800 C.ar    1  UNL1        0.0158
     25 C          -3.7205    3.3940   24.2709 C.ar    1  UNL1        0.0007
     26 C          -2.8898    3.5959   25.5034 C.ar    1  UNL1        0.0213
     27 C          -3.4266    4.4073   26.6450 C.ar    1  UNL1        0.0008
     28 C          -4.7941    5.0169   26.5542 C.ar    1  UNL1        0.0171
     29 C          -5.6248    4.8150   25.3216 C.ar    1  UNL1        0.0625
@<TRIPOS>BOND
     1    18    19    1
     2    19    20   ar
     3    20    21    2
     4    20    22   ar
     5    22    23   ar
     6    23    24   ar
     7    24    25   ar
     8    25    26   ar
     9    26    17    1
    10    17    16    1
    11    16     1    1
    12     1     2   ar
    13     2     3   ar
    14     3     4   ar
    15     4     5   ar
    16     5     6   ar
    17     5     7    1
    18     7     8    1
    19     8     9    1
    20     9    12    1
    21    12    13    1
    22    13    14    1
    23    14    15    1
    24     9    10    1
    25    10    11    1
    26    26    27   ar
    27    27    28   ar
    28    28    29   ar
    29    29    19   ar
    30    29    24   ar
    31     6     1   ar
    32    15    12    1
    33    11     4    1
@<TRIPOS>MOLECULE
*****
 29 33 0 0 0
SMALL
GASTEIGER

@<TRIPOS>ATOM
      1 C           5.2650   -3.2860   19.8871 C.ar    1  UNL1        0.1387
      2 C           5.4974   -2.8946   18.4578 C.ar    1  UNL1        0.0366
      3 C           4.6934   -1.7874   17.8432 C.ar    1  UNL1       -0.0014
      4 C           3.6571   -1.0716   18.6579 C.ar    1  UNL1       -0.0245
      5 C           3.4248   -1.4630   20.0871 C.ar    1  UNL1       -0.0217
      6 C           4.2287   -2.5701   20.7018 C.ar    1  UNL1        0.0324
      7 C           2.4493   -0.8841   21.0687 C.3     1  UNL1        0.0434
      8 C           1.4651    0.2292   20.8632 C.3     1  UNL1        0.0768
      9 N           1.2135    1.0384   19.6256 N.3     1  UNL1       -0.2734
     10 C           1.8838    0.9344   18.2877 C.3     1  UNL1        0.0768
     11 C           2.9713   -0.0046   17.8570 C.3     1  UNL1        0.0433
     12 C           0.1510    2.0910   19.7411 C.3     1  UNL1        0.0575
     13 C          -0.8556    2.4719   20.7860 C.3     1  UNL1        0.0160
     14 C          -1.3516    3.5795   19.9045 C.3     1  UNL1        0.0028
     15 C          -0.3450    3.1986   18.8596 C.3     1  UNL1        0.0160
     16 O           6.0690   -4.3932   20.5016 O.3     1  UNL1       -0.4707
     17 C           7.2558   -4.0707   21.3605 C.3     1  UNL1        0.2320
     18 C           6.7743   -5.4145   28.0845 C.3     1  UNL1        0.1335
     19 N           7.5269   -6.1178   26.9940 N.ar    1  UNL1       -0.2935
     20 C           8.3472   -7.3327   27.3119 C.ar    1  UNL1        0.2610
     21 O           8.4149   -7.8444   28.7203 O.2     1  UNL1       -0.2670
     22 C           9.0997   -8.0358   26.2214 C.ar    1  UNL1        0.0608
     23 C           9.0319   -7.5240   24.8130 C.ar    1  UNL1        0.0063
     24 C           8.2116   -6.3091   24.4952 C.ar    1  UNL1        0.0158
     25 C           8.1439   -5.7974   23.0868 C.ar    1  UNL1        0.0007
     26 C           7.3236   -4.5825   22.7689 C.ar    1  UNL1        0.0213
     27 C           6.5710   -3.8794   23.8594 C.ar    1  UNL1        0.0008
     28 C           6.6388   -4.3911   25.2678 C.ar    1  UNL1        0.0171
     29 C           7.4591   -5.6060   25.5856 C.ar    1  UNL1        0.0625
@<TRIPOS>BOND
     1    18    19    1
     2    19    20   ar
     3    20    21    2
     4    20    22   ar
     5    22    23   ar
     6    23    24   ar
     7    24    25   ar
     8    25    26   ar
     9    26    17    1
    10    17    16    1
    11    16     1    1
    12     1     2   ar
    13     2     3   ar
    14     3     4   ar
    15     4     5   ar
    16     5     6   ar
    17     5     7    1
    18     7     8    1
    19     8     9    1
    20     9    12    1
    21    12    13    1
    22    13    14    1
    23    14    15    1
    24     9    10    1
    25    10    11    1
    26    26    27   ar
    27    27    28   ar
    28    28    29   ar
    29    29    19   ar
    30    29    24   ar
    31     6     1   ar
    32    15    12    1
    33    11     4    1
@<TRIPOS>MOLECULE
*****
 29 33 0 0 0
SMALL
GASTEIGER

@<TRIPOS>ATOM
      1 C           4.5791   -3.0984   21.2426 C.ar    1  UNL1        0.1387
      2 C           3.8806   -2.8254   19.9435 C.ar    1  UNL1        0.0366
      3 C           2.8179   -1.7693   19.8708 C.ar    1  UNL1       -0.0014
      4 C           2.4537   -0.9861   21.0973 C.ar    1  UNL1       -0.0245
      5 C           3.1522   -1.2592   22.3962 C.ar    1  UNL1       -0.0217
      6 C           4.2149   -2.3153   22.4690 C.ar    1  UNL1        0.0324
      7 C           2.9437   -0.5992   23.7271 C.3     1  UNL1        0.0434
      8 C           1.9851    0.4969   24.0874 C.3     1  UNL1        0.0768
      9 N           0.9984    1.2035   23.2060 N.3     1  UNL1       -0.2734
     10 C           0.7264    0.9888   21.7466 C.3     1  UNL1        0.0768
     11 C           1.3741    0.0143   20.8081 C.3     1  UNL1        0.0433
     12 C           0.1746    2.2655   23.8721 C.3     1  UNL1        0.0575
     13 C          -0.5693    2.3724   25.1703 C.3     1  UNL1        0.0160
     14 C          -0.9905    3.7673   24.8142 C.3     1  UNL1        0.0028
     15 C          -0.2467    3.6603   23.5160 C.3     1  UNL1        0.0160
     16 O           5.6418   -4.1546   21.3151 O.3     1  UNL1       -0.4707
     17 C           6.9276   -3.8764   22.0359 C.3     1  UNL1        0.2320
     18 C           7.4561   -5.9889   28.5557 C.3     1  UNL1        0.1335
     19 N           8.0553   -6.5367   27.2944 N.ar    1  UNL1       -0.2935
     20 C           8.9363   -7.7495   27.3476 C.ar    1  UNL1        0.2610
     21 O           9.2182   -8.4145   28.6623 O.2     1  UNL1       -0.2670
     22 C           9.5354   -8.2972   26.0863 C.ar    1  UNL1        0.0608
     23 C           9.2535   -7.6321   24.7717 C.ar    1  UNL1        0.0063
     24 C           8.3724   -6.4193   24.7184 C.ar    1  UNL1        0.0158
     25 C           8.0906   -5.7543   23.4038 C.ar    1  UNL1        0.0007
     26 C           7.2095   -4.5415   23.3505 C.ar    1  UNL1        0.0213
     27 C           6.6104   -3.9938   24.6118 C.ar    1  UNL1        0.0008
     28 C           6.8923   -4.6588   25.9265 C.ar    1  UNL1        0.0171
     29 C           7.7733   -5.8716   25.9797 C.ar    1  UNL1        0.0625
@<TRIPOS>BOND
     1    18    19    1
     2    19    20   ar
     3    20    21    2
     4    20    22   ar
     5    22    23   ar
     6    23    24   ar
     7    24    25   ar
     8    25    26   ar
     9    26    17    1
    10    17    16    1
    11    16     1    1
    12     1     2   ar
    13     2     3   ar
    14     3     4   ar
    15     4     5   ar
    16     5     6   ar
    17     5     7    1
    18     7     8    1
    19     8     9    1
    20     9    12    1
    21    12    13    1
    22    13    14    1
    23    14    15    1
    24     9    10    1
    25    10    11    1
    26    26    27   ar
    27    27    28   ar
    28    28    29   ar
    29    29    19   ar
    30    29    24   ar
    31     6     1   ar
    32    15    12    1
    33    11     4    1
@<TRIPOS>MOLECULE
*****
 29 33 0 0 0
SMALL
GASTEIGER

@<TRIPOS>ATOM
      1 C           4.7520   -3.2627   21.3807 C.ar    1  UNL1        0.1387
      2 C           4.1146   -3.0893   20.0339 C.ar    1  UNL1        0.0366
      3 C           3.0477   -2.0534   19.8368 C.ar    1  UNL1       -0.0014
      4 C           2.6183   -1.1909   20.9865 C.ar    1  UNL1       -0.0245
      5 C           3.2557   -1.3643   22.3331 C.ar    1  UNL1       -0.0217
      6 C           4.3225   -2.4001   22.5303 C.ar    1  UNL1        0.0324
      7 C           2.9777   -0.6155   23.6029 C.3     1  UNL1        0.0434
      8 C           1.9936    0.4917   23.8393 C.3     1  UNL1        0.0768
      9 N           1.0446    1.1234   22.8646 N.3     1  UNL1       -0.2734
     10 C           0.8451    0.8040   21.4126 C.3     1  UNL1        0.0768
     11 C           1.5455   -0.2259   20.5768 C.3     1  UNL1        0.0433
     12 C           0.1807    2.2194   23.4146 C.3     1  UNL1        0.0575
     13 C          -0.6194    3.3395   22.8185 C.3     1  UNL1        0.0160
     14 C          -1.0411    3.7695   24.1923 C.3     1  UNL1        0.0028
     15 C          -0.2410    2.6493   24.7883 C.3     1  UNL1        0.0160
     16 O           5.8188   -4.2985   21.5777 O.3     1  UNL1       -0.4707
     17 C           7.0361   -3.9758   22.3926 C.3     1  UNL1        0.2320
     18 C           8.3070   -7.6209   28.0802 C.3     1  UNL1        0.1335
     19 N           7.6588   -6.2805   27.8972 N.ar    1  UNL1       -0.2935
     20 C           7.1662   -5.5164   29.0904 C.ar    1  UNL1        0.2610
     21 O           7.3219   -6.0927   30.4665 O.2     1  UNL1       -0.2670
     22 C           6.5180   -4.1762   28.9074 C.ar    1  UNL1        0.0608
     23 C           6.3624   -3.6000   27.5312 C.ar    1  UNL1        0.0063
     24 C           6.8549   -4.3641   26.3380 C.ar    1  UNL1        0.0158
     25 C           6.6992   -3.7879   24.9619 C.ar    1  UNL1        0.0007
     26 C           7.1918   -4.5520   23.7688 C.ar    1  UNL1        0.0213
     27 C           7.8400   -5.8922   23.9518 C.ar    1  UNL1        0.0008
     28 C           7.9957   -6.4684   25.3279 C.ar    1  UNL1        0.0171
     29 C           7.5031   -5.7043   26.5210 C.ar    1  UNL1        0.0625
@<TRIPOS>BOND
     1    18    19    1
     2    19    20   ar
     3    20    21    2
     4    20    22   ar
     5    22    23   ar
     6    23    24   ar
     7    24    25   ar
     8    25    26   ar
     9    26    17    1
    10    17    16    1
    11    16     1    1
    12     1     2   ar
    13     2     3   ar
    14     3     4   ar
    15     4     5   ar
    16     5     6   ar
    17     5     7    1
    18     7     8    1
    19     8     9    1
    20     9    12    1
    21    12    13    1
    22    13    14    1
    23    14    15    1
    24     9    10    1
    25    10    11    1
    26    26    27   ar
    27    27    28   ar
    28    28    29   ar
    29    29    19   ar
    30    29    24   ar
    31     6     1   ar
    32    15    12    1
    33    11     4    1
@<TRIPOS>MOLECULE
*****
 29 33 0 0 0
SMALL
GASTEIGER

@<TRIPOS>ATOM
      1 C           1.0656    1.2655   18.7452 C.ar    1  UNL1        0.1387
      2 C           0.5353    0.3610   19.8179 C.ar    1  UNL1        0.0366
      3 C           1.4330   -0.6628   20.4472 C.ar    1  UNL1       -0.0014
      4 C           2.8610   -0.7821   20.0037 C.ar    1  UNL1       -0.0245
      5 C           3.3912    0.1223   18.9310 C.ar    1  UNL1       -0.0217
      6 C           2.4936    1.1461   18.3017 C.ar    1  UNL1        0.0324
      7 C           4.7717    0.1703   18.3460 C.3     1  UNL1        0.0434
      8 C           5.9628   -0.6745   18.6894 C.3     1  UNL1        0.0768
      9 N           6.0675   -1.7757   19.7024 N.3     1  UNL1       -0.2734
     10 C           5.0072   -2.3042   20.6224 C.3     1  UNL1        0.0768
     11 C           3.5802   -1.8620   20.7565 C.3     1  UNL1        0.0433
     12 C           7.4103   -2.4357   19.8097 C.3     1  UNL1        0.0575
     13 C           7.9528   -3.6224   20.5496 C.3     1  UNL1        0.0160
     14 C           9.3092   -3.3691   19.9614 C.3     1  UNL1        0.0028
     15 C           8.7667   -2.1824   19.2215 C.3     1  UNL1        0.0160
     16 O           0.1679    2.2893   18.1159 O.3     1  UNL1       -0.4707
     17 C          -0.1423    3.5635   18.8440 C.3     1  UNL1        0.2320
     18 C          -5.8230    3.7517   22.7099 C.3     1  UNL1        0.1335
     19 N          -4.3775    3.6358   23.0936 N.ar    1  UNL1       -0.2935
     20 C          -3.9908    3.5380   24.5396 C.ar    1  UNL1        0.2610
     21 O          -5.0496    3.5561   25.6019 O.2     1  UNL1       -0.2670
     22 C          -2.5454    3.4222   24.9232 C.ar    1  UNL1        0.0608
     23 C          -1.4865    3.4041   23.8607 C.ar    1  UNL1        0.0063
     24 C          -1.8732    3.5019   22.4147 C.ar    1  UNL1        0.0158
     25 C          -0.8144    3.4838   21.3524 C.ar    1  UNL1        0.0007
     26 C          -1.2011    3.5816   19.9064 C.ar    1  UNL1        0.0213
     27 C          -2.6466    3.6975   19.5228 C.ar    1  UNL1        0.0008
     28 C          -3.7054    3.7156   20.5851 C.ar    1  UNL1        0.0171
     29 C          -3.3187    3.6178   22.0311 C.ar    1  UNL1        0.0625
@<TRIPOS>BOND
     1    18    19    1
     2    19    20   ar
     3    20    21    2
     4    20    22   ar
     5    22    23   ar
     6    23    24   ar
     7    24    25   ar
     8    25    26   ar
     9    26    17    1
    10    17    16    1
    11    16     1    1
    12     1     2   ar
    13     2     3   ar
    14     3     4   ar
    15     4     5   ar
    16     5     6   ar
    17     5     7    1
    18     7     8    1
    19     8     9    1
    20     9    12    1
    21    12    13    1
    22    13    14    1
    23    14    15    1
    24     9    10    1
    25    10    11    1
    26    26    27   ar
    27    27    28   ar
    28    28    29   ar
    29    29    19   ar
    30    29    24   ar
    31     6     1   ar
    32    15    12    1
    33    11     4    1
@<TRIPOS>MOLECULE
*****
 29 33 0 0 0
SMALL
GASTEIGER

@<TRIPOS>ATOM
      1 C         -10.2977  -19.6059   21.5982 C.ar    1  UNL1        0.1387
      2 C         -10.3335  -19.7476   20.1053 C.ar    1  UNL1        0.0366
      3 C          -9.0626  -19.6611   19.3131 C.ar    1  UNL1       -0.0014
      4 C          -7.7561  -19.4329   20.0138 C.ar    1  UNL1       -0.0245
      5 C          -7.7204  -19.2913   21.5066 C.ar    1  UNL1       -0.0217
      6 C          -8.9911  -19.3778   22.2988 C.ar    1  UNL1        0.0324
      7 C          -6.5347  -19.0610   22.3961 C.3     1  UNL1        0.0434
      8 C          -5.0919  -18.9154   22.0123 C.3     1  UNL1        0.0768
      9 N          -4.4785  -18.9642   20.6444 N.3     1  UNL1       -0.2734
     10 C          -5.1563  -19.1707   19.3223 C.3     1  UNL1        0.0768
     11 C          -6.6150  -19.3793   19.0416 C.3     1  UNL1        0.0433
     12 C          -2.9905  -18.7826   20.5915 C.3     1  UNL1        0.0575
     13 C          -2.0048  -18.4089   19.5244 C.3     1  UNL1        0.0160
     14 C          -0.8860  -18.5257   20.5167 C.3     1  UNL1        0.0028
     15 C          -1.8718  -18.8995   21.5839 C.3     1  UNL1        0.0160
     16 O         -11.5685  -19.6924   22.3903 O.3     1  UNL1       -0.4707
     17 C         -11.8215  -18.7267   23.5099 C.3     1  UNL1        0.2320
     18 C          -6.9041  -16.2311   27.6138 C.3     1  UNL1        0.1335
     19 N          -7.2182  -15.9497   26.1743 N.ar    1  UNL1       -0.2935
     20 C          -6.3816  -14.9740   25.4008 C.ar    1  UNL1        0.2610
     21 O          -5.2308  -14.2798   26.0670 O.2     1  UNL1       -0.2670
     22 C          -6.6958  -14.6926   23.9614 C.ar    1  UNL1        0.0608
     23 C          -7.8466  -15.3869   23.2953 C.ar    1  UNL1        0.0063
     24 C          -8.6833  -16.3626   24.0687 C.ar    1  UNL1        0.0158
     25 C          -9.8340  -17.0568   23.4026 C.ar    1  UNL1        0.0007
     26 C         -10.6707  -18.0324   24.1760 C.ar    1  UNL1        0.0213
     27 C         -10.3565  -18.3138   25.6155 C.ar    1  UNL1        0.0008
     28 C          -9.2057  -17.6196   26.2816 C.ar    1  UNL1        0.0171
     29 C          -8.3691  -16.6439   25.5082 C.ar    1  UNL1        0.0625
@<TRIPOS>BOND
     1    18    19    1
     2    19    20   ar
     3    20    21    2
     4    20    22   ar
     5    22    23   ar
     6    23    24   ar
     7    24    25   ar
     8    25    26   ar
     9    26    17    1
    10    17    16    1
    11    16     1    1
    12     1     2   ar
    13     2     3   ar
    14     3     4   ar
    15     4     5   ar
    16     5     6   ar
    17     5     7    1
    18     7     8    1
    19     8     9    1
    20     9    12    1
    21    12    13    1
    22    13    14    1
    23    14    15    1
    24     9    10    1
    25    10    11    1
    26    26    27   ar
    27    27    28   ar
    28    28    29   ar
    29    29    19   ar
    30    29    24   ar
    31     6     1   ar
    32    15    12    1
    33    11     4    1
@<TRIPOS>MOLECULE
*****
 29 33 0 0 0
SMALL
GASTEIGER

@<TRIPOS>ATOM
      1 C           0.9980    2.0877   24.5585 C.ar    1  UNL1        0.1387
      2 C           1.8763    1.4653   25.6031 C.ar    1  UNL1        0.0366
      3 C           2.7698    0.3153   25.2437 C.ar    1  UNL1       -0.0014
      4 C           2.7848   -0.2124   23.8396 C.ar    1  UNL1       -0.0245
      5 C           1.9066    0.4100   22.7951 C.ar    1  UNL1       -0.0217
      6 C           1.0131    1.5600   23.1545 C.ar    1  UNL1        0.0324
      7 C           1.7690    0.0407   21.3477 C.3     1  UNL1        0.0434
      8 C           2.4759   -1.0422   20.5875 C.3     1  UNL1        0.0768
      9 N           3.4947   -2.0231   21.0869 N.3     1  UNL1       -0.2734
     10 C           4.0585   -2.1636   22.4699 C.3     1  UNL1        0.0768
     11 C           3.7426   -1.3578   23.6949 C.3     1  UNL1        0.0433
     12 C           4.0192   -2.9917   20.0688 C.3     1  UNL1        0.0575
     13 C           3.4733   -4.2089   19.3828 C.3     1  UNL1        0.0160
     14 C           4.7611   -4.3617   18.6289 C.3     1  UNL1        0.0028
     15 C           5.3070   -3.1445   19.3149 C.3     1  UNL1        0.0160
     16 O           0.1046    3.2378   24.9180 O.3     1  UNL1       -0.4707
     17 C          -0.9547    3.0654   25.9659 C.3     1  UNL1        0.2320
     18 C          -7.1427    6.0573   26.0493 C.3     1  UNL1        0.1335
     19 N          -6.4860    5.1883   25.0180 N.ar    1  UNL1       -0.2935
     20 C          -7.2120    4.8501   23.7497 C.ar    1  UNL1        0.2610
     21 O          -8.5948    5.3808   23.5127 O.2     1  UNL1       -0.2670
     22 C          -6.5552    3.9812   22.7184 C.ar    1  UNL1        0.0608
     23 C          -5.1723    3.4505   22.9554 C.ar    1  UNL1        0.0063
     24 C          -4.4463    3.7887   24.2237 C.ar    1  UNL1        0.0158
     25 C          -3.0635    3.2579   24.4607 C.ar    1  UNL1        0.0007
     26 C          -2.3375    3.5962   25.7289 C.ar    1  UNL1        0.0213
     27 C          -2.9943    4.4651   26.7602 C.ar    1  UNL1        0.0008
     28 C          -4.3771    4.9958   26.5233 C.ar    1  UNL1        0.0171
     29 C          -5.1031    4.6576   25.2550 C.ar    1  UNL1        0.0625
@<TRIPOS>BOND
     1    18    19    1
     2    19    20   ar
     3    20    21    2
     4    20    22   ar
     5    22    23   ar
     6    23    24   ar
     7    24    25   ar
     8    25    26   ar
     9    26    17    1
    10    17    16    1
    11    16     1    1
    12     1     2   ar
    13     2     3   ar
    14     3     4   ar
    15     4     5   ar
    16     5     6   ar
    17     5     7    1
    18     7     8    1
    19     8     9    1
    20     9    12    1
    21    12    13    1
    22    13    14    1
    23    14    15    1
    24     9    10    1
    25    10    11    1
    26    26    27   ar
    27    27    28   ar
    28    28    29   ar
    29    29    19   ar
    30    29    24   ar
    31     6     1   ar
    32    15    12    1
    33    11     4    1
@<TRIPOS>MOLECULE
*****
 29 33 0 0 0
SMALL
GASTEIGER

@<TRIPOS>ATOM
      1 C          -0.2556    2.4641   22.6872 C.ar    1  UNL1        0.1387
      2 C          -1.3730    3.1810   23.3853 C.ar    1  UNL1        0.0366
      3 C          -1.4457    3.1780   24.8836 C.ar    1  UNL1       -0.0014
      4 C          -0.4009    2.4580   25.6837 C.ar    1  UNL1       -0.0245
      5 C           0.7164    1.7412   24.9856 C.ar    1  UNL1       -0.0217
      6 C           0.7892    1.7442   23.4874 C.ar    1  UNL1        0.0324
      7 C           1.8520    0.9678   25.5877 C.3     1  UNL1        0.0434
      8 C           2.1505    0.7205   27.0369 C.3     1  UNL1        0.0768
      9 N           1.3872    1.1853   28.2415 N.3     1  UNL1       -0.2734
     10 C           0.1369    2.0123   28.2948 C.3     1  UNL1        0.0768
     11 C          -0.6589    2.5787   27.1564 C.3     1  UNL1        0.0433
     12 C           1.9484    0.7679   29.5684 C.3     1  UNL1        0.0575
     13 C           2.5039   -0.5066   30.1317 C.3     1  UNL1        0.0160
     14 C           2.7421    0.1776   31.4451 C.3     1  UNL1        0.0028
     15 C           2.1866    1.4520   30.8819 C.3     1  UNL1        0.0160
     16 O          -0.1829    2.4672   21.1890 O.3     1  UNL1       -0.4707
     17 C          -0.1307    1.1697   20.4380 C.3     1  UNL1        0.2320
     18 C           5.7272    0.3561   16.9348 C.3     1  UNL1        0.1335
     19 N           4.9815   -0.5855   17.8334 N.ar    1  UNL1       -0.2935
     20 C           5.5139   -1.9659   18.0809 C.ar    1  UNL1        0.2610
     21 O           6.7920   -2.4046   17.4297 O.2     1  UNL1       -0.2670
     22 C           4.7683   -2.9074   18.9794 C.ar    1  UNL1        0.0608
     23 C           3.4902   -2.4686   19.6306 C.ar    1  UNL1        0.0063
     24 C           2.9578   -1.0882   19.3831 C.ar    1  UNL1        0.0158
     25 C           1.6797   -0.6495   20.0343 C.ar    1  UNL1        0.0007
     26 C           1.1474    0.7309   19.7869 C.ar    1  UNL1        0.0213
     27 C           1.8930    1.6724   18.8883 C.ar    1  UNL1        0.0008
     28 C           3.1711    1.2336   18.2372 C.ar    1  UNL1        0.0171
     29 C           3.7034   -0.1467   18.4846 C.ar    1  UNL1        0.0625
@<TRIPOS>BOND
     1    18    19    1
     2    19    20   ar
     3    20    21    2
     4    20    22   ar
     5    22    23   ar
     6    23    24   ar
     7    24    25   ar
     8    25    26   ar
     9    26    17    1
    10    17    16    1
    11    16     1    1
    12     1     2   ar
    13     2     3   ar
    14     3     4   ar
    15     4     5   ar
    16     5     6   ar
    17     5     7    1
    18     7     8    1
    19     8     9    1
    20     9    12    1
    21    12    13    1
    22    13    14    1
    23    14    15    1
    24     9    10    1
    25    10    11    1
    26    26    27   ar
    27    27    28   ar
    28    28    29   ar
    29    29    19   ar
    30    29    24   ar
    31     6     1   ar
    32    15    12    1
    33    11     4    1
