@<TRIPOS>MOLECULE
*****
 26 29 0 0 0
SMALL
GASTEIGER

@<TRIPOS>ATOM
      1 C         -13.1101  -17.4384   21.6150 C.3     1  UNL1        0.1538
      2 N         -11.6355  -17.3612   21.8786 N.ar    1  UNL1       -0.2461
      3 C         -10.5559  -17.9731   21.0359 C.ar    1  UNL1        0.1113
      4 C          -9.2347  -17.6487   21.6678 C.ar    1  UNL1        0.0891
      5 C          -9.4977  -16.8363   22.9010 C.ar    1  UNL1        0.1158
      6 N         -10.9815  -16.6587   23.0313 N.ar    1  UNL1       -0.1679
      7 C          -8.4594  -16.2964   23.8392 C.ar    1  UNL1        0.0215
      8 C          -7.1218  -15.8687   23.3118 C.ar    1  UNL1        0.0016
      9 C          -6.0834  -15.3287   24.2500 C.ar    1  UNL1        0.0009
     10 C          -6.3826  -15.2165   25.7156 C.ar    1  UNL1        0.0114
     11 C          -7.7201  -15.6442   26.2430 C.ar    1  UNL1        0.0577
     12 CL         -8.0192  -15.5320   27.7086 Cl      1  UNL1       -0.0822
     13 C          -8.7585  -16.1841   25.3048 C.ar    1  UNL1        0.0130
     14 N          -7.8871  -18.0638   21.1562 N.am    1  UNL1       -0.2778
     15 C          -7.2326  -19.3043   21.6879 C.2     1  UNL1        0.2541
     16 O          -7.9256  -20.1298   22.7310 O.2     1  UNL1       -0.2696
     17 H          -7.4323  -17.5220   20.4716 H       1  UNL1        0.1553
     18 C          -5.8850  -19.7193   21.1762 C.ar    1  UNL1        0.1102
     19 C          -5.6108  -20.8528   20.2329 C.ar    1  UNL1        0.1281
     20 N          -4.1313  -20.9077   19.9918 N.ar    1  UNL1       -0.1619
     21 N          -3.4911  -19.8081   20.7861 N.ar    1  UNL1       -0.2105
     22 C          -2.0613  -19.3807   20.9375 C.ar    1  UNL1        0.1037
     23 C          -1.7153  -18.2188   21.8209 C.ar    1  UNL1        0.0414
     24 C          -2.7991  -17.4844   22.5529 C.ar    1  UNL1        0.1022
     25 N          -4.2290  -17.9118   22.4016 N.ar    1  UNL1       -0.2248
     26 C          -4.5750  -19.0736   21.5182 C.ar    1  UNL1        0.1697
@<TRIPOS>BOND
     1     1     2    1
     2     2     3   ar
     3     3     4   ar
     4     4    14    1
     5    14    15   am
     6    15    16    2
     7    15    18    1
     8    18    19   ar
     9    19    20   ar
    10    20    21   ar
    11    21    22   ar
    12    22    23   ar
    13    23    24   ar
    14    24    25   ar
    15    25    26   ar
    16     4     5   ar
    17     5     7    1
    18     7     8   ar
    19     8     9   ar
    20     9    10   ar
    21    10    11   ar
    22    11    12    1
    23    11    13   ar
    24     5     6   ar
    25     6     2   ar
    26    26    18   ar
    27    13     7   ar
    28    26    21   ar
    29    14    17    1
@<TRIPOS>MOLECULE
*****
 26 29 0 0 0
SMALL
GASTEIGER

@<TRIPOS>ATOM
      1 C         -11.8311  -18.1798   21.2422 C.3     1  UNL1        0.1538
      2 N         -10.5133  -17.8954   21.8999 N.ar    1  UNL1       -0.2461
      3 C          -9.1590  -18.1468   21.3059 C.ar    1  UNL1        0.1113
      4 C          -8.1272  -17.7165   22.3060 C.ar    1  UNL1        0.0891
      5 C          -8.8437  -17.1991   23.5180 C.ar    1  UNL1        0.1158
      6 N         -10.3184  -17.3097   23.2670 N.ar    1  UNL1       -0.1679
      7 C          -8.1987  -16.6650   24.7624 C.ar    1  UNL1        0.0215
      8 C          -8.8640  -16.8560   26.0932 C.ar    1  UNL1        0.0016
      9 C          -8.2191  -16.3219   27.3377 C.ar    1  UNL1        0.0009
     10 C          -6.9088  -15.5967   27.2514 C.ar    1  UNL1        0.0114
     11 C          -6.2435  -15.4057   25.9206 C.ar    1  UNL1        0.0577
     12 CL         -4.9333  -14.6805   25.8343 Cl      1  UNL1       -0.0822
     13 C          -6.8885  -15.9398   24.6762 C.ar    1  UNL1        0.0130
     14 N          -6.6399  -17.7906   22.1256 N.am    1  UNL1       -0.2778
     15 C          -5.9772  -19.1167   21.8970 C.2     1  UNL1        0.2541
     16 O          -6.8017  -20.3688   21.8487 O.2     1  UNL1       -0.2696
     17 H          -6.0987  -16.9688   22.1573 H       1  UNL1        0.1553
     18 C          -4.4899  -19.1906   21.7166 C.ar    1  UNL1        0.1102
     19 C          -3.5173  -19.8264   22.6651 C.ar    1  UNL1        0.1281
     20 N          -2.1404  -19.6704   22.0908 N.ar    1  UNL1       -0.1619
     21 N          -2.2620  -18.9383   20.7873 N.ar    1  UNL1       -0.2105
     22 C          -1.2382  -18.5034   19.7810 C.ar    1  UNL1        0.1037
     23 C          -1.6665  -17.7718   18.5435 C.ar    1  UNL1        0.0414
     24 C          -3.1186  -17.4753   18.3122 C.ar    1  UNL1        0.1022
     25 N          -4.1425  -17.9102   19.3185 N.ar    1  UNL1       -0.2248
     26 C          -3.7142  -18.6418   20.5560 C.ar    1  UNL1        0.1697
@<TRIPOS>BOND
     1     1     2    1
     2     2     3   ar
     3     3     4   ar
     4     4    14    1
     5    14    15   am
     6    15    16    2
     7    15    18    1
     8    18    19   ar
     9    19    20   ar
    10    20    21   ar
    11    21    22   ar
    12    22    23   ar
    13    23    24   ar
    14    24    25   ar
    15    25    26   ar
    16     4     5   ar
    17     5     7    1
    18     7     8   ar
    19     8     9   ar
    20     9    10   ar
    21    10    11   ar
    22    11    12    1
    23    11    13   ar
    24     5     6   ar
    25     6     2   ar
    26    26    18   ar
    27    13     7   ar
    28    26    21   ar
    29    14    17    1
@<TRIPOS>MOLECULE
*****
 26 29 0 0 0
SMALL
GASTEIGER

@<TRIPOS>ATOM
      1 C          -8.4692  -15.4017   26.9849 C.3     1  UNL1        0.1538
      2 N          -8.3129  -15.9390   25.5932 N.ar    1  UNL1       -0.2461
      3 C          -7.0149  -16.2516   24.9094 C.ar    1  UNL1        0.1113
      4 C          -7.3269  -16.7638   23.5345 C.ar    1  UNL1        0.0891
      5 C          -8.8177  -16.7677   23.3685 C.ar    1  UNL1        0.1158
      6 N          -9.4270  -16.2579   24.6408 N.ar    1  UNL1       -0.1679
      7 C          -9.5675  -17.2046   22.1450 C.ar    1  UNL1        0.0215
      8 C          -9.5947  -18.6541   21.7597 C.ar    1  UNL1        0.0016
      9 C         -10.3444  -19.0910   20.5363 C.ar    1  UNL1        0.0009
     10 C         -11.0671  -18.0784   19.6980 C.ar    1  UNL1        0.0114
     11 C         -11.0399  -16.6290   20.0833 C.ar    1  UNL1        0.0577
     12 CL        -11.7625  -15.6164   19.2450 Cl      1  UNL1       -0.0822
     13 C         -10.2901  -16.1921   21.3068 C.ar    1  UNL1        0.0130
     14 N          -6.3242  -17.1961   22.5061 N.am    1  UNL1       -0.2778
     15 C          -6.1148  -18.6555   22.2299 C.2     1  UNL1        0.2541
     16 O          -6.9081  -19.6826   22.9819 O.2     1  UNL1       -0.2696
     17 H          -5.8035  -16.5221   22.0124 H       1  UNL1        0.1553
     18 C          -5.1120  -19.0878   21.2015 C.ar    1  UNL1        0.1102
     19 C          -5.2414  -20.2686   20.2856 C.ar    1  UNL1        0.1281
     20 N          -4.0131  -20.3256   19.4265 N.ar    1  UNL1       -0.1619
     21 N          -3.1245  -19.1802   19.8114 N.ar    1  UNL1       -0.2105
     22 C          -1.7847  -18.7349   19.3048 C.ar    1  UNL1        0.1037
     23 C          -1.1241  -17.5245   19.8952 C.ar    1  UNL1        0.0414
     24 C          -1.8032  -16.7594   20.9922 C.ar    1  UNL1        0.1022
     25 N          -3.1431  -17.2047   21.4989 N.ar    1  UNL1       -0.2248
     26 C          -3.8037  -18.4151   20.9085 C.ar    1  UNL1        0.1697
@<TRIPOS>BOND
     1     1     2    1
     2     2     3   ar
     3     3     4   ar
     4     4    14    1
     5    14    15   am
     6    15    16    2
     7    15    18    1
     8    18    19   ar
     9    19    20   ar
    10    20    21   ar
    11    21    22   ar
    12    22    23   ar
    13    23    24   ar
    14    24    25   ar
    15    25    26   ar
    16     4     5   ar
    17     5     7    1
    18     7     8   ar
    19     8     9   ar
    20     9    10   ar
    21    10    11   ar
    22    11    12    1
    23    11    13   ar
    24     5     6   ar
    25     6     2   ar
    26    26    18   ar
    27    13     7   ar
    28    26    21   ar
    29    14    17    1
@<TRIPOS>MOLECULE
*****
 26 29 0 0 0
SMALL
GASTEIGER

@<TRIPOS>ATOM
      1 C          -8.4150  -14.8172   27.6155 C.3     1  UNL1        0.1538
      2 N          -8.2203  -15.4516   26.2703 N.ar    1  UNL1       -0.2461
      3 C          -6.9158  -15.5966   25.5442 C.ar    1  UNL1        0.1113
      4 C          -7.1854  -16.2870   24.2402 C.ar    1  UNL1        0.0891
      5 C          -8.6565  -16.5687   24.1602 C.ar    1  UNL1        0.1158
      6 N          -9.2961  -16.0524   25.4149 N.ar    1  UNL1       -0.1679
      7 C          -9.3638  -17.2476   23.0249 C.ar    1  UNL1        0.0215
      8 C          -9.3645  -18.7446   22.9295 C.ar    1  UNL1        0.0016
      9 C         -10.0718  -19.4234   21.7942 C.ar    1  UNL1        0.0009
     10 C         -10.7783  -18.6053   20.7542 C.ar    1  UNL1        0.0114
     11 C         -10.7776  -17.1083   20.8496 C.ar    1  UNL1        0.0577
     12 CL        -11.4841  -16.2901   19.8097 Cl      1  UNL1       -0.0822
     13 C         -10.0703  -16.4295   21.9849 C.ar    1  UNL1        0.0130
     14 N          -6.1632  -16.6347   23.1988 N.am    1  UNL1       -0.2778
     15 C          -4.7336  -16.8557   23.5956 C.2     1  UNL1        0.2541
     16 O          -4.3261  -16.7292   25.0336 O.2     1  UNL1       -0.2696
     17 H          -6.4306  -16.7177   22.2550 H       1  UNL1        0.1553
     18 C          -3.7115  -17.2034   22.5542 C.ar    1  UNL1        0.1102
     19 C          -2.4134  -16.4894   22.3199 C.ar    1  UNL1        0.1281
     20 N          -1.7077  -17.1709   21.1852 N.ar    1  UNL1       -0.1619
     21 N          -2.5697  -18.3061   20.7180 N.ar    1  UNL1       -0.2105
     22 C          -2.3870  -19.3240   19.6316 C.ar    1  UNL1        0.1037
     23 C          -3.4428  -20.3621   19.3913 C.ar    1  UNL1        0.0414
     24 C          -4.6812  -20.3823   20.2373 C.ar    1  UNL1        0.1022
     25 N          -4.8640  -19.3642   21.3238 N.ar    1  UNL1       -0.2248
     26 C          -3.8082  -18.3261   21.5642 C.ar    1  UNL1        0.1697
@<TRIPOS>BOND
     1     1     2    1
     2     2     3   ar
     3     3     4   ar
     4     4    14    1
     5    14    15   am
     6    15    16    2
     7    15    18    1
     8    18    19   ar
     9    19    20   ar
    10    20    21   ar
    11    21    22   ar
    12    22    23   ar
    13    23    24   ar
    14    24    25   ar
    15    25    26   ar
    16     4     5   ar
    17     5     7    1
    18     7     8   ar
    19     8     9   ar
    20     9    10   ar
    21    10    11   ar
    22    11    12    1
    23    11    13   ar
    24     5     6   ar
    25     6     2   ar
    26    26    18   ar
    27    13     7   ar
    28    26    21   ar
    29    14    17    1
@<TRIPOS>MOLECULE
*****
 26 29 0 0 0
SMALL
GASTEIGER

@<TRIPOS>ATOM
      1 C          -6.9618  -14.7635   27.5659 C.3     1  UNL1        0.1538
      2 N          -7.2806  -15.4513   26.2716 N.ar    1  UNL1       -0.2461
      3 C          -6.2841  -15.9165   25.2515 C.ar    1  UNL1        0.1113
      4 C          -7.0396  -16.5474   24.1196 C.ar    1  UNL1        0.0891
      5 C          -8.5030  -16.4720   24.4400 C.ar    1  UNL1        0.1158
      6 N          -8.6520  -15.7946   25.7700 N.ar    1  UNL1       -0.1679
      7 C          -9.6212  -16.9842   23.5813 C.ar    1  UNL1        0.0215
      8 C         -10.6405  -16.0315   23.0303 C.ar    1  UNL1        0.0016
      9 C         -11.7587  -16.5437   22.1716 C.ar    1  UNL1        0.0009
     10 C         -11.8575  -18.0085   21.8638 C.ar    1  UNL1        0.0114
     11 C         -10.8382  -18.9610   22.4148 C.ar    1  UNL1        0.0577
     12 CL        -10.9371  -20.4259   22.1071 Cl      1  UNL1       -0.0822
     13 C          -9.7201  -18.4489   23.2735 C.ar    1  UNL1        0.0130
     14 N          -6.4374  -17.1481   22.8841 N.am    1  UNL1       -0.2778
     15 C          -5.1092  -17.8412   22.9579 C.2     1  UNL1        0.2541
     16 O          -4.3831  -17.9336   24.2672 O.2     1  UNL1       -0.2696
     17 H          -6.9139  -17.0875   22.0247 H       1  UNL1        0.1553
     18 C          -4.5070  -18.4419   21.7224 C.ar    1  UNL1        0.1102
     19 C          -5.0634  -19.5954   20.9416 C.ar    1  UNL1        0.1281
     20 N          -4.1430  -19.8609   19.7874 N.ar    1  UNL1       -0.1619
     21 N          -3.0176  -18.8715   19.8547 N.ar    1  UNL1       -0.2105
     22 C          -1.8171  -18.6558   18.9817 C.ar    1  UNL1        0.1037
     23 C          -0.8415  -17.5631   19.3046 C.ar    1  UNL1        0.0414
     24 C          -1.0665  -16.6861   20.5005 C.ar    1  UNL1        0.1022
     25 N          -2.2671  -16.9017   21.3736 N.ar    1  UNL1       -0.2248
     26 C          -3.2426  -17.9945   21.0507 C.ar    1  UNL1        0.1697
@<TRIPOS>BOND
     1     1     2    1
     2     2     3   ar
     3     3     4   ar
     4     4    14    1
     5    14    15   am
     6    15    16    2
     7    15    18    1
     8    18    19   ar
     9    19    20   ar
    10    20    21   ar
    11    21    22   ar
    12    22    23   ar
    13    23    24   ar
    14    24    25   ar
    15    25    26   ar
    16     4     5   ar
    17     5     7    1
    18     7     8   ar
    19     8     9   ar
    20     9    10   ar
    21    10    11   ar
    22    11    12    1
    23    11    13   ar
    24     5     6   ar
    25     6     2   ar
    26    26    18   ar
    27    13     7   ar
    28    26    21   ar
    29    14    17    1
@<TRIPOS>MOLECULE
*****
 26 29 0 0 0
SMALL
GASTEIGER

@<TRIPOS>ATOM
      1 C          -9.2247   -7.6157   18.8249 C.3     1  UNL1        0.1538
      2 N         -10.3802   -6.6708   18.9724 N.ar    1  UNL1       -0.2461
      3 C         -10.2958   -5.1736   19.0092 C.ar    1  UNL1        0.1113
      4 C         -11.6865   -4.6347   19.1685 C.ar    1  UNL1        0.0891
      5 C         -12.6305   -5.7987   19.2301 C.ar    1  UNL1        0.1158
      6 N         -11.8232   -7.0571   19.1089 N.ar    1  UNL1       -0.1679
      7 C         -14.1203   -5.7185   19.3856 C.ar    1  UNL1        0.0215
      8 C         -14.7499   -4.4789   19.9488 C.ar    1  UNL1        0.0016
      9 C         -16.2397   -4.3987   20.1043 C.ar    1  UNL1        0.0009
     10 C         -17.0998   -5.5580   19.6966 C.ar    1  UNL1        0.0114
     11 C         -16.4702   -6.7975   19.1335 C.ar    1  UNL1        0.0577
     12 CL        -17.3303   -7.9569   18.7258 Cl      1  UNL1       -0.0822
     13 C         -14.9804   -6.8777   18.9780 C.ar    1  UNL1        0.0130
     14 N         -12.0665   -3.1860   19.2516 N.am    1  UNL1       -0.2778
     15 C         -12.4159   -2.4295   18.0043 C.2     1  UNL1        0.2541
     16 O         -12.3853   -3.1217   16.6739 O.2     1  UNL1       -0.2696
     17 H         -12.0866   -2.7316   20.1247 H       1  UNL1        0.1553
     18 C         -12.7959   -0.9808   18.0875 C.ar    1  UNL1        0.1102
     19 C         -11.9941    0.1726   17.5616 C.ar    1  UNL1        0.1281
     20 N         -12.7472    1.4350   17.8603 N.ar    1  UNL1       -0.1619
     21 N         -14.0143    1.0619   18.5708 N.ar    1  UNL1       -0.2105
     22 C         -15.1447    1.8887   19.1081 C.ar    1  UNL1        0.1037
     23 C         -16.3052    1.2224   19.7859 C.ar    1  UNL1        0.0414
     24 C         -16.3354   -0.2707   19.9263 C.ar    1  UNL1        0.1022
     25 N         -15.2050   -1.0976   19.3890 N.ar    1  UNL1       -0.2248
     26 C         -14.0445   -0.4313   18.7113 C.ar    1  UNL1        0.1697
@<TRIPOS>BOND
     1     1     2    1
     2     2     3   ar
     3     3     4   ar
     4     4    14    1
     5    14    15   am
     6    15    16    2
     7    15    18    1
     8    18    19   ar
     9    19    20   ar
    10    20    21   ar
    11    21    22   ar
    12    22    23   ar
    13    23    24   ar
    14    24    25   ar
    15    25    26   ar
    16     4     5   ar
    17     5     7    1
    18     7     8   ar
    19     8     9   ar
    20     9    10   ar
    21    10    11   ar
    22    11    12    1
    23    11    13   ar
    24     5     6   ar
    25     6     2   ar
    26    26    18   ar
    27    13     7   ar
    28    26    21   ar
    29    14    17    1
