@<TRIPOS>MOLECULE
*****
 17 19 0 0 0
SMALL
GASTEIGER

@<TRIPOS>ATOM
      1 N          -8.1007  -19.1810   20.7850 N.3     1  UNL1       -0.2648
      2 C          -7.7685  -18.3255   21.9713 C.3     1  UNL1        0.0779
      3 C          -6.3506  -18.2252   22.4503 C.3     1  UNL1        0.0500
      4 C          -5.2648  -18.9805   21.7428 C.ar    1  UNL1        0.0060
      5 S          -3.7874  -19.0758   21.9839 S.2     1  UNL1       -0.0910
      6 C          -3.2065  -19.9903   20.9465 C.ar    1  UNL1        0.0348
      7 C          -4.3249  -20.4602   20.0642 C.ar    1  UNL1        0.0042
      8 C          -5.5970  -19.8361   20.5564 C.ar    1  UNL1       -0.0036
      9 C          -7.0150  -19.9364   20.0775 C.3     1  UNL1        0.0996
     10 C          -9.5187  -19.2813   20.3060 C.3     1  UNL1        0.1002
     11 CL        -10.7163  -20.2773   22.8699 Cl      1  UNL1       -0.0825
     12 C         -11.1964  -18.9899   22.2682 C.ar    1  UNL1        0.0550
     13 C         -12.2754  -18.2005   22.9485 C.ar    1  UNL1        0.0111
     14 C         -12.7555  -16.9131   22.3468 C.ar    1  UNL1        0.0008
     15 C         -12.1567  -16.4150   21.0648 C.ar    1  UNL1       -0.0002
     16 C         -11.0778  -17.2045   20.3846 C.ar    1  UNL1       -0.0021
     17 C         -10.5976  -18.4919   20.9863 C.ar    1  UNL1        0.0045
@<TRIPOS>BOND
     1    11    12    1
     2    12    13   ar
     3    13    14   ar
     4    14    15   ar
     5    15    16   ar
     6    16    17   ar
     7    17    10    1
     8    10     1    1
     9     1     2    1
    10     2     3    1
    11     3     4    1
    12     4     5   ar
    13     5     6   ar
    14     6     7   ar
    15     7     8   ar
    16     8     9    1
    17    17    12   ar
    18     9     1    1
    19     8     4   ar
@<TRIPOS>MOLECULE
*****
 17 19 0 0 0
SMALL
GASTEIGER

@<TRIPOS>ATOM
      1 N          -6.8225  -19.4967   21.1764 N.3     1  UNL1       -0.2648
      2 C          -6.0945  -20.4001   20.2258 C.3     1  UNL1        0.0779
      3 C          -4.5953  -20.4474   20.2354 C.3     1  UNL1        0.0500
      4 C          -3.8241  -19.5912   21.1957 C.ar    1  UNL1        0.0060
      5 S          -2.3525  -19.4262   21.4345 S.2     1  UNL1       -0.0910
      6 C          -2.1710  -18.4207   22.5328 C.ar    1  UNL1        0.0348
      7 C          -3.5305  -17.9643   22.9727 C.ar    1  UNL1        0.0042
      8 C          -4.5522  -18.6877   22.1464 C.ar    1  UNL1       -0.0036
      9 C          -6.0514  -18.6405   22.1367 C.3     1  UNL1        0.0996
     10 C          -8.3218  -19.4494   21.1667 C.3     1  UNL1        0.1002
     11 CL         -9.6071  -16.7958   21.7202 Cl      1  UNL1       -0.0825
     12 C          -9.7162  -17.9057   22.7233 C.ar    1  UNL1        0.0550
     13 C         -10.4679  -17.6888   24.0031 C.ar    1  UNL1        0.0111
     14 C         -10.5769  -18.7986   25.0062 C.ar    1  UNL1        0.0008
     15 C          -9.9343  -20.1255   24.7295 C.ar    1  UNL1       -0.0002
     16 C          -9.1826  -20.3424   23.4497 C.ar    1  UNL1       -0.0021
     17 C          -9.0735  -19.2325   22.4465 C.ar    1  UNL1        0.0045
@<TRIPOS>BOND
     1    11    12    1
     2    12    13   ar
     3    13    14   ar
     4    14    15   ar
     5    15    16   ar
     6    16    17   ar
     7    17    10    1
     8    10     1    1
     9     1     2    1
    10     2     3    1
    11     3     4    1
    12     4     5   ar
    13     5     6   ar
    14     6     7   ar
    15     7     8   ar
    16     8     9    1
    17    17    12   ar
    18     9     1    1
    19     8     4   ar
@<TRIPOS>MOLECULE
*****
 17 19 0 0 0
SMALL
GASTEIGER

@<TRIPOS>ATOM
      1 N          -6.7661  -18.9629   21.8100 N.3     1  UNL1       -0.2648
      2 C          -7.1186  -17.7738   22.6534 C.3     1  UNL1        0.0779
      3 C          -8.4568  -17.1141   22.4981 C.3     1  UNL1        0.0500
      4 C          -9.4425  -17.6438   21.4992 C.ar    1  UNL1        0.0060
      5 S         -10.8275  -17.2050   21.1261 S.2     1  UNL1       -0.0910
      6 C         -11.3310  -18.1230   20.0520 C.ar    1  UNL1        0.0348
      7 C         -10.2572  -19.1293   19.7613 C.ar    1  UNL1        0.0042
      8 C          -9.0901  -18.8331   20.6557 C.ar    1  UNL1       -0.0036
      9 C          -7.7518  -19.4926   20.8111 C.3     1  UNL1        0.0996
     10 C          -5.4279  -19.6226   21.9653 C.3     1  UNL1        0.1002
     11 CL         -3.6116  -17.8746   23.5919 Cl      1  UNL1       -0.0825
     12 C          -3.3043  -18.1369   22.1474 C.ar    1  UNL1        0.0550
     13 C          -2.0889  -17.5251   21.5160 C.ar    1  UNL1        0.0111
     14 C          -1.7816  -17.7872   20.0716 C.ar    1  UNL1        0.0008
     15 C          -2.6897  -18.6613   19.2582 C.ar    1  UNL1       -0.0002
     16 C          -3.9051  -19.2730   19.8894 C.ar    1  UNL1       -0.0021
     17 C          -4.2125  -19.0108   21.3341 C.ar    1  UNL1        0.0045
@<TRIPOS>BOND
     1    11    12    1
     2    12    13   ar
     3    13    14   ar
     4    14    15   ar
     5    15    16   ar
     6    16    17   ar
     7    17    10    1
     8    10     1    1
     9     1     2    1
    10     2     3    1
    11     3     4    1
    12     4     5   ar
    13     5     6   ar
    14     6     7   ar
    15     7     8   ar
    16     8     9    1
    17    17    12   ar
    18     9     1    1
    19     8     4   ar
@<TRIPOS>MOLECULE
*****
 17 19 0 0 0
SMALL
GASTEIGER

@<TRIPOS>ATOM
      1 N          -7.2945  -17.9142   22.3691 N.3     1  UNL1       -0.2648
      2 C          -7.8130  -18.6849   21.1915 C.3     1  UNL1        0.0779
      3 C          -6.8792  -19.5340   20.3807 C.3     1  UNL1        0.0500
      4 C          -5.4269  -19.6122   20.7478 C.ar    1  UNL1        0.0060
      5 S          -4.2770  -20.3596   20.1402 S.2     1  UNL1       -0.0910
      6 C          -3.0478  -20.0506   20.9424 C.ar    1  UNL1        0.0348
      7 C          -3.4380  -19.1124   22.0458 C.ar    1  UNL1        0.0042
      8 C          -4.9084  -18.8414   21.9255 C.ar    1  UNL1       -0.0036
      9 C          -5.8422  -17.9924   22.7362 C.3     1  UNL1        0.0996
     10 C          -8.2282  -17.0651   23.1799 C.3     1  UNL1        0.1002
     11 CL        -10.2751  -15.8766   21.3366 Cl      1  UNL1       -0.0825
     12 C         -10.6946  -16.8586   22.3899 C.ar    1  UNL1        0.0550
     13 C         -12.1377  -17.2465   22.5216 C.ar    1  UNL1        0.0111
     14 C         -12.5573  -18.2285   23.5749 C.ar    1  UNL1        0.0008
     15 C         -11.5339  -18.8228   24.4966 C.ar    1  UNL1       -0.0002
     16 C         -10.0909  -18.4350   24.3649 C.ar    1  UNL1       -0.0021
     17 C          -9.6712  -17.4529   23.3116 C.ar    1  UNL1        0.0045
@<TRIPOS>BOND
     1    11    12    1
     2    12    13   ar
     3    13    14   ar
     4    14    15   ar
     5    15    16   ar
     6    16    17   ar
     7    17    10    1
     8    10     1    1
     9     1     2    1
    10     2     3    1
    11     3     4    1
    12     4     5   ar
    13     5     6   ar
    14     6     7   ar
    15     7     8   ar
    16     8     9    1
    17    17    12   ar
    18     9     1    1
    19     8     4   ar
@<TRIPOS>MOLECULE
*****
 17 19 0 0 0
SMALL
GASTEIGER

@<TRIPOS>ATOM
      1 N          -6.6000  -19.6492   21.8166 N.3     1  UNL1       -0.2648
      2 C          -6.1594  -20.5319   20.6868 C.3     1  UNL1        0.0779
      3 C          -4.7319  -20.5048   20.2266 C.3     1  UNL1        0.0500
      4 C          -3.7452  -19.5950   20.8963 C.ar    1  UNL1        0.0060
      5 S          -2.2834  -19.3534   20.6622 S.2     1  UNL1       -0.0910
      6 C          -1.8207  -18.3213   21.6474 C.ar    1  UNL1        0.0348
      7 C          -2.9964  -17.9250   22.4904 C.ar    1  UNL1        0.0042
      8 C          -4.1859  -18.7123   22.0262 C.ar    1  UNL1       -0.0036
      9 C          -5.6133  -18.7394   22.4863 C.3     1  UNL1        0.0996
     10 C          -8.0275  -19.6762   22.2768 C.3     1  UNL1        0.1002
     11 CL         -8.7287  -16.9384   23.2830 Cl      1  UNL1       -0.0825
     12 C          -9.4119  -17.4879   22.0659 C.ar    1  UNL1        0.0550
     13 C         -10.4457  -16.6684   21.3519 C.ar    1  UNL1        0.0111
     14 C         -11.1288  -17.2178   20.1348 C.ar    1  UNL1        0.0008
     15 C         -10.7783  -18.5868   19.6317 C.ar    1  UNL1       -0.0002
     16 C          -9.7445  -19.4062   20.3457 C.ar    1  UNL1       -0.0021
     17 C          -9.0613  -18.8568   21.5628 C.ar    1  UNL1        0.0045
@<TRIPOS>BOND
     1    11    12    1
     2    12    13   ar
     3    13    14   ar
     4    14    15   ar
     5    15    16   ar
     6    16    17   ar
     7    17    10    1
     8    10     1    1
     9     1     2    1
    10     2     3    1
    11     3     4    1
    12     4     5   ar
    13     5     6   ar
    14     6     7   ar
    15     7     8   ar
    16     8     9    1
    17    17    12   ar
    18     9     1    1
    19     8     4   ar
@<TRIPOS>MOLECULE
*****
 17 19 0 0 0
SMALL
GASTEIGER

@<TRIPOS>ATOM
      1 N          -8.3225  -19.2884   21.8451 N.3     1  UNL1       -0.2648
      2 C          -8.8543  -19.4301   20.4498 C.3     1  UNL1        0.0779
      3 C         -10.0377  -18.6189   20.0122 C.3     1  UNL1        0.0500
      4 C         -10.6893  -17.6660   20.9700 C.ar    1  UNL1        0.0060
      5 S         -11.8612  -16.7411   20.8245 S.2     1  UNL1       -0.0910
      6 C         -12.0536  -16.0278   22.1299 C.ar    1  UNL1        0.0348
      7 C         -11.0006  -16.5118   23.0823 C.ar    1  UNL1        0.0042
      8 C         -10.1574  -17.5243   22.3654 C.ar    1  UNL1       -0.0036
      9 C          -8.9740  -18.3355   22.8029 C.3     1  UNL1        0.0996
     10 C          -7.1390  -20.0997   22.2827 C.3     1  UNL1        0.1002
     11 CL         -6.0996  -21.5569   19.8752 Cl      1  UNL1       -0.0825
     12 C          -5.2544  -20.5129   20.5428 C.ar    1  UNL1        0.0550
     13 C          -3.8893  -20.1976   20.0067 C.ar    1  UNL1        0.0111
     14 C          -3.0441  -19.1537   20.6742 C.ar    1  UNL1        0.0008
     15 C          -3.5638  -18.4250   21.8780 C.ar    1  UNL1       -0.0002
     16 C          -4.9287  -18.7403   22.4142 C.ar    1  UNL1       -0.0021
     17 C          -5.7740  -19.7843   21.7466 C.ar    1  UNL1        0.0045
@<TRIPOS>BOND
     1    11    12    1
     2    12    13   ar
     3    13    14   ar
     4    14    15   ar
     5    15    16   ar
     6    16    17   ar
     7    17    10    1
     8    10     1    1
     9     1     2    1
    10     2     3    1
    11     3     4    1
    12     4     5   ar
    13     5     6   ar
    14     6     7   ar
    15     7     8   ar
    16     8     9    1
    17    17    12   ar
    18     9     1    1
    19     8     4   ar
@<TRIPOS>MOLECULE
*****
 17 19 0 0 0
SMALL
GASTEIGER

@<TRIPOS>ATOM
      1 N          -7.4432  -19.4849   22.0814 N.3     1  UNL1       -0.2648
      2 C          -7.7780  -18.1782   21.4257 C.3     1  UNL1        0.0779
      3 C          -9.0532  -17.4692   21.7741 C.3     1  UNL1        0.0500
      4 C          -9.9935  -18.0671   22.7783 C.ar    1  UNL1        0.0060
      5 S         -11.3134  -17.6023   23.3184 S.2     1  UNL1       -0.0910
      6 C         -11.7943  -18.6219   24.3079 C.ar    1  UNL1        0.0348
      7 C         -10.7715  -19.7168   24.3794 C.ar    1  UNL1        0.0042
      8 C          -9.6585  -19.3740   23.4341 C.ar    1  UNL1       -0.0036
      9 C          -8.3834  -20.0829   23.0856 C.3     1  UNL1        0.0996
     10 C          -6.1680  -20.1939   21.7330 C.3     1  UNL1        0.1002
     11 CL         -3.9310  -20.7983   19.8276 Cl      1  UNL1       -0.0825
     12 C          -3.7352  -19.7862   20.9172 C.ar    1  UNL1        0.0550
     13 C          -2.4209  -19.0763   21.0541 C.ar    1  UNL1        0.0111
     14 C          -2.2251  -18.0643   22.1437 C.ar    1  UNL1        0.0008
     15 C          -3.3436  -17.7620   23.0965 C.ar    1  UNL1       -0.0002
     16 C          -4.6578  -18.4719   22.9596 C.ar    1  UNL1       -0.0021
     17 C          -4.8537  -19.4840   21.8699 C.ar    1  UNL1        0.0045
@<TRIPOS>BOND
     1    11    12    1
     2    12    13   ar
     3    13    14   ar
     4    14    15   ar
     5    15    16   ar
     6    16    17   ar
     7    17    10    1
     8    10     1    1
     9     1     2    1
    10     2     3    1
    11     3     4    1
    12     4     5   ar
    13     5     6   ar
    14     6     7   ar
    15     7     8   ar
    16     8     9    1
    17    17    12   ar
    18     9     1    1
    19     8     4   ar
@<TRIPOS>MOLECULE
*****
 17 19 0 0 0
SMALL
GASTEIGER

@<TRIPOS>ATOM
      1 N          -8.3550  -16.3237   22.4296 N.3     1  UNL1       -0.2648
      2 C          -7.5177  -17.5662   22.3587 C.3     1  UNL1        0.0779
      3 C          -7.9890  -18.7435   21.5576 C.3     1  UNL1        0.0500
      4 C          -9.2977  -18.6783   20.8274 C.ar    1  UNL1        0.0060
      5 S         -10.0163  -19.6729   19.9647 S.2     1  UNL1       -0.0910
      6 C         -11.2977  -19.0451   19.5024 C.ar    1  UNL1        0.0348
      7 C         -11.3711  -17.6624   20.0794 C.ar    1  UNL1        0.0042
      8 C         -10.1350  -17.4358   20.8983 C.ar    1  UNL1       -0.0036
      9 C          -9.6636  -16.2585   21.6994 C.3     1  UNL1        0.0996
     10 C          -7.8836  -15.1463   23.2307 C.3     1  UNL1        0.1002
     11 CL         -4.9889  -15.3658   23.9871 Cl      1  UNL1       -0.0825
     12 C          -6.0483  -15.4344   25.0468 C.ar    1  UNL1        0.0550
     13 C          -5.6602  -15.6127   26.4848 C.ar    1  UNL1        0.0111
     14 C          -6.7195  -15.6812   27.5445 C.ar    1  UNL1        0.0008
     15 C          -8.1669  -15.5714   27.1664 C.ar    1  UNL1       -0.0002
     16 C          -8.5550  -15.3931   25.7285 C.ar    1  UNL1       -0.0021
     17 C          -7.4956  -15.3246   24.6686 C.ar    1  UNL1        0.0045
@<TRIPOS>BOND
     1    11    12    1
     2    12    13   ar
     3    13    14   ar
     4    14    15   ar
     5    15    16   ar
     6    16    17   ar
     7    17    10    1
     8    10     1    1
     9     1     2    1
    10     2     3    1
    11     3     4    1
    12     4     5   ar
    13     5     6   ar
    14     6     7   ar
    15     7     8   ar
    16     8     9    1
    17    17    12   ar
    18     9     1    1
    19     8     4   ar
@<TRIPOS>MOLECULE
*****
 17 19 0 0 0
SMALL
GASTEIGER

@<TRIPOS>ATOM
      1 N          -5.1713  -19.1797   21.7101 N.3     1  UNL1       -0.2648
      2 C          -4.5506  -18.3417   22.7881 C.3     1  UNL1        0.0779
      3 C          -3.2552  -17.6299   22.5325 C.3     1  UNL1        0.0500
      4 C          -2.5805  -17.7563   21.1988 C.ar    1  UNL1        0.0060
      5 S          -1.3069  -17.1759   20.6592 S.2     1  UNL1       -0.0910
      6 C          -1.1406  -17.6553   19.2477 C.ar    1  UNL1        0.0348
      7 C          -2.3113  -18.5320   18.9148 C.ar    1  UNL1        0.0042
      8 C          -3.2013  -18.5944   20.1207 C.ar    1  UNL1       -0.0036
      9 C          -4.4967  -19.3061   20.3764 C.3     1  UNL1        0.0996
     10 C          -6.4668  -19.8915   21.9657 C.3     1  UNL1        0.1002
     11 CL         -8.4964  -18.0731   23.2202 Cl      1  UNL1       -0.0825
     12 C          -8.7136  -18.5942   21.8305 C.ar    1  UNL1        0.0550
     13 C          -9.9458  -18.2060   21.0680 C.ar    1  UNL1        0.0111
     14 C         -10.1630  -18.7270   19.6784 C.ar    1  UNL1        0.0008
     15 C          -9.1482  -19.6363   19.0510 C.ar    1  UNL1       -0.0002
     16 C          -7.9161  -20.0244   19.8135 C.ar    1  UNL1       -0.0021
     17 C          -7.6988  -19.5034   21.2032 C.ar    1  UNL1        0.0045
@<TRIPOS>BOND
     1    11    12    1
     2    12    13   ar
     3    13    14   ar
     4    14    15   ar
     5    15    16   ar
     6    16    17   ar
     7    17    10    1
     8    10     1    1
     9     1     2    1
    10     2     3    1
    11     3     4    1
    12     4     5   ar
    13     5     6   ar
    14     6     7   ar
    15     7     8   ar
    16     8     9    1
    17    17    12   ar
    18     9     1    1
    19     8     4   ar
