@<TRIPOS>MOLECULE
*****
 32 35 0 0 0
SMALL
GASTEIGER

@<TRIPOS>ATOM
      1 N          -8.6739  -19.3293   21.0957 N.3     1  UNL1       -0.2679
      2 C          -9.0449  -19.0534   22.5227 C.3     1  UNL1        0.0978
      3 C          -9.7586  -20.0987   23.3276 C.3     1  UNL1        0.0224
      4 C         -10.1296  -19.8229   24.7546 C.3     1  UNL1        0.0065
      5 C          -9.7869  -18.5017   25.3766 C.3     1  UNL1        0.0277
      6 C          -9.0733  -17.4563   24.5717 C.ar    1  UNL1       -0.0073
      7 C          -8.7306  -16.1351   25.1937 C.ar    1  UNL1       -0.0015
      8 C          -8.0170  -15.0897   24.3888 C.ar    1  UNL1        0.0203
      9 C          -7.6460  -15.3656   22.9618 C.ar    1  UNL1        0.0985
     10 N          -7.9886  -16.6868   22.3398 N.ar    1  UNL1       -0.2471
     11 C          -8.7023  -17.7322   23.1447 C.ar    1  UNL1        0.0695
     12 C          -9.5439  -18.8236   19.9834 C.3     1  UNL1        0.0725
     13 C         -11.0281  -18.7255   20.1774 C.3     1  UNL1        0.0187
     14 C         -10.8197  -16.6430   19.8312 C.3     1  UNL1        0.0014
     15 C         -11.6261  -17.4860   20.7740 C.3     1  UNL1        0.0156
     16 C         -12.4326  -18.3289   21.7169 C.3     1  UNL1        0.0014
     17 C         -12.2242  -16.2465   21.3707 C.3     1  UNL1        0.0651
     18 N         -11.6101  -15.6309   22.5930 N.3     1  UNL1       -0.3211
     19 H         -11.7138  -16.2678   23.3830 H       1  UNL1        0.1189
     20 H         -12.0797  -14.7500   22.8025 H       1  UNL1        0.1189
     21 C          -7.4329  -20.1108   20.7811 C.3     1  UNL1        0.0886
     22 C          -6.0827  -19.5046   21.0252 C.3     1  UNL1        0.0748
     23 C          -5.1063  -19.3682   19.8948 C.3     1  UNL1        0.0432
     24 C          -3.7561  -18.7620   20.1389 C.ar    1  UNL1       -0.0234
     25 C          -2.7797  -18.6256   19.0085 C.ar    1  UNL1       -0.0045
     26 C          -1.4296  -18.0194   19.2527 C.ar    1  UNL1       -0.0003
     27 C          -1.0558  -17.5497   20.6273 C.ar    1  UNL1       -0.0003
     28 C          -2.0322  -17.6861   21.7578 C.ar    1  UNL1       -0.0032
     29 C          -3.3824  -18.2923   21.5136 C.ar    1  UNL1       -0.0103
     30 C          -4.3589  -18.4287   22.6441 C.3     1  UNL1        0.0953
     31 N          -5.7090  -19.0349   22.3999 N.3     1  UNL1       -0.2934
     32 H          -6.3994  -18.3342   22.6694 H       1  UNL1        0.1236
@<TRIPOS>BOND
     1    14    15    1
     2    15    16    1
     3    15    17    1
     4    17    18    1
     5    15    13    1
     6    13    12    1
     7    12     1    1
     8     1    21    1
     9    22    21    1
    10    22    23    1
    11    23    24    1
    12    24    25   ar
    13    25    26   ar
    14    26    27   ar
    15    27    28   ar
    16    28    29   ar
    17    29    30    1
    18    30    31    1
    19     2     1    1
    20     2     3    1
    21     3     4    1
    22     4     5    1
    23     5     6    1
    24     6     7   ar
    25     7     8   ar
    26     8     9   ar
    27     9    10   ar
    28    10    11   ar
    29    31    22    1
    30    11     2    1
    31    29    24   ar
    32    11     6   ar
    33    18    19    1
    34    18    20    1
    35    31    32    1
@<TRIPOS>MOLECULE
*****
 32 35 0 0 0
SMALL
GASTEIGER

@<TRIPOS>ATOM
      1 N          -7.8118  -17.9545   22.6865 N.3     1  UNL1       -0.2679
      2 C          -9.2383  -18.2016   23.0790 C.3     1  UNL1        0.0978
      3 C          -9.5502  -19.0148   24.3002 C.3     1  UNL1        0.0224
      4 C         -10.9767  -19.2618   24.6927 C.3     1  UNL1        0.0065
      5 C         -12.0914  -18.6957   23.8639 C.3     1  UNL1        0.0277
      6 C         -11.7795  -17.8825   22.6427 C.ar    1  UNL1       -0.0073
      7 C         -12.8943  -17.3163   21.8138 C.ar    1  UNL1       -0.0015
      8 C         -12.5825  -16.5031   20.5926 C.ar    1  UNL1        0.0203
      9 C         -11.1559  -16.2561   20.2002 C.ar    1  UNL1        0.0985
     10 N         -10.0413  -16.8222   21.0289 N.ar    1  UNL1       -0.2471
     11 C         -10.3530  -17.6354   22.2502 C.ar    1  UNL1        0.0695
     12 C          -7.2534  -16.5629   22.7258 C.3     1  UNL1        0.0725
     13 C          -7.6941  -15.6078   23.7952 C.3     1  UNL1        0.0187
     14 C          -5.6440  -15.4920   24.3277 C.3     1  UNL1        0.0014
     15 C          -6.9368  -15.5274   25.0875 C.3     1  UNL1        0.0156
     16 C          -8.2296  -15.5629   25.8473 C.3     1  UNL1        0.0014
     17 C          -6.1795  -15.4471   26.3797 C.3     1  UNL1        0.0651
     18 N          -6.7576  -14.6960   27.5424 N.3     1  UNL1       -0.3211
     19 H          -6.8104  -13.7034   27.3135 H       1  UNL1        0.1189
     20 H          -6.1622  -14.8251   28.3605 H       1  UNL1        0.1189
     21 C          -6.9437  -19.0990   22.2548 C.3     1  UNL1        0.0886
     22 C          -5.4929  -18.8674   21.9522 C.3     1  UNL1        0.0748
     23 C          -5.0397  -18.7053   20.5316 C.3     1  UNL1        0.0432
     24 C          -3.5888  -18.4737   20.2290 C.ar    1  UNL1       -0.0234
     25 C          -3.1356  -18.3115   18.8084 C.ar    1  UNL1       -0.0045
     26 C          -1.6848  -18.0799   18.5058 C.ar    1  UNL1       -0.0003
     27 C          -0.6873  -18.0105   19.6239 C.ar    1  UNL1       -0.0003
     28 C          -1.1405  -18.1727   21.0445 C.ar    1  UNL1       -0.0032
     29 C          -2.5913  -18.4043   21.3471 C.ar    1  UNL1       -0.0103
     30 C          -3.0446  -18.5664   22.7678 C.3     1  UNL1        0.0953
     31 N          -4.4954  -18.7980   23.0703 N.3     1  UNL1       -0.2934
     32 H          -4.7930  -18.0394   23.6837 H       1  UNL1        0.1236
@<TRIPOS>BOND
     1    14    15    1
     2    15    16    1
     3    15    17    1
     4    17    18    1
     5    15    13    1
     6    13    12    1
     7    12     1    1
     8     1    21    1
     9    22    21    1
    10    22    23    1
    11    23    24    1
    12    24    25   ar
    13    25    26   ar
    14    26    27   ar
    15    27    28   ar
    16    28    29   ar
    17    29    30    1
    18    30    31    1
    19     2     1    1
    20     2     3    1
    21     3     4    1
    22     4     5    1
    23     5     6    1
    24     6     7   ar
    25     7     8   ar
    26     8     9   ar
    27     9    10   ar
    28    10    11   ar
    29    31    22    1
    30    11     2    1
    31    29    24   ar
    32    11     6   ar
    33    18    19    1
    34    18    20    1
    35    31    32    1
@<TRIPOS>MOLECULE
*****
 32 35 0 0 0
SMALL
GASTEIGER

@<TRIPOS>ATOM
      1 N          -7.3185  -17.3760   23.1751 N.3     1  UNL1       -0.2679
      2 C          -8.7113  -17.9298   23.1163 C.3     1  UNL1        0.0978
      3 C          -9.6009  -17.8520   24.3215 C.3     1  UNL1        0.0224
      4 C         -10.9938  -18.4057   24.2626 C.3     1  UNL1        0.0065
      5 C         -11.4970  -19.0373   22.9985 C.3     1  UNL1        0.0277
      6 C         -10.6074  -19.1151   21.7934 C.ar    1  UNL1       -0.0073
      7 C         -11.1105  -19.7467   20.5292 C.ar    1  UNL1       -0.0015
      8 C         -10.2209  -19.8245   19.3240 C.ar    1  UNL1        0.0203
      9 C          -8.8281  -19.2707   19.3829 C.ar    1  UNL1        0.0985
     10 N          -8.3249  -18.6392   20.6469 N.ar    1  UNL1       -0.2471
     11 C          -9.2146  -18.5613   21.8522 C.ar    1  UNL1        0.0695
     12 C          -7.0993  -15.8925   23.1440 C.3     1  UNL1        0.0725
     13 C          -6.2363  -15.2399   24.1829 C.3     1  UNL1        0.0187
     14 C          -5.1343  -15.7715   25.9158 C.3     1  UNL1        0.0014
     15 C          -6.5615  -15.4026   25.6381 C.3     1  UNL1        0.0156
     16 C          -7.9886  -15.0338   25.3605 C.3     1  UNL1        0.0014
     17 C          -6.8866  -15.5654   27.0933 C.3     1  UNL1        0.0651
     18 N          -8.2476  -16.0395   27.5093 N.3     1  UNL1       -0.3211
     19 H          -8.9439  -15.3385   27.2562 H       1  UNL1        0.1189
     20 H          -8.2631  -16.1852   28.5187 H       1  UNL1        0.1189
     21 C          -6.1450  -18.3058   23.2652 C.3     1  UNL1        0.0886
     22 C          -5.1235  -18.3329   22.1670 C.3     1  UNL1        0.0748
     23 C          -3.7987  -17.6559   22.3581 C.3     1  UNL1        0.0432
     24 C          -2.7773  -17.6830   21.2599 C.ar    1  UNL1       -0.0234
     25 C          -1.4525  -17.0060   21.4510 C.ar    1  UNL1       -0.0045
     26 C          -0.4311  -17.0331   20.3528 C.ar    1  UNL1       -0.0003
     27 C          -0.7345  -17.7372   19.0635 C.ar    1  UNL1       -0.0003
     28 C          -2.0593  -18.4142   18.8724 C.ar    1  UNL1       -0.0032
     29 C          -3.0807  -18.3871   19.9706 C.ar    1  UNL1       -0.0103
     30 C          -4.4056  -19.0641   19.7795 C.3     1  UNL1        0.0953
     31 N          -5.4269  -19.0370   20.8777 N.3     1  UNL1       -0.2934
     32 H          -5.6315  -20.0080   21.1136 H       1  UNL1        0.1236
@<TRIPOS>BOND
     1    14    15    1
     2    15    16    1
     3    15    17    1
     4    17    18    1
     5    15    13    1
     6    13    12    1
     7    12     1    1
     8     1    21    1
     9    22    21    1
    10    22    23    1
    11    23    24    1
    12    24    25   ar
    13    25    26   ar
    14    26    27   ar
    15    27    28   ar
    16    28    29   ar
    17    29    30    1
    18    30    31    1
    19     2     1    1
    20     2     3    1
    21     3     4    1
    22     4     5    1
    23     5     6    1
    24     6     7   ar
    25     7     8   ar
    26     8     9   ar
    27     9    10   ar
    28    10    11   ar
    29    31    22    1
    30    11     2    1
    31    29    24   ar
    32    11     6   ar
    33    18    19    1
    34    18    20    1
    35    31    32    1
@<TRIPOS>MOLECULE
*****
 32 35 0 0 0
SMALL
GASTEIGER

@<TRIPOS>ATOM
      1 N          -8.8246  -17.8210   22.6828 N.3     1  UNL1       -0.2679
      2 C         -10.2097  -17.4903   22.2116 C.3     1  UNL1        0.0978
      3 C         -10.4101  -16.8128   20.8884 C.3     1  UNL1        0.0224
      4 C         -11.7952  -16.4821   20.4172 C.3     1  UNL1        0.0065
      5 C         -12.9800  -16.8288   21.2692 C.3     1  UNL1        0.0277
      6 C         -12.7797  -17.5063   22.5924 C.ar    1  UNL1       -0.0073
      7 C         -13.9645  -17.8530   23.4445 C.ar    1  UNL1       -0.0015
      8 C         -13.7642  -18.5304   24.7677 C.ar    1  UNL1        0.0203
      9 C         -12.3790  -18.8611   25.2389 C.ar    1  UNL1        0.0985
     10 N         -11.1942  -18.5144   24.3869 N.ar    1  UNL1       -0.2471
     11 C         -11.3945  -17.8370   23.0636 C.ar    1  UNL1        0.0695
     12 C          -7.9946  -16.7743   23.3651 C.3     1  UNL1        0.0725
     13 C          -8.4365  -16.2073   24.6817 C.3     1  UNL1        0.0187
     14 C          -6.5749  -15.2058   24.5053 C.3     1  UNL1        0.0014
     15 C          -7.4199  -15.6800   25.6503 C.3     1  UNL1        0.0156
     16 C          -8.2648  -16.1543   26.7953 C.3     1  UNL1        0.0014
     17 C          -6.4032  -15.1527   26.6190 C.3     1  UNL1        0.0651
     18 N          -5.2188  -14.3811   26.1173 N.3     1  UNL1       -0.3211
     19 H          -4.6231  -14.9954   25.5622 H       1  UNL1        0.1189
     20 H          -4.6887  -14.0185   26.9097 H       1  UNL1        0.1189
     21 C          -8.2694  -19.1983   22.4716 C.3     1  UNL1        0.0886
     22 C          -6.8804  -19.3727   21.9326 C.3     1  UNL1        0.0748
     23 C          -5.7494  -18.5666   22.4992 C.3     1  UNL1        0.0432
     24 C          -4.3605  -18.7409   21.9602 C.ar    1  UNL1       -0.0234
     25 C          -3.2295  -17.9348   22.5267 C.ar    1  UNL1       -0.0045
     26 C          -1.8406  -18.1091   21.9877 C.ar    1  UNL1       -0.0003
     27 C          -1.5827  -19.0896   20.8822 C.ar    1  UNL1       -0.0003
     28 C          -2.7137  -19.8957   20.3156 C.ar    1  UNL1       -0.0032
     29 C          -4.1026  -19.7213   20.8546 C.ar    1  UNL1       -0.0103
     30 C          -5.2337  -20.5275   20.2881 C.3     1  UNL1        0.0953
     31 N          -6.6225  -20.3531   20.8271 N.3     1  UNL1       -0.2934
     32 H          -6.9231  -21.2665   21.1675 H       1  UNL1        0.1236
@<TRIPOS>BOND
     1    14    15    1
     2    15    16    1
     3    15    17    1
     4    17    18    1
     5    15    13    1
     6    13    12    1
     7    12     1    1
     8     1    21    1
     9    22    21    1
    10    22    23    1
    11    23    24    1
    12    24    25   ar
    13    25    26   ar
    14    26    27   ar
    15    27    28   ar
    16    28    29   ar
    17    29    30    1
    18    30    31    1
    19     2     1    1
    20     2     3    1
    21     3     4    1
    22     4     5    1
    23     5     6    1
    24     6     7   ar
    25     7     8   ar
    26     8     9   ar
    27     9    10   ar
    28    10    11   ar
    29    31    22    1
    30    11     2    1
    31    29    24   ar
    32    11     6   ar
    33    18    19    1
    34    18    20    1
    35    31    32    1
@<TRIPOS>MOLECULE
*****
 32 35 0 0 0
SMALL
GASTEIGER

@<TRIPOS>ATOM
      1 N          -7.6385  -18.8913   22.3732 N.3     1  UNL1       -0.2679
      2 C          -8.7881  -18.9205   21.4100 C.3     1  UNL1        0.0978
      3 C          -8.5695  -19.3666   19.9947 C.3     1  UNL1        0.0224
      4 C          -9.7190  -19.3957   19.0315 C.3     1  UNL1        0.0065
      5 C         -11.0871  -18.9788   19.4836 C.3     1  UNL1        0.0277
      6 C         -11.3057  -18.5328   20.8989 C.ar    1  UNL1       -0.0073
      7 C         -12.6738  -18.1159   21.3511 C.ar    1  UNL1       -0.0015
      8 C         -12.8924  -17.6698   22.7665 C.ar    1  UNL1        0.0203
      9 C         -11.7429  -17.6407   23.7297 C.ar    1  UNL1        0.0985
     10 N         -10.3748  -18.0575   23.2775 N.ar    1  UNL1       -0.2471
     11 C         -10.1562  -18.5036   21.8621 C.ar    1  UNL1        0.0695
     12 C          -7.6122  -17.8783   23.4791 C.3     1  UNL1        0.0725
     13 C          -6.9174  -16.5645   23.2764 C.3     1  UNL1        0.0187
     14 C          -4.9841  -15.8623   23.7951 C.3     1  UNL1        0.0014
     15 C          -6.3331  -15.8361   24.4503 C.3     1  UNL1        0.0156
     16 C          -7.6822  -15.8098   25.1054 C.3     1  UNL1        0.0014
     17 C          -5.7489  -15.1077   25.6241 C.3     1  UNL1        0.0651
     18 N          -6.5737  -14.8900   26.8579 N.3     1  UNL1       -0.3211
     19 H          -7.3522  -14.2675   26.6411 H       1  UNL1        0.1189
     20 H          -5.9943  -14.4694   27.5844 H       1  UNL1        0.1189
     21 C          -6.5153  -19.8752   22.2305 C.3     1  UNL1        0.0886
     22 C          -5.1335  -19.3933   21.9012 C.3     1  UNL1        0.0748
     23 C          -4.7525  -19.1254   20.4754 C.3     1  UNL1        0.0432
     24 C          -3.3707  -18.6435   20.1461 C.ar    1  UNL1       -0.0234
     25 C          -2.9897  -18.3756   18.7203 C.ar    1  UNL1       -0.0045
     26 C          -1.6079  -17.8937   18.3911 C.ar    1  UNL1       -0.0003
     27 C          -0.6071  -17.6798   19.4877 C.ar    1  UNL1       -0.0003
     28 C          -0.9880  -17.9477   20.9135 C.ar    1  UNL1       -0.0032
     29 C          -2.3698  -18.4296   21.2427 C.ar    1  UNL1       -0.0103
     30 C          -2.7508  -18.6975   22.6686 C.3     1  UNL1        0.0953
     31 N          -4.1326  -19.1794   22.9978 N.3     1  UNL1       -0.2934
     32 H          -4.5382  -18.4961   23.6374 H       1  UNL1        0.1236
@<TRIPOS>BOND
     1    14    15    1
     2    15    16    1
     3    15    17    1
     4    17    18    1
     5    15    13    1
     6    13    12    1
     7    12     1    1
     8     1    21    1
     9    22    21    1
    10    22    23    1
    11    23    24    1
    12    24    25   ar
    13    25    26   ar
    14    26    27   ar
    15    27    28   ar
    16    28    29   ar
    17    29    30    1
    18    30    31    1
    19     2     1    1
    20     2     3    1
    21     3     4    1
    22     4     5    1
    23     5     6    1
    24     6     7   ar
    25     7     8   ar
    26     8     9   ar
    27     9    10   ar
    28    10    11   ar
    29    31    22    1
    30    11     2    1
    31    29    24   ar
    32    11     6   ar
    33    18    19    1
    34    18    20    1
    35    31    32    1
@<TRIPOS>MOLECULE
*****
 32 35 0 0 0
SMALL
GASTEIGER

@<TRIPOS>ATOM
      1 N         -12.6534   -3.5974   18.1955 N.3     1  UNL1       -0.2679
      2 C         -12.4855   -2.1296   17.9357 C.3     1  UNL1        0.0978
      3 C         -11.2827   -1.6327   17.1898 C.3     1  UNL1        0.0224
      4 C         -11.1149   -0.1650   16.9300 C.3     1  UNL1        0.0065
      5 C         -12.1498    0.8059   17.4161 C.3     1  UNL1        0.0277
      6 C         -13.3526    0.3090   18.1619 C.ar    1  UNL1       -0.0073
      7 C         -14.3876    1.2799   18.6480 C.ar    1  UNL1       -0.0015
      8 C         -15.5904    0.7830   19.3939 C.ar    1  UNL1        0.0203
      9 C         -15.7583   -0.6848   19.6537 C.ar    1  UNL1        0.0985
     10 N         -14.7233   -1.6557   19.1676 N.ar    1  UNL1       -0.2471
     11 C         -13.5205   -1.1588   18.4217 C.ar    1  UNL1        0.0695
     12 C         -11.8951   -4.2531   19.3113 C.3     1  UNL1        0.0725
     13 C         -10.6119   -4.9747   19.0235 C.3     1  UNL1        0.0187
     14 C          -9.7220   -5.6227   17.2102 C.3     1  UNL1        0.0014
     15 C         -10.6287   -6.2469   18.2291 C.3     1  UNL1        0.0156
     16 C         -11.5354   -6.8711   19.2479 C.3     1  UNL1        0.0014
     17 C         -10.6455   -7.5191   17.4347 C.3     1  UNL1        0.0651
     18 N          -9.8131   -8.6877   17.8723 N.3     1  UNL1       -0.3211
     19 H          -8.8245   -8.4497   17.7926 H       1  UNL1        0.1189
     20 H         -10.0181   -9.4921   17.2796 H       1  UNL1        0.1189
     21 C         -13.5795   -4.4095   17.3395 C.3     1  UNL1        0.0886
     22 C         -14.6216   -5.2793   17.9779 C.3     1  UNL1        0.0748
     23 C         -14.6662   -6.7463   17.6685 C.3     1  UNL1        0.0432
     24 C         -15.7083   -7.6162   18.3069 C.ar    1  UNL1       -0.0234
     25 C         -15.7530   -9.0832   17.9975 C.ar    1  UNL1       -0.0045
     26 C         -16.7950   -9.9529   18.6358 C.ar    1  UNL1       -0.0003
     27 C         -17.7925   -9.3556   19.5836 C.ar    1  UNL1       -0.0003
     28 C         -17.7479   -7.8886   19.8930 C.ar    1  UNL1       -0.0032
     29 C         -16.7058   -7.0189   19.2547 C.ar    1  UNL1       -0.0103
     30 C         -16.6611   -5.5517   19.5641 C.3     1  UNL1        0.0953
     31 N         -15.6191   -4.6820   18.9257 N.3     1  UNL1       -0.2934
     32 H         -15.0862   -4.2560   19.6840 H       1  UNL1        0.1236
@<TRIPOS>BOND
     1    14    15    1
     2    15    16    1
     3    15    17    1
     4    17    18    1
     5    15    13    1
     6    13    12    1
     7    12     1    1
     8     1    21    1
     9    22    21    1
    10    22    23    1
    11    23    24    1
    12    24    25   ar
    13    25    26   ar
    14    26    27   ar
    15    27    28   ar
    16    28    29   ar
    17    29    30    1
    18    30    31    1
    19     2     1    1
    20     2     3    1
    21     3     4    1
    22     4     5    1
    23     5     6    1
    24     6     7   ar
    25     7     8   ar
    26     8     9   ar
    27     9    10   ar
    28    10    11   ar
    29    31    22    1
    30    11     2    1
    31    29    24   ar
    32    11     6   ar
    33    18    19    1
    34    18    20    1
    35    31    32    1
@<TRIPOS>MOLECULE
*****
 32 35 0 0 0
SMALL
GASTEIGER

@<TRIPOS>ATOM
      1 N         -13.7916   -4.6584   18.4361 N.3     1  UNL1       -0.2679
      2 C         -12.4215   -5.2525   18.2954 C.3     1  UNL1        0.0978
      3 C         -12.1103   -6.5776   18.9257 C.3     1  UNL1        0.0224
      4 C         -10.7402   -7.1718   18.7850 C.3     1  UNL1        0.0065
      5 C          -9.6813   -6.4409   18.0141 C.3     1  UNL1        0.0277
      6 C          -9.9925   -5.1158   17.3838 C.ar    1  UNL1       -0.0073
      7 C          -8.9335   -4.3848   16.6128 C.ar    1  UNL1       -0.0015
      8 C          -9.2447   -3.0597   15.9825 C.ar    1  UNL1        0.0203
      9 C         -10.6148   -2.4656   16.1231 C.ar    1  UNL1        0.0985
     10 N         -11.6737   -3.1965   16.8941 N.ar    1  UNL1       -0.2471
     11 C         -11.3626   -4.5216   17.5245 C.ar    1  UNL1        0.0695
     12 C         -14.8475   -4.9578   17.4137 C.3     1  UNL1        0.0725
     13 C         -15.9883   -5.8689   17.7582 C.3     1  UNL1        0.0187
     14 C         -16.2769   -7.2949   19.3019 C.3     1  UNL1        0.0014
     15 C         -15.7545   -7.3440   17.8967 C.3     1  UNL1        0.0156
     16 C         -15.2321   -7.3932   16.4915 C.3     1  UNL1        0.0014
     17 C         -15.5207   -8.8192   18.0352 C.3     1  UNL1        0.0651
     18 N         -14.4710   -9.3269   18.9789 N.3     1  UNL1       -0.3211
     19 H         -13.5497   -9.0382   18.6499 H       1  UNL1        0.1189
     20 H         -14.5140  -10.3452   19.0193 H       1  UNL1        0.1189
     21 C         -14.1058   -3.7648   19.5991 C.3     1  UNL1        0.0886
     22 C         -14.3541   -2.3024   19.3758 C.3     1  UNL1        0.0748
     23 C         -15.5181   -1.6293   20.0405 C.3     1  UNL1        0.0432
     24 C         -15.7665   -0.1669   19.8172 C.ar    1  UNL1       -0.0234
     25 C         -16.9305    0.5063   20.4819 C.ar    1  UNL1       -0.0045
     26 C         -17.1788    1.9686   20.2586 C.ar    1  UNL1       -0.0003
     27 C         -16.2630    2.7578   19.3705 C.ar    1  UNL1       -0.0003
     28 C         -15.0990    2.0846   18.7058 C.ar    1  UNL1       -0.0032
     29 C         -14.8507    0.6223   18.9292 C.ar    1  UNL1       -0.0103
     30 C         -13.6867   -0.0509   18.2644 C.3     1  UNL1        0.0953
     31 N         -13.4384   -1.5133   18.4878 N.3     1  UNL1       -0.2934
     32 H         -12.5017   -1.5959   18.8829 H       1  UNL1        0.1236
@<TRIPOS>BOND
     1    14    15    1
     2    15    16    1
     3    15    17    1
     4    17    18    1
     5    15    13    1
     6    13    12    1
     7    12     1    1
     8     1    21    1
     9    22    21    1
    10    22    23    1
    11    23    24    1
    12    24    25   ar
    13    25    26   ar
    14    26    27   ar
    15    27    28   ar
    16    28    29   ar
    17    29    30    1
    18    30    31    1
    19     2     1    1
    20     2     3    1
    21     3     4    1
    22     4     5    1
    23     5     6    1
    24     6     7   ar
    25     7     8   ar
    26     8     9   ar
    27     9    10   ar
    28    10    11   ar
    29    31    22    1
    30    11     2    1
    31    29    24   ar
    32    11     6   ar
    33    18    19    1
    34    18    20    1
    35    31    32    1
