@<TRIPOS>MOLECULE
*****
 36 40 0 0 0
SMALL
GASTEIGER

@<TRIPOS>ATOM
      1 C           4.8458    0.3468   35.5884 C.2     1  UNL1        0.2491
      2 O           5.2462    0.0906   37.0110 O.2     1  UNL1       -0.2699
      3 N           4.0446    1.5669   35.2429 N.am    1  UNL1       -0.2742
      4 C           3.6437    2.5307   36.3201 C.3     1  UNL1        0.1152
      5 C           3.6441    1.8231   33.8202 C.3     1  UNL1        0.0972
      6 C           4.5386    2.3371   32.7314 C.3     1  UNL1        0.0431
      7 C           3.7262    2.4420   31.4748 C.3     1  UNL1        0.0968
      8 N           2.3294    1.9929   31.7871 N.am    1  UNL1       -0.2623
      9 C           1.1845    1.9362   30.8197 C.2     1  UNL1        0.3073
     10 O          -0.1627    1.4627   31.2790 O.2     1  UNL1       -0.2523
     11 N           1.3867    2.3530   29.3930 N.am    1  UNL1       -0.2626
     12 C           2.6697    2.8456   28.7918 C.3     1  UNL1        0.0964
     13 C           2.4174    3.1474   27.3443 C.3     1  UNL1        0.0392
     14 C           0.9786    2.8413   27.0509 C.3     1  UNL1        0.0791
     15 C           0.3416    2.3503   28.3171 C.3     1  UNL1        0.1109
     16 C           2.2787    1.6104   33.2366 C.3     1  UNL1        0.1147
     17 N           0.2965    2.9985   25.7243 N.3     1  UNL1       -0.2723
     18 C          -1.0313    3.6914   25.6412 C.3     1  UNL1        0.0721
     19 C          -1.7134    3.8486   24.3144 C.3     1  UNL1        0.0174
     20 C          -1.0678    3.3130   23.0709 C.3     1  UNL1        0.0029
     21 C           0.2600    2.6202   23.1542 C.3     1  UNL1        0.0174
     22 C           0.9421    2.4629   24.4808 C.3     1  UNL1        0.0721
     23 C           6.0483   -2.5448   32.3569 C.ar    1  UNL1        0.0000
     24 C           4.6740   -2.6162   32.9538 C.ar    1  UNL1        0.0001
     25 C           4.2732   -1.6523   34.0309 C.ar    1  UNL1        0.0045
     26 C           5.2466   -0.6171   34.5112 C.ar    1  UNL1        0.0536
     27 C           6.6208   -0.5457   33.9143 C.ar    1  UNL1        0.0045
     28 C           7.0217   -1.5096   32.8371 C.ar    1  UNL1        0.0001
     29 C           7.2507   -5.4364   29.1253 C.ar    1  UNL1       -0.0222
     30 C           7.2574   -5.8708   30.5610 C.ar    1  UNL1       -0.0043
     31 C           6.8566   -4.9070   31.6382 C.ar    1  UNL1       -0.0003
     32 C           6.4491   -3.5086   31.2797 C.ar    1  UNL1       -0.0000
     33 C           6.4424   -3.0742   29.8440 C.ar    1  UNL1       -0.0003
     34 C           6.8432   -4.0380   28.7669 C.ar    1  UNL1       -0.0043
     35 C           6.9187   -6.4096   26.7394 C.3     1  UNL1        0.0050
     36 C           7.6516   -6.4002   28.0482 C.3     1  UNL1        0.0264
@<TRIPOS>BOND
     1    35    36    1
     2    36    29    1
     3    29    30   ar
     4    30    31   ar
     5    31    32   ar
     6    32    23    1
     7    23    24   ar
     8    24    25   ar
     9    25    26   ar
    10    26     1    1
    11     1     2    2
    12     1     3   am
    13     3     4    1
    14     5     3    1
    15     5     6    1
    16     6     7    1
    17     7     8    1
    18     8     9   am
    19     9    10    2
    20     9    11   am
    21    11    12    1
    22    12    13    1
    23    13    14    1
    24    14    17    1
    25    17    18    1
    26    18    19    1
    27    19    20    1
    28    20    21    1
    29    21    22    1
    30    14    15    1
    31     8    16    1
    32    26    27   ar
    33    27    28   ar
    34    32    33   ar
    35    33    34   ar
    36    34    29   ar
    37    28    23   ar
    38    16     5    1
    39    15    11    1
    40    22    17    1
@<TRIPOS>MOLECULE
*****
 36 40 0 0 0
SMALL
GASTEIGER

@<TRIPOS>ATOM
      1 C          -0.1825    5.3455   18.4545 C.2     1  UNL1        0.2491
      2 O          -0.3718    6.0737   17.1568 O.2     1  UNL1       -0.2699
      3 N          -0.7376    5.9193   19.7243 N.am    1  UNL1       -0.2742
      4 C          -1.4820    7.2213   19.6966 C.3     1  UNL1        0.1152
      5 C          -0.5483    5.1911   21.0220 C.3     1  UNL1        0.0972
      6 C          -1.4925    4.1885   21.6164 C.3     1  UNL1        0.0431
      7 C          -0.9093    3.7155   22.9148 C.3     1  UNL1        0.0968
      8 N           0.3954    4.4257   23.1231 N.am    1  UNL1       -0.2623
      9 C           1.3155    4.2541   24.2952 C.2     1  UNL1        0.3073
     10 O           2.5932    5.0365   24.3666 O.2     1  UNL1       -0.2523
     11 N           0.9578    3.3000   25.3961 N.am    1  UNL1       -0.2626
     12 C          -0.2791    2.4539   25.4622 C.3     1  UNL1        0.0964
     13 C          -0.2272    1.6555   26.7310 C.3     1  UNL1        0.0392
     14 C           1.0417    2.0081   27.4490 C.3     1  UNL1        0.0791
     15 C           1.7740    3.0245   26.6239 C.3     1  UNL1        0.1109
     16 C           0.6185    5.3377   21.9532 C.3     1  UNL1        0.1147
     17 N           1.4981    1.4436   28.7615 N.3     1  UNL1       -0.2723
     18 C           1.9807    0.0255   28.8409 C.3     1  UNL1        0.0721
     19 C           2.4372   -0.5390   30.1535 C.3     1  UNL1        0.0174
     20 C           2.4111    0.3144   31.3868 C.3     1  UNL1        0.0029
     21 C           1.9285    1.7324   31.3074 C.3     1  UNL1        0.0174
     22 C           1.4720    2.2970   29.9948 C.3     1  UNL1        0.0721
     23 C           2.0506    1.4396   18.5376 C.ar    1  UNL1        0.0000
     24 C           2.8002    2.7345   18.6436 C.ar    1  UNL1        0.0001
     25 C           2.0558    4.0365   18.6158 C.ar    1  UNL1        0.0045
     26 C           0.5619    4.0436   18.4822 C.ar    1  UNL1        0.0536
     27 C          -0.1878    2.7487   18.3763 C.ar    1  UNL1        0.0045
     28 C           0.5566    1.4467   18.4040 C.ar    1  UNL1        0.0001
     29 C           4.2837   -2.4663   18.6208 C.ar    1  UNL1       -0.0222
     30 C           3.2981   -2.1426   19.7042 C.ar    1  UNL1       -0.0043
     31 C           2.5538   -0.8407   19.6765 C.ar    1  UNL1       -0.0003
     32 C           2.7950    0.1376   18.5654 C.ar    1  UNL1       -0.0000
     33 C           3.7806   -0.1860   17.4820 C.ar    1  UNL1       -0.0003
     34 C           4.5249   -1.4880   17.5097 C.ar    1  UNL1       -0.0043
     35 C           4.3043   -5.0391   18.9820 C.3     1  UNL1        0.0050
     36 C           5.0281   -3.7683   18.6486 C.3     1  UNL1        0.0264
@<TRIPOS>BOND
     1    35    36    1
     2    36    29    1
     3    29    30   ar
     4    30    31   ar
     5    31    32   ar
     6    32    23    1
     7    23    24   ar
     8    24    25   ar
     9    25    26   ar
    10    26     1    1
    11     1     2    2
    12     1     3   am
    13     3     4    1
    14     5     3    1
    15     5     6    1
    16     6     7    1
    17     7     8    1
    18     8     9   am
    19     9    10    2
    20     9    11   am
    21    11    12    1
    22    12    13    1
    23    13    14    1
    24    14    17    1
    25    17    18    1
    26    18    19    1
    27    19    20    1
    28    20    21    1
    29    21    22    1
    30    14    15    1
    31     8    16    1
    32    26    27   ar
    33    27    28   ar
    34    32    33   ar
    35    33    34   ar
    36    34    29   ar
    37    28    23   ar
    38    16     5    1
    39    15    11    1
    40    22    17    1
@<TRIPOS>MOLECULE
*****
 36 40 0 0 0
SMALL
GASTEIGER

@<TRIPOS>ATOM
      1 C           1.9195    1.0623   30.3599 C.2     1  UNL1        0.2491
      2 O           1.7159    1.3047   31.8261 O.2     1  UNL1       -0.2699
      3 N           3.1219    0.3013   29.8855 N.am    1  UNL1       -0.2742
      4 C           4.1207   -0.2172   30.8773 C.3     1  UNL1        0.1152
      5 C           3.3256    0.0588   28.4193 C.3     1  UNL1        0.0972
      6 C           3.2787   -1.2731   27.7311 C.3     1  UNL1        0.0431
      7 C           3.5360   -1.0494   26.2703 C.3     1  UNL1        0.0968
      8 N           3.7419    0.4209   26.0557 N.am    1  UNL1       -0.2623
      9 C           4.0277    1.0889   24.7435 C.2     1  UNL1        0.3073
     10 O           4.2111    2.5764   24.6834 O.2     1  UNL1       -0.2523
     11 N           4.1300    0.2694   23.4913 N.am    1  UNL1       -0.2626
     12 C           3.9709   -1.2192   23.3963 C.3     1  UNL1        0.0964
     13 C           4.1520   -1.6140   21.9606 C.3     1  UNL1        0.0392
     14 C           4.4229   -0.3695   21.1683 C.3     1  UNL1        0.0791
     15 C           4.4093    0.7945   22.1143 C.3     1  UNL1        0.1109
     16 C           3.6118    1.1057   27.3839 C.3     1  UNL1        0.1147
     17 N           4.6649   -0.3010   19.6895 N.3     1  UNL1       -0.2723
     18 C           3.6598   -0.8785   18.7375 C.3     1  UNL1        0.0721
     19 C           3.9019   -0.8099   17.2587 C.3     1  UNL1        0.0174
     20 C           5.1489   -0.1639   16.7320 C.3     1  UNL1        0.0029
     21 C           6.1539    0.4136   17.6840 C.3     1  UNL1        0.0174
     22 C           5.9119    0.3451   19.1628 C.3     1  UNL1        0.0721
     23 C          -1.0768    2.6178   27.3847 C.ar    1  UNL1        0.0000
     24 C          -1.1315    1.1850   27.8250 C.ar    1  UNL1        0.0001
     25 C          -0.1327    0.6664   28.8167 C.ar    1  UNL1        0.0045
     26 C           0.9207    1.5808   29.3682 C.ar    1  UNL1        0.0536
     27 C           0.9754    3.0136   28.9279 C.ar    1  UNL1        0.0045
     28 C          -0.0234    3.5321   27.9362 C.ar    1  UNL1        0.0001
     29 C          -4.0732    4.1733   24.4094 C.ar    1  UNL1       -0.0222
     30 C          -2.7196    3.7235   23.9454 C.ar    1  UNL1       -0.0043
     31 C          -1.7208    3.2050   24.9372 C.ar    1  UNL1       -0.0003
     32 C          -2.0756    3.1363   26.3929 C.ar    1  UNL1       -0.0000
     33 C          -3.4292    3.5861   26.8570 C.ar    1  UNL1       -0.0003
     34 C          -4.4280    4.1046   25.8652 C.ar    1  UNL1       -0.0043
     35 C          -6.5154    4.3000   23.5321 C.3     1  UNL1        0.0050
     36 C          -5.0720    4.6918   23.4177 C.3     1  UNL1        0.0264
@<TRIPOS>BOND
     1    35    36    1
     2    36    29    1
     3    29    30   ar
     4    30    31   ar
     5    31    32   ar
     6    32    23    1
     7    23    24   ar
     8    24    25   ar
     9    25    26   ar
    10    26     1    1
    11     1     2    2
    12     1     3   am
    13     3     4    1
    14     5     3    1
    15     5     6    1
    16     6     7    1
    17     7     8    1
    18     8     9   am
    19     9    10    2
    20     9    11   am
    21    11    12    1
    22    12    13    1
    23    13    14    1
    24    14    17    1
    25    17    18    1
    26    18    19    1
    27    19    20    1
    28    20    21    1
    29    21    22    1
    30    14    15    1
    31     8    16    1
    32    26    27   ar
    33    27    28   ar
    34    32    33   ar
    35    33    34   ar
    36    34    29   ar
    37    28    23   ar
    38    16     5    1
    39    15    11    1
    40    22    17    1
@<TRIPOS>MOLECULE
*****
 36 40 0 0 0
SMALL
GASTEIGER

@<TRIPOS>ATOM
      1 C           4.9000   -0.7942   18.6486 C.2     1  UNL1        0.2491
      2 O           4.7782   -0.3085   17.2347 O.2     1  UNL1       -0.2699
      3 N           5.9417   -1.8131   19.0045 N.am    1  UNL1       -0.2742
      4 C           6.8615   -2.3463   17.9464 C.3     1  UNL1        0.1152
      5 C           6.0635   -2.2988   20.4184 C.3     1  UNL1        0.0972
      6 C           6.2191   -3.7270   20.8498 C.3     1  UNL1        0.0431
      7 C           6.3029   -3.7525   22.3472 C.3     1  UNL1        0.0968
      8 N           6.1991   -2.3400   22.8414 N.am    1  UNL1       -0.2623
      9 C           6.2366   -1.9027   24.2757 C.2     1  UNL1        0.3073
     10 O           6.1205   -0.4472   24.6193 O.2     1  UNL1       -0.2523
     11 N           6.3901   -2.9209   25.3665 N.am    1  UNL1       -0.2626
     12 C           6.5171   -4.4036   25.1770 C.3     1  UNL1        0.0964
     13 C           6.6491   -5.0342   26.5316 C.3     1  UNL1        0.0392
     14 C           6.6037   -3.9414   27.5581 C.3     1  UNL1        0.0791
     15 C           6.4437   -2.6354   26.8380 C.3     1  UNL1        0.1109
     16 C           6.0511   -1.4416   21.6493 C.3     1  UNL1        0.1147
     17 N           6.7013   -4.1228   29.0439 N.3     1  UNL1       -0.2723
     18 C           6.9021   -5.4929   29.6206 C.3     1  UNL1        0.0721
     19 C           6.9997   -5.6743   31.1064 C.3     1  UNL1        0.0174
     20 C           6.8965   -4.4856   32.0155 C.3     1  UNL1        0.0029
     21 C           6.6957   -3.1156   31.4388 C.3     1  UNL1        0.0174
     22 C           6.5981   -2.9342   29.9530 C.3     1  UNL1        0.0721
     23 C           2.1403    0.8054   21.8228 C.ar    1  UNL1        0.0000
     24 C           3.3378    1.6029   21.3988 C.ar    1  UNL1        0.0001
     25 C           4.2577    1.0697   20.3407 C.ar    1  UNL1        0.0045
     26 C           3.9801   -0.2610   19.7067 C.ar    1  UNL1        0.0536
     27 C           2.7825   -1.0585   20.1307 C.ar    1  UNL1        0.0045
     28 C           1.8627   -0.5253   21.1887 C.ar    1  UNL1        0.0001
     29 C          -0.6194    2.4050   24.9970 C.ar    1  UNL1       -0.0222
     30 C           0.3536    1.3131   25.3299 C.ar    1  UNL1       -0.0043
     31 C           1.2735    0.7799   24.2718 C.ar    1  UNL1       -0.0003
     32 C           1.2204    1.3386   22.8808 C.ar    1  UNL1       -0.0000
     33 C           0.2474    2.4306   22.5479 C.ar    1  UNL1       -0.0003
     34 C          -0.6725    2.9638   23.6060 C.ar    1  UNL1       -0.0043
     35 C          -2.8194    3.6153   25.6641 C.3     1  UNL1        0.0050
     36 C          -1.5393    2.9382   26.0550 C.3     1  UNL1        0.0264
@<TRIPOS>BOND
     1    35    36    1
     2    36    29    1
     3    29    30   ar
     4    30    31   ar
     5    31    32   ar
     6    32    23    1
     7    23    24   ar
     8    24    25   ar
     9    25    26   ar
    10    26     1    1
    11     1     2    2
    12     1     3   am
    13     3     4    1
    14     5     3    1
    15     5     6    1
    16     6     7    1
    17     7     8    1
    18     8     9   am
    19     9    10    2
    20     9    11   am
    21    11    12    1
    22    12    13    1
    23    13    14    1
    24    14    17    1
    25    17    18    1
    26    18    19    1
    27    19    20    1
    28    20    21    1
    29    21    22    1
    30    14    15    1
    31     8    16    1
    32    26    27   ar
    33    27    28   ar
    34    32    33   ar
    35    33    34   ar
    36    34    29   ar
    37    28    23   ar
    38    16     5    1
    39    15    11    1
    40    22    17    1
@<TRIPOS>MOLECULE
*****
 36 40 0 0 0
SMALL
GASTEIGER

@<TRIPOS>ATOM
      1 C          -0.7463    4.6102   21.6581 C.2     1  UNL1        0.2491
      2 O          -1.3556    5.5283   20.6403 O.2     1  UNL1       -0.2699
      3 N          -0.9587    4.8655   23.1208 N.am    1  UNL1       -0.2742
      4 C          -1.7803    6.0390   23.5658 C.3     1  UNL1        0.1152
      5 C          -0.3494    3.9474   24.1387 C.3     1  UNL1        0.0972
      6 C          -0.9905    2.7194   24.7141 C.3     1  UNL1        0.0431
      7 C          -0.0294    2.1092   25.6908 C.3     1  UNL1        0.0968
      8 N           1.2057    2.9601   25.7190 N.am    1  UNL1       -0.2623
      9 C           2.4245    2.7174   26.5590 C.2     1  UNL1        0.3073
     10 O           3.5891    3.6596   26.4806 O.2     1  UNL1       -0.2523
     11 N           2.4788    1.5326   27.4774 N.am    1  UNL1       -0.2626
     12 C           1.3973    0.5095   27.6614 C.3     1  UNL1        0.0964
     13 C           1.8741   -0.4925   28.6707 C.3     1  UNL1        0.0392
     14 C           3.2502   -0.0886   29.1104 C.3     1  UNL1        0.0791
     15 C           3.6239    1.1630   28.3729 C.3     1  UNL1        0.1109
     16 C           1.0079    4.0961   24.7597 C.3     1  UNL1        0.1147
     17 N           4.1030   -0.8097   30.1118 N.3     1  UNL1       -0.2723
     18 C           3.6130   -0.9978   31.5170 C.3     1  UNL1        0.0721
     19 C           4.4658   -1.7189   32.5184 C.3     1  UNL1        0.0174
     20 C           5.8085   -2.2519   32.1146 C.3     1  UNL1        0.0029
     21 C           6.2984   -2.0638   30.7095 C.3     1  UNL1        0.0174
     22 C           5.4457   -1.3427   29.7080 C.3     1  UNL1        0.0721
     23 C           1.7184    1.0898   20.3231 C.ar    1  UNL1        0.0000
     24 C           0.2287    0.9607   20.4413 C.ar    1  UNL1        0.0001
     25 C          -0.5929    2.1342   20.8863 C.ar    1  UNL1        0.0045
     26 C           0.0752    3.4367   21.2131 C.ar    1  UNL1        0.0536
     27 C           1.5650    3.5659   21.0949 C.ar    1  UNL1        0.0045
     28 C           2.3866    2.3924   20.6499 C.ar    1  UNL1        0.0001
     29 C           4.1832   -2.4305   18.9881 C.ar    1  UNL1       -0.0222
     30 C           3.9032   -1.3064   18.0352 C.ar    1  UNL1       -0.0043
     31 C           3.0817   -0.1330   18.4802 C.ar    1  UNL1       -0.0003
     32 C           2.5400   -0.0836   19.8781 C.ar    1  UNL1       -0.0000
     33 C           2.8199   -1.2077   20.8310 C.ar    1  UNL1       -0.0003
     34 C           3.6415   -2.3811   20.3860 C.ar    1  UNL1       -0.0043
     35 C           4.5550   -4.9988   18.8628 C.3     1  UNL1        0.0050
     36 C           5.0048   -3.6039   18.5431 C.3     1  UNL1        0.0264
@<TRIPOS>BOND
     1    35    36    1
     2    36    29    1
     3    29    30   ar
     4    30    31   ar
     5    31    32   ar
     6    32    23    1
     7    23    24   ar
     8    24    25   ar
     9    25    26   ar
    10    26     1    1
    11     1     2    2
    12     1     3   am
    13     3     4    1
    14     5     3    1
    15     5     6    1
    16     6     7    1
    17     7     8    1
    18     8     9   am
    19     9    10    2
    20     9    11   am
    21    11    12    1
    22    12    13    1
    23    13    14    1
    24    14    17    1
    25    17    18    1
    26    18    19    1
    27    19    20    1
    28    20    21    1
    29    21    22    1
    30    14    15    1
    31     8    16    1
    32    26    27   ar
    33    27    28   ar
    34    32    33   ar
    35    33    34   ar
    36    34    29   ar
    37    28    23   ar
    38    16     5    1
    39    15    11    1
    40    22    17    1
@<TRIPOS>MOLECULE
*****
 36 40 0 0 0
SMALL
GASTEIGER

@<TRIPOS>ATOM
      1 C           4.5002   -0.8902   18.2432 C.2     1  UNL1        0.2491
      2 O           4.4000   -0.7238   16.7559 O.2     1  UNL1       -0.2699
      3 N           5.5909   -1.7352   18.8315 N.am    1  UNL1       -0.2742
      4 C           6.5814   -2.4140   17.9325 C.3     1  UNL1        0.1152
      5 C           5.6912   -1.9016   20.3189 C.3     1  UNL1        0.0972
      6 C           5.3636   -0.8594   21.3468 C.3     1  UNL1        0.0431
      7 C           5.6067   -1.4531   22.7027 C.3     1  UNL1        0.0968
      8 N           6.0844   -2.8623   22.5128 N.am    1  UNL1       -0.2623
      9 C           6.4463   -3.8252   23.6045 C.2     1  UNL1        0.3073
     10 O           6.9110   -5.2092   23.2602 O.2     1  UNL1       -0.2523
     11 N           6.3436   -3.4040   25.0406 N.am    1  UNL1       -0.2626
     12 C           5.8972   -2.0602   25.5355 C.3     1  UNL1        0.0964
     13 C           5.9470   -2.0784   27.0345 C.3     1  UNL1        0.0392
     14 C           6.4242   -3.4334   27.4660 C.3     1  UNL1        0.0791
     15 C           6.6694   -4.2527   26.2337 C.3     1  UNL1        0.1109
     16 C           6.1366   -3.1395   21.0396 C.3     1  UNL1        0.1147
     17 N           6.6216   -3.8892   28.8814 N.3     1  UNL1       -0.2723
     18 C           6.9048   -5.3333   29.1717 C.3     1  UNL1        0.0721
     19 C           7.1023   -5.7890   30.5872 C.3     1  UNL1        0.0174
     20 C           7.0165   -4.8006   31.7123 C.3     1  UNL1        0.0029
     21 C           6.7333   -3.3565   31.4219 C.3     1  UNL1        0.0174
     22 C           6.5359   -2.9008   30.0065 C.3     1  UNL1        0.0721
     23 C           1.5288    1.1461   20.9403 C.ar    1  UNL1        0.0000
     24 C           1.3777   -0.3122   20.6236 C.ar    1  UNL1        0.0001
     25 C           2.3682   -0.9910   19.7245 C.ar    1  UNL1        0.0045
     26 C           3.5097   -0.2114   19.1423 C.ar    1  UNL1        0.0536
     27 C           3.6608    1.2469   19.4590 C.ar    1  UNL1        0.0045
     28 C           2.6704    1.9257   20.3581 C.ar    1  UNL1        0.0001
     29 C          -1.4426    3.1823   23.6375 C.ar    1  UNL1       -0.0222
     30 C          -0.3112    2.3940   24.2277 C.ar    1  UNL1       -0.0043
     31 C           0.6793    1.7153   23.3287 C.ar    1  UNL1       -0.0003
     32 C           0.5383    1.8248   21.8394 C.ar    1  UNL1       -0.0000
     33 C          -0.5930    2.6132   21.2491 C.ar    1  UNL1       -0.0003
     34 C          -1.5835    3.2919   22.1482 C.ar    1  UNL1       -0.0043
     35 C          -3.8993    3.5863   24.3800 C.3     1  UNL1        0.0050
     36 C          -2.4331    3.8611   24.5365 C.3     1  UNL1        0.0264
@<TRIPOS>BOND
     1    35    36    1
     2    36    29    1
     3    29    30   ar
     4    30    31   ar
     5    31    32   ar
     6    32    23    1
     7    23    24   ar
     8    24    25   ar
     9    25    26   ar
    10    26     1    1
    11     1     2    2
    12     1     3   am
    13     3     4    1
    14     5     3    1
    15     5     6    1
    16     6     7    1
    17     7     8    1
    18     8     9   am
    19     9    10    2
    20     9    11   am
    21    11    12    1
    22    12    13    1
    23    13    14    1
    24    14    17    1
    25    17    18    1
    26    18    19    1
    27    19    20    1
    28    20    21    1
    29    21    22    1
    30    14    15    1
    31     8    16    1
    32    26    27   ar
    33    27    28   ar
    34    32    33   ar
    35    33    34   ar
    36    34    29   ar
    37    28    23   ar
    38    16     5    1
    39    15    11    1
    40    22    17    1
@<TRIPOS>MOLECULE
*****
 36 40 0 0 0
SMALL
GASTEIGER

@<TRIPOS>ATOM
      1 C           5.3133    0.8192   28.6727 C.2     1  UNL1        0.2491
      2 O           6.4982    0.4052   29.4939 O.2     1  UNL1       -0.2699
      3 N           4.3793    1.8760   29.1833 N.am    1  UNL1       -0.2742
      4 C           4.6302    2.5187   30.5152 C.3     1  UNL1        0.1152
      5 C           3.1942    2.2900   28.3621 C.3     1  UNL1        0.0972
      6 C           3.1911    3.3282   27.2795 C.3     1  UNL1        0.0431
      7 C           1.7993    3.4183   26.7276 C.3     1  UNL1        0.0968
      8 N           0.9420    2.4358   27.4693 N.am    1  UNL1       -0.2623
      9 C          -0.5205    2.1933   27.2408 C.2     1  UNL1        0.3073
     10 O          -1.2490    1.1729   28.0642 O.2     1  UNL1       -0.2523
     11 N          -1.2544    2.9711   26.1890 N.am    1  UNL1       -0.2626
     12 C          -0.6623    4.0183   25.2928 C.3     1  UNL1        0.0964
     13 C          -1.7512    4.5327   24.3986 C.3     1  UNL1        0.0392
     14 C          -3.0162    3.8035   24.7421 C.3     1  UNL1        0.0791
     15 C          -2.7092    2.8385   25.8486 C.3     1  UNL1        0.1109
     16 C           1.8042    1.7385   28.4794 C.3     1  UNL1        0.1147
     17 N          -4.3536    4.0042   24.0931 N.3     1  UNL1       -0.2723
     18 C          -5.5174    4.4867   24.9071 C.3     1  UNL1        0.0721
     19 C          -6.8548    4.6874   24.2580 C.3     1  UNL1        0.0174
     20 C          -7.0283    4.4056   22.7949 C.3     1  UNL1        0.0029
     21 C          -5.8644    3.9231   21.9810 C.3     1  UNL1        0.0174
     22 C          -4.5271    3.7224   22.6301 C.3     1  UNL1        0.0721
     23 C           4.5604   -1.1092   24.6771 C.ar    1  UNL1        0.0000
     24 C           3.9116   -1.6625   25.9111 C.ar    1  UNL1        0.0001
     25 C           4.1625   -1.0197   27.2429 C.ar    1  UNL1        0.0045
     26 C           5.0623    0.1764   27.3408 C.ar    1  UNL1        0.0536
     27 C           5.7111    0.7298   26.1068 C.ar    1  UNL1        0.0045
     28 C           5.4602    0.0870   24.7750 C.ar    1  UNL1        0.0001
     29 C           3.8076   -3.0375   20.6815 C.ar    1  UNL1       -0.0222
     30 C           3.3402   -1.6354   20.9376 C.ar    1  UNL1       -0.0043
     31 C           3.5912   -0.9926   22.2694 C.ar    1  UNL1       -0.0003
     32 C           4.3095   -1.7520   23.3452 C.ar    1  UNL1       -0.0000
     33 C           4.7768   -3.1541   23.0892 C.ar    1  UNL1       -0.0003
     34 C           4.5258   -3.7969   21.7573 C.ar    1  UNL1       -0.0043
     35 C           4.2995   -4.9256   18.9660 C.3     1  UNL1        0.0050
     36 C           3.5566   -3.6803   19.3497 C.3     1  UNL1        0.0264
@<TRIPOS>BOND
     1    35    36    1
     2    36    29    1
     3    29    30   ar
     4    30    31   ar
     5    31    32   ar
     6    32    23    1
     7    23    24   ar
     8    24    25   ar
     9    25    26   ar
    10    26     1    1
    11     1     2    2
    12     1     3   am
    13     3     4    1
    14     5     3    1
    15     5     6    1
    16     6     7    1
    17     7     8    1
    18     8     9   am
    19     9    10    2
    20     9    11   am
    21    11    12    1
    22    12    13    1
    23    13    14    1
    24    14    17    1
    25    17    18    1
    26    18    19    1
    27    19    20    1
    28    20    21    1
    29    21    22    1
    30    14    15    1
    31     8    16    1
    32    26    27   ar
    33    27    28   ar
    34    32    33   ar
    35    33    34   ar
    36    34    29   ar
    37    28    23   ar
    38    16     5    1
    39    15    11    1
    40    22    17    1
@<TRIPOS>MOLECULE
*****
 36 40 0 0 0
SMALL
GASTEIGER

@<TRIPOS>ATOM
      1 C           5.5248   -2.2610   19.2206 C.2     1  UNL1        0.2491
      2 O           6.0349   -2.7034   17.8812 O.2     1  UNL1       -0.2699
      3 N           6.1676   -2.7745   20.4748 N.am    1  UNL1       -0.2742
      4 C           7.3204   -3.7304   20.3896 C.3     1  UNL1        0.1152
      5 C           5.6576   -2.3322   21.8143 C.3     1  UNL1        0.0972
      6 C           4.8133   -3.1466   22.7491 C.3     1  UNL1        0.0431
      7 C           4.5362   -2.3155   23.9667 C.3     1  UNL1        0.0968
      8 N           5.2093   -0.9874   23.7844 N.am    1  UNL1       -0.2623
      9 C           5.1924    0.1511   24.7610 C.2     1  UNL1        0.3073
     10 O           5.9151    1.4256   24.4396 O.2     1  UNL1       -0.2523
     11 N           4.4527    0.0150   26.0588 N.am    1  UNL1       -0.2626
     12 C           3.6882   -1.1921   26.5156 C.3     1  UNL1        0.0964
     13 C           3.1107   -0.8910   27.8668 C.3     1  UNL1        0.0392
     14 C           3.5182    0.5022   28.2450 C.3     1  UNL1        0.0791
     15 C           4.3476    1.0621   27.1277 C.3     1  UNL1        0.1109
     16 C           5.9024   -0.9978   22.4542 C.3     1  UNL1        0.1147
     17 N           3.1593    1.2110   29.5173 N.3     1  UNL1       -0.2723
     18 C           1.7392    1.2118   30.0005 C.3     1  UNL1        0.0721
     19 C           1.3804    1.9207   31.2729 C.3     1  UNL1        0.0174
     20 C           2.4415    2.6287   32.0620 C.3     1  UNL1        0.0029
     21 C           3.8615    2.6278   31.5788 C.3     1  UNL1        0.0174
     22 C           4.2204    1.9190   30.3065 C.3     1  UNL1        0.0721
     23 C           2.0664    0.6067   19.4763 C.ar    1  UNL1        0.0000
     24 C           1.8819   -0.8281   19.8729 C.ar    1  UNL1        0.0001
     25 C           3.0347   -1.7840   19.7876 C.ar    1  UNL1        0.0045
     26 C           4.3720   -1.3051   19.3059 C.ar    1  UNL1        0.0536
     27 C           4.5565    0.1297   18.9093 C.ar    1  UNL1        0.0045
     28 C           3.4037    1.0856   18.9945 C.ar    1  UNL1        0.0001
     29 C          -1.3921    3.4744   19.7321 C.ar    1  UNL1       -0.0222
     30 C          -1.0272    2.6318   20.9181 C.ar    1  UNL1       -0.0043
     31 C           0.1256    1.6759   20.8329 C.ar    1  UNL1       -0.0003
     32 C           0.9136    1.5626   19.5616 C.ar    1  UNL1       -0.0000
     33 C           0.5487    2.4053   18.3755 C.ar    1  UNL1       -0.0003
     34 C          -0.6041    3.3612   18.4608 C.ar    1  UNL1       -0.0043
     35 C          -3.7747    4.1978   18.9906 C.3     1  UNL1        0.0050
     36 C          -2.5449    4.4303   19.8173 C.3     1  UNL1        0.0264
@<TRIPOS>BOND
     1    35    36    1
     2    36    29    1
     3    29    30   ar
     4    30    31   ar
     5    31    32   ar
     6    32    23    1
     7    23    24   ar
     8    24    25   ar
     9    25    26   ar
    10    26     1    1
    11     1     2    2
    12     1     3   am
    13     3     4    1
    14     5     3    1
    15     5     6    1
    16     6     7    1
    17     7     8    1
    18     8     9   am
    19     9    10    2
    20     9    11   am
    21    11    12    1
    22    12    13    1
    23    13    14    1
    24    14    17    1
    25    17    18    1
    26    18    19    1
    27    19    20    1
    28    20    21    1
    29    21    22    1
    30    14    15    1
    31     8    16    1
    32    26    27   ar
    33    27    28   ar
    34    32    33   ar
    35    33    34   ar
    36    34    29   ar
    37    28    23   ar
    38    16     5    1
    39    15    11    1
    40    22    17    1
@<TRIPOS>MOLECULE
*****
 36 40 0 0 0
SMALL
GASTEIGER

@<TRIPOS>ATOM
      1 C          -0.1374    4.9199   22.3407 C.2     1  UNL1        0.2491
      2 O          -0.8495    5.6558   21.2447 O.2     1  UNL1       -0.2699
      3 N          -0.1172    5.4819   23.7313 N.am    1  UNL1       -0.2742
      4 C          -0.8092    6.7797   24.0259 C.3     1  UNL1        0.1152
      5 C           0.5949    4.7460   24.8274 C.3     1  UNL1        0.0972
      6 C           2.0624    4.8187   25.1294 C.3     1  UNL1        0.0431
      7 C           2.3390    3.9258   26.3025 C.3     1  UNL1        0.0968
      8 N           1.0424    3.3012   26.7256 N.am    1  UNL1       -0.2623
      9 C           0.8564    2.3388   27.8610 C.2     1  UNL1        0.3073
     10 O          -0.5074    1.7946   28.1671 O.2     1  UNL1       -0.2523
     11 N           2.0343    1.9205   28.6902 N.am    1  UNL1       -0.2626
     12 C           3.4506    2.3785   28.5043 C.3     1  UNL1        0.0964
     13 C           4.2943    1.7119   29.5501 C.3     1  UNL1        0.0392
     14 C           3.3995    0.8420   30.3824 C.3     1  UNL1        0.0791
     15 C           2.0028    0.9710   29.8510 C.3     1  UNL1        0.1109
     16 C          -0.0354    3.8081   25.8139 C.3     1  UNL1        0.1147
     17 N           3.8265   -0.0076   31.5425 N.3     1  UNL1       -0.2723
     18 C           3.6685    0.5027   32.9441 C.3     1  UNL1        0.0721
     19 C           4.0955   -0.3471   34.1042 C.3     1  UNL1        0.0174
     20 C           4.6804   -1.7071   33.8626 C.3     1  UNL1        0.0029
     21 C           4.8384   -2.2173   32.4610 C.3     1  UNL1        0.0174
     22 C           4.4114   -1.3676   31.3009 C.3     1  UNL1        0.0721
     23 C           1.9384    1.0263   21.4570 C.ar    1  UNL1        0.0000
     24 C           2.6741    2.3230   21.2915 C.ar    1  UNL1        0.0001
     25 C           1.9822    3.6208   21.5860 C.ar    1  UNL1        0.0045
     26 C           0.5545    3.6221   22.0461 C.ar    1  UNL1        0.0536
     27 C          -0.1812    2.3254   22.2117 C.ar    1  UNL1        0.0045
     28 C           0.5108    1.0276   21.9171 C.ar    1  UNL1        0.0001
     29 C           4.0143   -2.8672   20.5733 C.ar    1  UNL1       -0.0222
     30 C           4.0558   -2.2926   21.9582 C.ar    1  UNL1       -0.0043
     31 C           3.3638   -0.9948   22.2528 C.ar    1  UNL1       -0.0003
     32 C           2.6304   -0.2715   21.1624 C.ar    1  UNL1       -0.0000
     33 C           2.5889   -0.8461   19.7775 C.ar    1  UNL1       -0.0003
     34 C           3.2808   -2.1440   19.4829 C.ar    1  UNL1       -0.0043
     35 C           4.4739   -4.8585   18.9691 C.3     1  UNL1        0.0050
     36 C           4.7062   -4.1651   20.2787 C.3     1  UNL1        0.0264
@<TRIPOS>BOND
     1    35    36    1
     2    36    29    1
     3    29    30   ar
     4    30    31   ar
     5    31    32   ar
     6    32    23    1
     7    23    24   ar
     8    24    25   ar
     9    25    26   ar
    10    26     1    1
    11     1     2    2
    12     1     3   am
    13     3     4    1
    14     5     3    1
    15     5     6    1
    16     6     7    1
    17     7     8    1
    18     8     9   am
    19     9    10    2
    20     9    11   am
    21    11    12    1
    22    12    13    1
    23    13    14    1
    24    14    17    1
    25    17    18    1
    26    18    19    1
    27    19    20    1
    28    20    21    1
    29    21    22    1
    30    14    15    1
    31     8    16    1
    32    26    27   ar
    33    27    28   ar
    34    32    33   ar
    35    33    34   ar
    36    34    29   ar
    37    28    23   ar
    38    16     5    1
    39    15    11    1
    40    22    17    1
