@<TRIPOS>MOLECULE
*****
 39 42 0 0 0
SMALL
GASTEIGER

@<TRIPOS>ATOM
      1 C           6.2090   -2.8907   27.3974 C.3     1  UNL1        0.0326
      2 C           6.5853   -3.8274   28.5069 C.ar    1  UNL1       -0.0045
      3 C           7.0315   -5.2241   28.1904 C.ar    1  UNL1       -0.0027
      4 C           7.4077   -6.1608   29.2999 C.ar    1  UNL1        0.0013
      5 C           7.3378   -5.7008   30.7259 C.ar    1  UNL1        0.0206
      6 C           6.8917   -4.3042   31.0424 C.ar    1  UNL1        0.0996
      7 N           6.7245   -3.5741   32.3421 N.ar    1  UNL1       -0.2135
      8 C           6.2450   -2.1862   32.0359 C.ar    1  UNL1        0.2039
      9 N           6.1158   -2.0585   30.5469 N.ar    1  UNL1       -0.2999
     10 C           6.5154   -3.3675   29.9329 C.ar    1  UNL1        0.0758
     11 C           5.6658   -0.8364   29.8026 C.3     1  UNL1        0.1078
     12 C           6.7548   -0.0242   29.1664 C.3     1  UNL1        0.0245
     13 C           6.6333    1.2369   28.3634 C.3     1  UNL1        0.0037
     14 C           5.3930    1.9973   27.9981 C.3     1  UNL1        0.0216
     15 C           3.9678    1.6844   28.3458 C.3     1  UNL1        0.0938
     16 N           3.4308    0.5338   29.1445 N.am    1  UNL1       -0.2742
     17 C           1.9413    0.5006   29.3178 C.2     1  UNL1        0.2489
     18 O           1.3017   -0.6081   30.0999 O.2     1  UNL1       -0.2699
     19 C           4.1866   -0.5880   29.7928 C.3     1  UNL1        0.1162
     20 C           1.0913    1.5762   28.7090 C.2     1  UNL1        0.0548
     21 C          -0.0587    1.2093   27.8185 C.2     1  UNL1       -0.0041
     22 C          -0.9087    2.2849   27.2097 C.3     1  UNL1        0.0991
     23 N          -1.0072    2.4087   25.7181 N.3     1  UNL1       -0.2665
     24 C          -2.1121    3.2161   25.1038 C.3     1  UNL1        0.0899
     25 C          -0.0008    1.7250   24.8407 C.3     1  UNL1        0.0899
     26 N           5.9471   -1.1143   33.0419 N.am    1  UNL1       -0.2518
     27 C           4.7639   -1.2496   33.9539 C.2     1  UNL1        0.2516
     28 O           3.8786   -2.4569   33.8599 O.2     1  UNL1       -0.2697
     29 H           6.5281   -0.3219   33.1037 H       1  UNL1        0.1580
     30 C           4.4659   -0.1777   34.9600 C.ar    1  UNL1        0.0537
     31 C           5.0614   -0.2529   36.3347 C.ar    1  UNL1        0.0045
     32 C           4.7635    0.8191   37.3408 C.ar    1  UNL1        0.0001
     33 C           3.8700    1.9662   36.9721 C.ar    1  UNL1        0.0039
     34 C           3.2746    2.0414   35.5974 C.ar    1  UNL1        0.0716
     35 C           3.5725    0.9695   34.5914 C.ar    1  UNL1        0.0084
     36 C           2.3812    3.1885   35.2288 C.3     1  UNL1        0.4186
     37 F           1.4877    4.3357   34.8602 F       1  UNL1       -0.1659
     38 F           3.0151    4.0263   36.2994 F       1  UNL1       -0.1659
     39 F           1.7472    2.3508   34.1582 F       1  UNL1       -0.1659
@<TRIPOS>BOND
     1     1     2    1
     2     2     3   ar
     3     3     4   ar
     4     4     5   ar
     5     5     6   ar
     6     6     7   ar
     7     7     8   ar
     8     8    26    1
     9    26    27   am
    10    27    28    2
    11    27    30    1
    12    30    31   ar
    13    31    32   ar
    14    32    33   ar
    15    33    34   ar
    16    34    36    1
    17    36    37    1
    18    36    38    1
    19    36    39    1
    20    34    35   ar
    21     8     9   ar
    22    11     9    1
    23    11    12    1
    24    12    13    1
    25    13    14    1
    26    14    15    1
    27    15    16    1
    28    16    17   am
    29    17    18    2
    30    17    20    1
    31    20    21    2
    32    21    22    1
    33    22    23    1
    34    23    24    1
    35    23    25    1
    36    16    19    1
    37     9    10   ar
    38    10     2   ar
    39    10     6   ar
    40    35    30   ar
    41    19    11    1
    42    26    29    1
@<TRIPOS>MOLECULE
*****
 39 42 0 0 0
SMALL
GASTEIGER

@<TRIPOS>ATOM
      1 C           2.4093    0.8071   31.2961 C.3     1  UNL1        0.0326
      2 C           3.6730    0.0185   31.1190 C.ar    1  UNL1       -0.0045
      3 C           4.6271   -0.1368   32.2660 C.ar    1  UNL1       -0.0027
      4 C           5.8907   -0.9254   32.0889 C.ar    1  UNL1        0.0013
      5 C           6.2003   -1.5586   30.7648 C.ar    1  UNL1        0.0206
      6 C           5.2462   -1.4032   29.6179 C.ar    1  UNL1        0.0996
      7 N           5.2827   -1.9093   28.2063 N.ar    1  UNL1       -0.2135
      8 C           4.0417   -1.4336   27.5110 C.ar    1  UNL1        0.2039
      9 N           3.2382   -0.6334   28.4929 N.ar    1  UNL1       -0.2999
     10 C           3.9825   -0.6147   29.7950 C.ar    1  UNL1        0.0758
     11 C           1.9214    0.0313   28.2205 C.3     1  UNL1        0.1078
     12 C           0.7608   -0.4675   29.0295 C.3     1  UNL1        0.0245
     13 C          -0.6684   -0.0139   28.9929 C.3     1  UNL1        0.0037
     14 C          -1.2903    1.0506   28.1383 C.3     1  UNL1        0.0216
     15 C          -0.6364    1.9243   27.1093 C.3     1  UNL1        0.0938
     16 N           0.8008    1.9494   26.6806 N.am    1  UNL1       -0.2742
     17 C           1.1454    2.9491   25.6167 C.2     1  UNL1        0.2489
     18 O           2.5555    3.0561   25.1164 O.2     1  UNL1       -0.2699
     19 C           1.9391    1.1069   27.1752 C.3     1  UNL1        0.1162
     20 C           0.0798    3.8418   25.0531 C.2     1  UNL1        0.0548
     21 C          -0.7497    3.3789   23.8922 C.2     1  UNL1       -0.0041
     22 C          -1.8153    4.2715   23.3286 C.3     1  UNL1        0.0991
     23 N          -2.8146    3.7233   22.3535 N.3     1  UNL1       -0.2665
     24 C          -4.2187    3.4392   22.7983 C.3     1  UNL1        0.0899
     25 C          -2.4098    3.4591   20.9335 C.3     1  UNL1        0.0899
     26 N           3.6696   -1.7095   26.0843 N.am    1  UNL1       -0.2518
     27 C           4.1431   -0.7934   24.9951 C.2     1  UNL1        0.2516
     28 O           4.9888    0.3987   25.3325 O.2     1  UNL1       -0.2697
     29 H           3.1145   -2.4918   25.8629 H       1  UNL1        0.1580
     30 C           3.7710   -1.0693   23.5684 C.ar    1  UNL1        0.0537
     31 C           4.5108   -2.1161   22.7893 C.ar    1  UNL1        0.0045
     32 C           4.1387   -2.3921   21.3627 C.ar    1  UNL1        0.0001
     33 C           3.0267   -1.6211   20.7151 C.ar    1  UNL1        0.0039
     34 C           2.2870   -0.5743   21.4941 C.ar    1  UNL1        0.0716
     35 C           2.6591   -0.2984   22.9208 C.ar    1  UNL1        0.0084
     36 C           1.1751    0.1966   20.8465 C.3     1  UNL1        0.4186
     37 F           0.0632    0.9675   20.1989 F       1  UNL1       -0.1659
     38 F           0.8063   -1.0131   20.0399 F       1  UNL1       -0.1659
     39 F           1.5440    1.4062   21.6531 F       1  UNL1       -0.1659
@<TRIPOS>BOND
     1     1     2    1
     2     2     3   ar
     3     3     4   ar
     4     4     5   ar
     5     5     6   ar
     6     6     7   ar
     7     7     8   ar
     8     8    26    1
     9    26    27   am
    10    27    28    2
    11    27    30    1
    12    30    31   ar
    13    31    32   ar
    14    32    33   ar
    15    33    34   ar
    16    34    36    1
    17    36    37    1
    18    36    38    1
    19    36    39    1
    20    34    35   ar
    21     8     9   ar
    22    11     9    1
    23    11    12    1
    24    12    13    1
    25    13    14    1
    26    14    15    1
    27    15    16    1
    28    16    17   am
    29    17    18    2
    30    17    20    1
    31    20    21    2
    32    21    22    1
    33    22    23    1
    34    23    24    1
    35    23    25    1
    36    16    19    1
    37     9    10   ar
    38    10     2   ar
    39    10     6   ar
    40    35    30   ar
    41    19    11    1
    42    26    29    1
@<TRIPOS>MOLECULE
*****
 39 42 0 0 0
SMALL
GASTEIGER

@<TRIPOS>ATOM
      1 C           2.6191    0.7068   31.1308 C.3     1  UNL1        0.0326
      2 C           3.9026   -0.0180   30.8533 C.ar    1  UNL1       -0.0045
      3 C           4.9352   -0.1549   31.9326 C.ar    1  UNL1       -0.0027
      4 C           6.2187   -0.8798   31.6551 C.ar    1  UNL1        0.0013
      5 C           6.4697   -1.4678   30.2982 C.ar    1  UNL1        0.0206
      6 C           5.4371   -1.3310   29.2189 C.ar    1  UNL1        0.0996
      7 N           5.4045   -1.8028   27.7954 N.ar    1  UNL1       -0.2135
      8 C           4.1009   -1.3695   27.1931 C.ar    1  UNL1        0.2039
      9 N           3.3277   -0.6299   28.2444 N.ar    1  UNL1       -0.2999
     10 C           4.1536   -0.6061   29.4964 C.ar    1  UNL1        0.0758
     11 C           1.9676   -0.0210   28.0738 C.3     1  UNL1        0.1078
     12 C           0.8939   -0.5651   28.9690 C.3     1  UNL1        0.0245
     13 C          -0.5515   -0.1711   29.0420 C.3     1  UNL1        0.0037
     14 C          -1.2805    0.8643   28.2379 C.3     1  UNL1        0.0216
     15 C          -0.7439    1.7614   27.1621 C.3     1  UNL1        0.0938
     16 N           0.6541    1.8448   26.6247 N.am    1  UNL1       -0.2742
     17 C           0.8746    2.8548   25.5380 C.2     1  UNL1        0.2489
     18 O           2.2366    3.0187   24.9314 O.2     1  UNL1       -0.2699
     19 C           1.8608    1.0514   27.0305 C.3     1  UNL1        0.1162
     20 C          -0.2671    3.7011   25.0579 C.2     1  UNL1        0.0548
     21 C          -1.0454    3.2911   23.8429 C.2     1  UNL1       -0.0041
     22 C          -2.1871    4.1372   23.3627 C.3     1  UNL1        0.0991
     23 N          -3.5902    3.8112   23.7809 N.3     1  UNL1       -0.2665
     24 C          -4.5718    3.2915   22.7728 C.3     1  UNL1        0.0899
     25 C          -4.0117    4.0048   25.2074 C.3     1  UNL1        0.0899
     26 N           3.6496   -1.6300   25.7865 N.am    1  UNL1       -0.2518
     27 C           4.0146   -0.6714   24.6921 C.2     1  UNL1        0.2516
     28 O           4.8309    0.5478   25.0042 O.2     1  UNL1       -0.2697
     29 H           3.1139   -2.4301   25.5817 H       1  UNL1        0.1580
     30 C           3.5633   -0.9319   23.2855 C.ar    1  UNL1        0.0537
     31 C           2.5815   -0.0069   22.6293 C.ar    1  UNL1        0.0045
     32 C           2.1302   -0.2674   21.2227 C.ar    1  UNL1        0.0001
     33 C           2.6607   -1.4530   20.4723 C.ar    1  UNL1        0.0039
     34 C           3.6424   -2.3780   21.1285 C.ar    1  UNL1        0.0716
     35 C           4.0937   -2.1174   22.5351 C.ar    1  UNL1        0.0084
     36 C           4.1728   -3.5635   20.3781 C.3     1  UNL1        0.4186
     37 F           4.7033   -4.7490   19.6276 F       1  UNL1       -0.1659
     38 F           4.6241   -4.1789   21.6694 F       1  UNL1       -0.1659
     39 F           3.7215   -2.9480   19.0868 F       1  UNL1       -0.1659
@<TRIPOS>BOND
     1     1     2    1
     2     2     3   ar
     3     3     4   ar
     4     4     5   ar
     5     5     6   ar
     6     6     7   ar
     7     7     8   ar
     8     8    26    1
     9    26    27   am
    10    27    28    2
    11    27    30    1
    12    30    31   ar
    13    31    32   ar
    14    32    33   ar
    15    33    34   ar
    16    34    36    1
    17    36    37    1
    18    36    38    1
    19    36    39    1
    20    34    35   ar
    21     8     9   ar
    22    11     9    1
    23    11    12    1
    24    12    13    1
    25    13    14    1
    26    14    15    1
    27    15    16    1
    28    16    17   am
    29    17    18    2
    30    17    20    1
    31    20    21    2
    32    21    22    1
    33    22    23    1
    34    23    24    1
    35    23    25    1
    36    16    19    1
    37     9    10   ar
    38    10     2   ar
    39    10     6   ar
    40    35    30   ar
    41    19    11    1
    42    26    29    1
@<TRIPOS>MOLECULE
*****
 39 42 0 0 0
SMALL
GASTEIGER

@<TRIPOS>ATOM
      1 C           5.4821   -1.0697   28.6898 C.3     1  UNL1        0.0326
      2 C           5.8083   -1.9908   29.8279 C.ar    1  UNL1       -0.0045
      3 C           6.6291   -3.2224   29.5844 C.ar    1  UNL1       -0.0027
      4 C           6.9552   -4.1435   30.7224 C.ar    1  UNL1        0.0013
      5 C           6.4606   -3.8330   32.1040 C.ar    1  UNL1        0.0206
      6 C           5.6398   -2.6014   32.3476 C.ar    1  UNL1        0.0996
      7 N           5.0183   -2.0392   33.5916 N.ar    1  UNL1       -0.2135
      8 C           4.3080   -0.7707   33.2225 C.ar    1  UNL1        0.2039
      9 N           4.4905   -0.5489   31.7502 N.ar    1  UNL1       -0.2999
     10 C           5.3136   -1.6803   31.2095 C.ar    1  UNL1        0.0758
     11 C           3.9456    0.6023   30.9578 C.3     1  UNL1        0.1078
     12 C           4.8345    1.8070   30.8647 C.3     1  UNL1        0.0245
     13 C           4.5813    3.1034   30.1541 C.3     1  UNL1        0.0037
     14 C           3.3766    3.5155   29.3610 C.3     1  UNL1        0.0216
     15 C           2.1276    2.7328   29.0827 C.3     1  UNL1        0.0938
     16 N           1.7748    1.3447   29.5288 N.am    1  UNL1       -0.2742
     17 C           0.4359    0.8377   29.0812 C.2     1  UNL1        0.2489
     18 O          -0.0142   -0.5385   29.4728 O.2     1  UNL1       -0.2699
     19 C           2.5840    0.3966   30.3633 C.3     1  UNL1        0.1162
     20 C          -0.4528    1.7071   28.2419 C.2     1  UNL1        0.0548
     21 C          -0.4066    1.6044   26.7461 C.2     1  UNL1       -0.0041
     22 C          -1.2953    2.4737   25.9068 C.3     1  UNL1        0.0991
     23 N          -0.7207    3.2424   24.7540 N.3     1  UNL1       -0.2665
     24 C           0.7175    3.6678   24.7785 C.3     1  UNL1        0.0899
     25 C          -1.5844    3.5856   23.5766 C.3     1  UNL1        0.0899
     26 N           3.5485    0.1197   34.1608 N.am    1  UNL1       -0.2518
     27 C           4.2889    1.0282   35.0969 C.2     1  UNL1        0.2516
     28 O           5.7888    1.0464   35.0948 O.2     1  UNL1       -0.2697
     29 H           2.5641    0.1078   34.1622 H       1  UNL1        0.1580
     30 C           3.5294    1.9186   36.0352 C.ar    1  UNL1        0.0537
     31 C           3.5134    3.4021   35.8135 C.ar    1  UNL1        0.0045
     32 C           2.7539    4.2925   36.7518 C.ar    1  UNL1        0.0001
     33 C           2.0104    3.6993   37.9118 C.ar    1  UNL1        0.0039
     34 C           2.0264    2.2159   38.1334 C.ar    1  UNL1        0.0716
     35 C           2.7859    1.3255   37.1951 C.ar    1  UNL1        0.0084
     36 C           1.2829    1.6229   39.2934 C.3     1  UNL1        0.4186
     37 F           0.5393    1.0298   40.4533 F       1  UNL1       -0.1659
     38 F           2.3532    0.5834   39.4480 F       1  UNL1       -0.1659
     39 F           0.2126    2.6623   39.1387 F       1  UNL1       -0.1659
@<TRIPOS>BOND
     1     1     2    1
     2     2     3   ar
     3     3     4   ar
     4     4     5   ar
     5     5     6   ar
     6     6     7   ar
     7     7     8   ar
     8     8    26    1
     9    26    27   am
    10    27    28    2
    11    27    30    1
    12    30    31   ar
    13    31    32   ar
    14    32    33   ar
    15    33    34   ar
    16    34    36    1
    17    36    37    1
    18    36    38    1
    19    36    39    1
    20    34    35   ar
    21     8     9   ar
    22    11     9    1
    23    11    12    1
    24    12    13    1
    25    13    14    1
    26    14    15    1
    27    15    16    1
    28    16    17   am
    29    17    18    2
    30    17    20    1
    31    20    21    2
    32    21    22    1
    33    22    23    1
    34    23    24    1
    35    23    25    1
    36    16    19    1
    37     9    10   ar
    38    10     2   ar
    39    10     6   ar
    40    35    30   ar
    41    19    11    1
    42    26    29    1
@<TRIPOS>MOLECULE
*****
 39 42 0 0 0
SMALL
GASTEIGER

@<TRIPOS>ATOM
      1 C          -1.0080    5.9960   23.1632 C.3     1  UNL1        0.0326
      2 C          -1.5799    5.2184   22.0150 C.ar    1  UNL1       -0.0045
      3 C          -2.6846    5.8057   21.1877 C.ar    1  UNL1       -0.0027
      4 C          -3.2564    5.0282   20.0394 C.ar    1  UNL1        0.0013
      5 C          -2.7235    3.6633   19.7185 C.ar    1  UNL1        0.0206
      6 C          -1.6187    3.0760   20.5459 C.ar    1  UNL1        0.0996
      7 N          -0.8961    1.7637   20.4691 N.ar    1  UNL1       -0.2135
      8 C           0.1223    1.7302   21.5699 C.ar    1  UNL1        0.2039
      9 N           0.0291    3.0218   22.3270 N.ar    1  UNL1       -0.2999
     10 C          -1.0469    3.8535   21.6941 C.ar    1  UNL1        0.0758
     11 C           0.8651    3.4130   23.5094 C.3     1  UNL1        0.1078
     12 C           2.0822    4.2344   23.2027 C.3     1  UNL1        0.0245
     13 C           3.1082    4.7767   24.1529 C.3     1  UNL1        0.0037
     14 C           3.1707    4.6317   25.6446 C.3     1  UNL1        0.0216
     15 C           2.2224    3.9085   26.5544 C.3     1  UNL1        0.0938
     16 N           0.9775    3.1517   26.1973 N.am    1  UNL1       -0.2742
     17 C           0.2390    2.5337   27.3474 C.2     1  UNL1        0.2489
     18 O          -1.0188    1.7550   27.0994 O.2     1  UNL1       -0.2699
     19 C           0.3735    2.9312   24.8421 C.3     1  UNL1        0.1162
     20 C           0.7584    2.6944   28.7453 C.2     1  UNL1        0.0548
     21 C           0.4244    1.6727   29.7916 C.2     1  UNL1       -0.0041
     22 C           0.9438    1.8333   31.1896 C.3     1  UNL1        0.0991
     23 N           2.0928    0.9939   31.6639 N.3     1  UNL1       -0.2665
     24 C           2.7663    1.3113   32.9661 C.3     1  UNL1        0.0899
     25 C           2.5684   -0.1630   30.8361 C.3     1  UNL1        0.0899
     26 N           1.0678    0.6031   21.8623 N.am    1  UNL1       -0.2518
     27 C           1.8056   -0.0669   20.7413 C.2     1  UNL1        0.2516
     28 O           1.5979    0.3903   19.3278 O.2     1  UNL1       -0.2697
     29 H           1.2041    0.3030   22.7900 H       1  UNL1        0.1580
     30 C           2.7512   -1.1940   21.0337 C.ar    1  UNL1        0.0537
     31 C           3.3579   -1.3290   22.3989 C.ar    1  UNL1        0.0045
     32 C           4.3034   -2.4561   22.6913 C.ar    1  UNL1        0.0001
     33 C           4.6423   -3.4483   21.6185 C.ar    1  UNL1        0.0039
     34 C           4.0356   -3.3132   20.2533 C.ar    1  UNL1        0.0716
     35 C           3.0901   -2.1861   19.9609 C.ar    1  UNL1        0.0084
     36 C           4.3745   -4.3053   19.1806 C.3     1  UNL1        0.4186
     37 F           4.7135   -5.2974   18.1078 F       1  UNL1       -0.1659
     38 F           3.0166   -4.9258   19.3254 F       1  UNL1       -0.1659
     39 F           5.7324   -3.6849   19.0357 F       1  UNL1       -0.1659
@<TRIPOS>BOND
     1     1     2    1
     2     2     3   ar
     3     3     4   ar
     4     4     5   ar
     5     5     6   ar
     6     6     7   ar
     7     7     8   ar
     8     8    26    1
     9    26    27   am
    10    27    28    2
    11    27    30    1
    12    30    31   ar
    13    31    32   ar
    14    32    33   ar
    15    33    34   ar
    16    34    36    1
    17    36    37    1
    18    36    38    1
    19    36    39    1
    20    34    35   ar
    21     8     9   ar
    22    11     9    1
    23    11    12    1
    24    12    13    1
    25    13    14    1
    26    14    15    1
    27    15    16    1
    28    16    17   am
    29    17    18    2
    30    17    20    1
    31    20    21    2
    32    21    22    1
    33    22    23    1
    34    23    24    1
    35    23    25    1
    36    16    19    1
    37     9    10   ar
    38    10     2   ar
    39    10     6   ar
    40    35    30   ar
    41    19    11    1
    42    26    29    1
@<TRIPOS>MOLECULE
*****
 39 42 0 0 0
SMALL
GASTEIGER

@<TRIPOS>ATOM
      1 C           2.0576    4.2211   35.3197 C.3     1  UNL1        0.0326
      2 C           2.2898    3.2583   36.4463 C.ar    1  UNL1       -0.0045
      3 C           1.5324    3.4116   37.7319 C.ar    1  UNL1       -0.0027
      4 C           1.7646    2.4489   38.8585 C.ar    1  UNL1        0.0013
      5 C           2.7541    1.3329   38.6995 C.ar    1  UNL1        0.0206
      6 C           3.5114    1.1796   37.4139 C.ar    1  UNL1        0.0996
      7 N           4.5424    0.1851   36.9688 N.ar    1  UNL1       -0.2135
      8 C           4.9474    0.5332   35.5671 C.ar    1  UNL1        0.2039
      9 N           4.1667    1.7428   35.1459 N.ar    1  UNL1       -0.2999
     10 C           3.2793    2.1423   36.2873 C.ar    1  UNL1        0.0758
     11 C           4.2576    2.4320   33.8167 C.3     1  UNL1        0.1078
     12 C           5.1448    3.6406   33.7695 C.3     1  UNL1        0.0245
     13 C           5.4427    4.5371   32.6045 C.3     1  UNL1        0.0037
     14 C           4.9272    4.4465   31.1987 C.3     1  UNL1        0.0216
     15 C           3.9862    3.4370   30.6110 C.3     1  UNL1        0.0938
     16 N           3.3285    2.2687   31.2837 N.am    1  UNL1       -0.2742
     17 C           2.4314    1.4377   30.4149 C.2     1  UNL1        0.2489
     18 O           1.7248    0.2459   30.9896 O.2     1  UNL1       -0.2699
     19 C           3.4493    1.8215   32.7104 C.3     1  UNL1        0.1162
     20 C           2.2409    1.7988   28.9716 C.2     1  UNL1        0.0548
     21 C           1.4933    0.8722   28.0591 C.2     1  UNL1       -0.0041
     22 C           1.3027    1.2332   26.6157 C.3     1  UNL1        0.0991
     23 N           0.0035    1.8250   26.1557 N.3     1  UNL1       -0.2665
     24 C          -1.0784    2.1243   27.1506 C.3     1  UNL1        0.0899
     25 C          -0.2139    2.1174   24.7006 C.3     1  UNL1        0.0899
     26 N           5.9560   -0.1997   34.7330 N.am    1  UNL1       -0.2518
     27 C           5.5050   -1.2499   33.7617 C.2     1  UNL1        0.2516
     28 O           4.0453   -1.5674   33.6244 O.2     1  UNL1       -0.2697
     29 H           6.9139    0.0087   34.8231 H       1  UNL1        0.1580
     30 C           6.5136   -1.9828   32.9276 C.ar    1  UNL1        0.0537
     31 C           7.9759   -1.6912   33.0909 C.ar    1  UNL1        0.0045
     32 C           8.9845   -2.4241   32.2568 C.ar    1  UNL1        0.0001
     33 C           8.5307   -3.4485   31.2594 C.ar    1  UNL1        0.0039
     34 C           7.0684   -3.7401   31.0962 C.ar    1  UNL1        0.0716
     35 C           6.0599   -3.0072   31.9303 C.ar    1  UNL1        0.0084
     36 C           6.6147   -4.7645   30.0989 C.3     1  UNL1        0.4186
     37 F           6.1610   -5.7889   29.1014 F       1  UNL1       -0.1659
     38 F           6.8353   -5.8484   31.1119 F       1  UNL1       -0.1659
     39 F           6.3942   -3.6805   29.0858 F       1  UNL1       -0.1659
@<TRIPOS>BOND
     1     1     2    1
     2     2     3   ar
     3     3     4   ar
     4     4     5   ar
     5     5     6   ar
     6     6     7   ar
     7     7     8   ar
     8     8    26    1
     9    26    27   am
    10    27    28    2
    11    27    30    1
    12    30    31   ar
    13    31    32   ar
    14    32    33   ar
    15    33    34   ar
    16    34    36    1
    17    36    37    1
    18    36    38    1
    19    36    39    1
    20    34    35   ar
    21     8     9   ar
    22    11     9    1
    23    11    12    1
    24    12    13    1
    25    13    14    1
    26    14    15    1
    27    15    16    1
    28    16    17   am
    29    17    18    2
    30    17    20    1
    31    20    21    2
    32    21    22    1
    33    22    23    1
    34    23    24    1
    35    23    25    1
    36    16    19    1
    37     9    10   ar
    38    10     2   ar
    39    10     6   ar
    40    35    30   ar
    41    19    11    1
    42    26    29    1
@<TRIPOS>MOLECULE
*****
 39 42 0 0 0
SMALL
GASTEIGER

@<TRIPOS>ATOM
      1 C          -2.9218    3.8510   17.4389 C.3     1  UNL1        0.0326
      2 C          -4.0837    3.9814   18.3787 C.ar    1  UNL1       -0.0045
      3 C          -5.4765    4.1068   17.8363 C.ar    1  UNL1       -0.0027
      4 C          -6.6384    4.2372   18.7760 C.ar    1  UNL1        0.0013
      5 C          -6.4074    4.2422   20.2581 C.ar    1  UNL1        0.0206
      6 C          -5.0145    4.1168   20.8004 C.ar    1  UNL1        0.0996
      7 N          -4.4819    4.0910   22.2024 N.ar    1  UNL1       -0.2135
      8 C          -2.9908    3.9446   22.1293 C.ar    1  UNL1        0.2039
      9 N          -2.6020    3.8800   20.6820 N.ar    1  UNL1       -0.2999
     10 C          -3.8527    3.9864   19.8607 C.ar    1  UNL1        0.0758
     11 C          -1.2073    3.7345   20.1494 C.3     1  UNL1        0.1078
     12 C          -0.5798    4.9886   19.6168 C.3     1  UNL1        0.0245
     13 C           0.7853    5.1721   19.0231 C.3     1  UNL1        0.0037
     14 C           1.8604    4.1469   18.8154 C.3     1  UNL1        0.0216
     15 C           1.8357    2.6849   19.1500 C.3     1  UNL1        0.0938
     16 N           0.7299    1.8871   19.7751 N.am    1  UNL1       -0.2742
     17 C           1.0162    0.4294   19.9828 C.2     1  UNL1        0.2489
     18 O          -0.0230   -0.4584   20.6009 O.2     1  UNL1       -0.2699
     19 C          -0.6243    2.3543   20.2198 C.3     1  UNL1        0.1162
     20 C           2.3416   -0.1405   19.5726 C.2     1  UNL1        0.0548
     21 C           2.6851   -1.5605   19.9126 C.2     1  UNL1       -0.0041
     22 C           4.0105   -2.1305   19.5024 C.3     1  UNL1        0.0991
     23 N           4.3959   -3.5158   19.9294 N.3     1  UNL1       -0.2665
     24 C           4.5821   -4.5928   18.9021 C.3     1  UNL1        0.0899
     25 C           4.5950   -3.8241   21.3838 C.3     1  UNL1        0.0899
     26 N          -2.0533    3.8751   23.2981 N.am    1  UNL1       -0.2518
     27 C          -2.5920    3.6461   24.6791 C.2     1  UNL1        0.2516
     28 O          -4.0684    3.4866   24.8914 O.2     1  UNL1       -0.2697
     29 H          -1.0843    3.9798   23.1588 H       1  UNL1        0.1580
     30 C          -1.6545    3.5766   25.8479 C.ar    1  UNL1        0.0537
     31 C          -1.0015    4.8258   26.3610 C.ar    1  UNL1        0.0045
     32 C          -0.0639    4.7563   27.5298 C.ar    1  UNL1        0.0001
     33 C           0.2207    3.4375   28.1856 C.ar    1  UNL1        0.0039
     34 C          -0.4323    2.1884   27.6725 C.ar    1  UNL1        0.0716
     35 C          -1.3698    2.2579   26.5037 C.ar    1  UNL1        0.0084
     36 C          -0.1477    0.8697   28.3283 C.3     1  UNL1        0.4186
     37 F           0.1370   -0.4490   28.9841 F       1  UNL1       -0.1659
     38 F          -1.6202    0.6266   28.4785 F       1  UNL1       -0.1659
     39 F           1.3248    1.1129   28.1782 F       1  UNL1       -0.1659
@<TRIPOS>BOND
     1     1     2    1
     2     2     3   ar
     3     3     4   ar
     4     4     5   ar
     5     5     6   ar
     6     6     7   ar
     7     7     8   ar
     8     8    26    1
     9    26    27   am
    10    27    28    2
    11    27    30    1
    12    30    31   ar
    13    31    32   ar
    14    32    33   ar
    15    33    34   ar
    16    34    36    1
    17    36    37    1
    18    36    38    1
    19    36    39    1
    20    34    35   ar
    21     8     9   ar
    22    11     9    1
    23    11    12    1
    24    12    13    1
    25    13    14    1
    26    14    15    1
    27    15    16    1
    28    16    17   am
    29    17    18    2
    30    17    20    1
    31    20    21    2
    32    21    22    1
    33    22    23    1
    34    23    24    1
    35    23    25    1
    36    16    19    1
    37     9    10   ar
    38    10     2   ar
    39    10     6   ar
    40    35    30   ar
    41    19    11    1
    42    26    29    1
@<TRIPOS>MOLECULE
*****
 39 42 0 0 0
SMALL
GASTEIGER

@<TRIPOS>ATOM
      1 C           3.4826    2.8689   29.3724 C.3     1  UNL1        0.0326
      2 C           4.0636    1.4997   29.5666 C.ar    1  UNL1       -0.0045
      3 C           4.6981    1.1330   30.8754 C.ar    1  UNL1       -0.0027
      4 C           5.2791   -0.2362   31.0697 C.ar    1  UNL1        0.0013
      5 C           5.2257   -1.2387   29.9552 C.ar    1  UNL1        0.0206
      6 C           4.5912   -0.8720   28.6464 C.ar    1  UNL1        0.0996
      7 N           4.3930   -1.6441   27.3758 N.ar    1  UNL1       -0.2135
      8 C           3.6894   -0.7522   26.3962 C.ar    1  UNL1        0.2039
      9 N           3.4528    0.5712   27.0615 N.ar    1  UNL1       -0.2999
     10 C           4.0101    0.4972   28.4522 C.ar    1  UNL1        0.0758
     11 C           2.7775    1.7600   26.4444 C.3     1  UNL1        0.1078
     12 C           3.6545    2.6469   25.6111 C.3     1  UNL1        0.0245
     13 C           3.2851    3.8974   24.8698 C.3     1  UNL1        0.0037
     14 C           1.9475    4.5701   24.7787 C.3     1  UNL1        0.0216
     15 C           0.6489    4.1582   25.4064 C.3     1  UNL1        0.0938
     16 N           0.3672    2.9720   26.2802 N.am    1  UNL1       -0.2742
     17 C          -1.0491    2.8349   26.7549 C.2     1  UNL1        0.2489
     18 O          -1.4374    1.6834   27.6341 O.2     1  UNL1       -0.2699
     19 C           1.3146    1.9047   26.7421 C.3     1  UNL1        0.1162
     20 C          -2.0772    3.8495   26.3502 C.2     1  UNL1        0.0548
     21 C          -3.5297    3.5966   26.6261 C.2     1  UNL1       -0.0041
     22 C          -4.5578    4.6111   26.2215 C.3     1  UNL1        0.0991
     23 N          -5.3868    4.3893   24.9912 N.3     1  UNL1       -0.2665
     24 C          -4.9244    3.4258   23.9388 C.3     1  UNL1        0.0899
     25 C          -6.6784    5.1311   24.8135 C.3     1  UNL1        0.0899
     26 N           3.2922   -1.1193   24.9971 N.am    1  UNL1       -0.2518
     27 C           4.3442   -1.3177   23.9465 C.2     1  UNL1        0.2516
     28 O           5.7934   -1.1490   24.2949 O.2     1  UNL1       -0.2697
     29 H           2.3411   -1.2300   24.7685 H       1  UNL1        0.1580
     30 C           3.9470   -1.6848   22.5474 C.ar    1  UNL1        0.0537
     31 C           4.5319   -2.9033   21.8969 C.ar    1  UNL1        0.0045
     32 C           4.1347   -3.2704   20.4978 C.ar    1  UNL1        0.0001
     33 C           3.1526   -2.4189   19.7491 C.ar    1  UNL1        0.0039
     34 C           2.5677   -1.2004   20.3996 C.ar    1  UNL1        0.0716
     35 C           2.9649   -0.8333   21.7987 C.ar    1  UNL1        0.0084
     36 C           1.5856   -0.3490   19.6509 C.3     1  UNL1        0.4186
     37 F           0.6034    0.5025   18.9023 F       1  UNL1       -0.1659
     38 F           2.6603    0.0345   18.6773 F       1  UNL1       -0.1659
     39 F           0.5109   -0.7325   20.6245 F       1  UNL1       -0.1659
@<TRIPOS>BOND
     1     1     2    1
     2     2     3   ar
     3     3     4   ar
     4     4     5   ar
     5     5     6   ar
     6     6     7   ar
     7     7     8   ar
     8     8    26    1
     9    26    27   am
    10    27    28    2
    11    27    30    1
    12    30    31   ar
    13    31    32   ar
    14    32    33   ar
    15    33    34   ar
    16    34    36    1
    17    36    37    1
    18    36    38    1
    19    36    39    1
    20    34    35   ar
    21     8     9   ar
    22    11     9    1
    23    11    12    1
    24    12    13    1
    25    13    14    1
    26    14    15    1
    27    15    16    1
    28    16    17   am
    29    17    18    2
    30    17    20    1
    31    20    21    2
    32    21    22    1
    33    22    23    1
    34    23    24    1
    35    23    25    1
    36    16    19    1
    37     9    10   ar
    38    10     2   ar
    39    10     6   ar
    40    35    30   ar
    41    19    11    1
    42    26    29    1
@<TRIPOS>MOLECULE
*****
 39 42 0 0 0
SMALL
GASTEIGER

@<TRIPOS>ATOM
      1 C           3.5602    2.8478   29.5284 C.3     1  UNL1        0.0326
      2 C           4.1160    1.4593   29.6426 C.ar    1  UNL1       -0.0045
      3 C           4.7783    1.0188   30.9144 C.ar    1  UNL1       -0.0027
      4 C           5.3341   -0.3698   31.0286 C.ar    1  UNL1        0.0013
      5 C           5.2277   -1.3178   29.8711 C.ar    1  UNL1        0.0206
      6 C           4.5654   -0.8773   28.5993 C.ar    1  UNL1        0.0996
      7 N           4.3151   -1.5850   27.3007 N.ar    1  UNL1       -0.2135
      8 C           3.6045   -0.6339   26.3839 C.ar    1  UNL1        0.2039
      9 N           3.4158    0.6616   27.1159 N.ar    1  UNL1       -0.2999
     10 C           4.0096    0.5112   28.4851 C.ar    1  UNL1        0.0758
     11 C           2.7500    1.8917   26.5739 C.3     1  UNL1        0.1078
     12 C           3.6422    2.8401   25.8291 C.3     1  UNL1        0.0245
     13 C           3.2849    4.1416   25.1748 C.3     1  UNL1        0.0037
     14 C           1.9471    4.8164   25.1036 C.3     1  UNL1        0.0216
     15 C           0.6363    4.3562   25.6692 C.3     1  UNL1        0.0938
     16 N           0.3394    3.1076   26.4456 N.am    1  UNL1       -0.2742
     17 C          -1.0867    2.9325   26.8764 C.2     1  UNL1        0.2489
     18 O          -1.4903    1.7178   27.6585 O.2     1  UNL1       -0.2699
     19 C           1.2802    2.0108   26.8482 C.3     1  UNL1        0.1162
     20 C          -2.1092    3.9723   26.5252 C.2     1  UNL1        0.0548
     21 C          -3.5707    3.6616   26.6572 C.2     1  UNL1       -0.0041
     22 C          -4.5933    4.7013   26.3060 C.3     1  UNL1        0.0991
     23 N          -5.1318    4.7816   24.9084 N.3     1  UNL1       -0.2665
     24 C          -5.7561    6.0539   24.4170 C.3     1  UNL1        0.0899
     25 C          -5.0460    3.5895   24.0020 C.3     1  UNL1        0.0899
     26 N           3.1607   -0.9270   24.9813 N.am    1  UNL1       -0.2518
     27 C           4.1780   -1.2178   23.9181 C.2     1  UNL1        0.2516
     28 O           5.6392   -1.2156   24.2574 O.2     1  UNL1       -0.2697
     29 H           2.2018   -0.9284   24.7586 H       1  UNL1        0.1580
     30 C           3.7342   -1.5108   22.5155 C.ar    1  UNL1        0.0537
     31 C           2.7278   -0.6224   21.8463 C.ar    1  UNL1        0.0045
     32 C           2.2840   -0.9154   20.4437 C.ar    1  UNL1        0.0001
     33 C           2.8466   -2.0968   19.7104 C.ar    1  UNL1        0.0039
     34 C           3.8530   -2.9852   20.3797 C.ar    1  UNL1        0.0716
     35 C           4.2968   -2.6922   21.7822 C.ar    1  UNL1        0.0084
     36 C           4.4156   -4.1666   19.6464 C.3     1  UNL1        0.4186
     37 F           4.9781   -5.3480   18.9130 F       1  UNL1       -0.1659
     38 F           5.6759   -4.0675   20.4536 F       1  UNL1       -0.1659
     39 F           3.1552   -4.2657   18.8391 F       1  UNL1       -0.1659
@<TRIPOS>BOND
     1     1     2    1
     2     2     3   ar
     3     3     4   ar
     4     4     5   ar
     5     5     6   ar
     6     6     7   ar
     7     7     8   ar
     8     8    26    1
     9    26    27   am
    10    27    28    2
    11    27    30    1
    12    30    31   ar
    13    31    32   ar
    14    32    33   ar
    15    33    34   ar
    16    34    36    1
    17    36    37    1
    18    36    38    1
    19    36    39    1
    20    34    35   ar
    21     8     9   ar
    22    11     9    1
    23    11    12    1
    24    12    13    1
    25    13    14    1
    26    14    15    1
    27    15    16    1
    28    16    17   am
    29    17    18    2
    30    17    20    1
    31    20    21    2
    32    21    22    1
    33    22    23    1
    34    23    24    1
    35    23    25    1
    36    16    19    1
    37     9    10   ar
    38    10     2   ar
    39    10     6   ar
    40    35    30   ar
    41    19    11    1
    42    26    29    1
