@<TRIPOS>MOLECULE
*****
 27 30 0 0 0
SMALL
GASTEIGER

@<TRIPOS>ATOM
      1 C         -10.5649  -18.2795   23.8636 C.ar    1  UNL1       -0.0209
      2 C          -9.8360  -19.0539   22.8058 C.ar    1  UNL1       -0.0041
      3 C          -8.3920  -18.7620   22.5237 C.ar    1  UNL1        0.0048
      4 C          -7.6768  -17.6957   23.2993 C.ar    1  UNL1        0.0623
      5 C          -8.4058  -16.9213   24.3571 C.ar    1  UNL1        0.0771
      6 C          -9.8498  -17.2132   24.6392 C.ar    1  UNL1        0.0125
      7 N          -7.6906  -15.8550   25.1328 N.am    1  UNL1       -0.1721
      8 C          -6.2466  -15.5631   24.8506 C.2     1  UNL1        0.3160
      9 O          -5.5315  -14.4969   25.6262 O.2     1  UNL1       -0.2638
     10 C          -5.5177  -16.3376   23.7928 C.2     1  UNL1        0.2907
     11 N          -4.1036  -16.2730   23.2967 N.2     1  UNL1       -0.0256
     12 C          -3.9447  -17.2994   22.2145 C.2     1  UNL1        0.3765
     13 N          -5.2607  -17.9983   22.0417 N.2     1  UNL1       -0.0302
     14 C          -6.2328  -17.4039   23.0171 C.2     1  UNL1        0.2419
     15 C          -2.6901  -17.5780   21.4408 C.ar    1  UNL1        0.0989
     16 C          -1.7106  -16.4731   21.1772 C.ar    1  UNL1        0.0085
     17 C          -0.4561  -16.7517   20.4036 C.ar    1  UNL1        0.0003
     18 C          -0.1811  -18.1353   19.8936 C.ar    1  UNL1        0.0009
     19 C          -1.1606  -19.2402   20.1573 C.ar    1  UNL1        0.0116
     20 C          -2.4151  -18.9616   20.9309 C.ar    1  UNL1        0.0651
     21 CL         -3.3947  -20.0666   21.1945 Cl      1  UNL1       -0.0820
     22 C         -12.0089  -18.5713   24.1458 C.3     1  UNL1        0.0264
     23 C         -13.0822  -17.8557   23.3804 C.3     1  UNL1        0.0047
     24 C         -12.9976  -17.7551   21.8861 C.3     1  UNL1        0.0003
     25 C         -12.4369  -16.5186   21.2483 C.3     1  UNL1        0.0000
     26 C         -10.9530  -17.9860   19.7008 C.3     1  UNL1        0.0000
     27 C         -11.3801  -16.6339   20.1900 C.3     1  UNL1        0.0000
@<TRIPOS>BOND
     1    26    27    1
     2    27    25    1
     3    25    24    1
     4    24    23    1
     5    23    22    1
     6    22     1    1
     7     1     2   ar
     8     2     3   ar
     9     3     4   ar
    10     4     5   ar
    11     5     6   ar
    12     5     7    2
    13     7     8    1
    14     8     9    2
    15     8    10    1
    16    10    11    2
    17    11    12    1
    18    12    15    1
    19    15    16   ar
    20    16    17   ar
    21    17    18   ar
    22    18    19   ar
    23    19    20   ar
    24    20    21    1
    25    12    13    2
    26    13    14    1
    27     6     1   ar
    28    14    10    1
    29    14     4    2
    30    20    15   ar
@<TRIPOS>MOLECULE
*****
 27 30 0 0 0
SMALL
GASTEIGER

@<TRIPOS>ATOM
      1 C         -11.2288  -18.7803   23.7541 C.ar    1  UNL1       -0.0209
      2 C          -9.9352  -18.2678   24.3142 C.ar    1  UNL1       -0.0041
      3 C          -8.6807  -18.3443   23.4953 C.ar    1  UNL1        0.0048
      4 C          -8.7199  -18.9333   22.1164 C.ar    1  UNL1        0.0623
      5 C         -10.0136  -19.4458   21.5563 C.ar    1  UNL1        0.0771
      6 C         -11.2681  -19.3693   22.3752 C.ar    1  UNL1        0.0125
      7 N         -10.0529  -20.0349   20.1773 N.am    1  UNL1       -0.1721
      8 C          -8.7984  -20.1114   19.3585 C.2     1  UNL1        0.3160
      9 O          -8.8377  -20.7004   17.9796 O.2     1  UNL1       -0.2638
     10 C          -7.5047  -19.5989   19.9186 C.2     1  UNL1        0.2907
     11 N          -6.1177  -19.5415   19.3504 N.2     1  UNL1       -0.0256
     12 C          -5.2213  -18.9170   20.3782 C.2     1  UNL1        0.3765
     13 N          -6.0542  -18.5884   21.5816 N.2     1  UNL1       -0.0302
     14 C          -7.4655  -19.0099   21.2976 C.2     1  UNL1        0.2419
     15 C          -3.7500  -18.6653   20.2288 C.ar    1  UNL1        0.0989
     16 C          -3.2198  -18.0405   18.9724 C.ar    1  UNL1        0.0085
     17 C          -1.7487  -17.7888   18.8231 C.ar    1  UNL1        0.0003
     18 C          -0.8078  -18.1619   19.9300 C.ar    1  UNL1        0.0009
     19 C          -1.3380  -18.7867   21.1864 C.ar    1  UNL1        0.0116
     20 C          -2.8091  -19.0384   21.3358 C.ar    1  UNL1        0.0651
     21 CL         -3.3394  -19.6633   22.5922 Cl      1  UNL1       -0.0820
     22 C         -12.4833  -18.7038   24.5729 C.3     1  UNL1        0.0264
     23 C         -13.6265  -17.8472   24.1155 C.3     1  UNL1        0.0047
     24 C         -13.5210  -17.0787   22.8316 C.3     1  UNL1        0.0003
     25 C         -12.5806  -15.9144   22.7295 C.3     1  UNL1        0.0000
     26 C         -11.8092  -16.3193   20.2819 C.3     1  UNL1        0.0000
     27 C         -11.4973  -15.9141   21.6920 C.3     1  UNL1        0.0000
@<TRIPOS>BOND
     1    26    27    1
     2    27    25    1
     3    25    24    1
     4    24    23    1
     5    23    22    1
     6    22     1    1
     7     1     2   ar
     8     2     3   ar
     9     3     4   ar
    10     4     5   ar
    11     5     6   ar
    12     5     7    2
    13     7     8    1
    14     8     9    2
    15     8    10    1
    16    10    11    2
    17    11    12    1
    18    12    15    1
    19    15    16   ar
    20    16    17   ar
    21    17    18   ar
    22    18    19   ar
    23    19    20   ar
    24    20    21    1
    25    12    13    2
    26    13    14    1
    27     6     1   ar
    28    14    10    1
    29    14     4    2
    30    20    15   ar
@<TRIPOS>MOLECULE
*****
 27 30 0 0 0
SMALL
GASTEIGER

@<TRIPOS>ATOM
      1 C           3.3211   -0.8703   19.1878 C.ar    1  UNL1       -0.0209
      2 C           2.1077   -1.2841   19.9664 C.ar    1  UNL1       -0.0041
      3 C           1.0000   -0.3017   20.2072 C.ar    1  UNL1        0.0048
      4 C           1.1057    1.0945   19.6693 C.ar    1  UNL1        0.0623
      5 C           2.3191    1.5083   18.8907 C.ar    1  UNL1        0.0771
      6 C           3.4268    0.5260   18.6499 C.ar    1  UNL1        0.0125
      7 N           2.4249    2.9046   18.3528 N.am    1  UNL1       -0.1721
      8 C           1.3172    3.8870   18.5936 C.2     1  UNL1        0.3160
      9 O           1.4229    5.2832   18.0557 O.2     1  UNL1       -0.2638
     10 C           0.1038    3.4731   19.3723 C.2     1  UNL1        0.2907
     11 N          -1.1380    4.2168   19.7658 N.2     1  UNL1       -0.0256
     12 C          -2.0113    3.2801   20.5469 C.2     1  UNL1        0.3765
     13 N          -1.3091    1.9576   20.6361 N.2     1  UNL1       -0.0302
     14 C          -0.0020    2.0769   19.9101 C.2     1  UNL1        0.2419
     15 C          -3.3514    3.6084   21.1355 C.ar    1  UNL1        0.0989
     16 C          -3.5039    3.7496   22.6210 C.ar    1  UNL1        0.0085
     17 C          -4.8440    4.0778   23.2095 C.ar    1  UNL1        0.0003
     18 C          -6.0316    4.2649   22.3125 C.ar    1  UNL1        0.0009
     19 C          -5.8791    4.1236   20.8270 C.ar    1  UNL1        0.0116
     20 C          -4.5390    3.7954   20.2385 C.ar    1  UNL1        0.0651
     21 CL         -4.3865    3.6542   18.7529 Cl      1  UNL1       -0.0820
     22 C           4.4288   -1.8526   18.9470 C.3     1  UNL1        0.0264
     23 C           4.1276   -3.3204   18.8779 C.3     1  UNL1        0.0047
     24 C           4.4015   -4.1988   20.0626 C.3     1  UNL1        0.0003
     25 C           5.1964   -3.6708   21.2200 C.3     1  UNL1        0.0000
     26 C           4.0832   -2.0209   22.8899 C.3     1  UNL1        0.0000
     27 C           4.5236   -3.4102   22.5351 C.3     1  UNL1        0.0000
@<TRIPOS>BOND
     1    26    27    1
     2    27    25    1
     3    25    24    1
     4    24    23    1
     5    23    22    1
     6    22     1    1
     7     1     2   ar
     8     2     3   ar
     9     3     4   ar
    10     4     5   ar
    11     5     6   ar
    12     5     7    2
    13     7     8    1
    14     8     9    2
    15     8    10    1
    16    10    11    2
    17    11    12    1
    18    12    15    1
    19    15    16   ar
    20    16    17   ar
    21    17    18   ar
    22    18    19   ar
    23    19    20   ar
    24    20    21    1
    25    12    13    2
    26    13    14    1
    27     6     1   ar
    28    14    10    1
    29    14     4    2
    30    20    15   ar
@<TRIPOS>MOLECULE
*****
 27 30 0 0 0
SMALL
GASTEIGER

@<TRIPOS>ATOM
      1 C           2.7344    0.1337   18.9224 C.ar    1  UNL1       -0.0209
      2 C           1.6387   -0.4064   19.7928 C.ar    1  UNL1       -0.0041
      3 C           0.4774    0.4669   20.1653 C.ar    1  UNL1        0.0048
      4 C           0.4119    1.8803   19.6674 C.ar    1  UNL1        0.0623
      5 C           1.5076    2.4204   18.7970 C.ar    1  UNL1        0.0771
      6 C           2.6689    1.5471   18.4245 C.ar    1  UNL1        0.0125
      7 N           1.4421    3.8339   18.2990 N.am    1  UNL1       -0.1721
      8 C           0.2809    4.7072   18.6715 C.2     1  UNL1        0.3160
      9 O           0.2153    6.1206   18.1736 O.2     1  UNL1       -0.2638
     10 C          -0.8149    4.1671   19.5420 C.2     1  UNL1        0.2907
     11 N          -2.0744    4.7869   20.0706 N.2     1  UNL1       -0.0256
     12 C          -2.7873    3.7565   20.8952 C.2     1  UNL1        0.3765
     13 N          -1.9684    2.4999   20.8762 N.2     1  UNL1       -0.0302
     14 C          -0.7494    2.7537   20.0399 C.2     1  UNL1        0.2419
     15 C          -4.0905    3.9489   21.6128 C.ar    1  UNL1        0.0989
     16 C          -5.3356    4.2596   20.8362 C.ar    1  UNL1        0.0085
     17 C          -6.6386    4.4520   21.5539 C.ar    1  UNL1        0.0003
     18 C          -6.6965    4.3337   23.0481 C.ar    1  UNL1        0.0009
     19 C          -5.4514    4.0231   23.8247 C.ar    1  UNL1        0.0116
     20 C          -4.1484    3.8307   23.1070 C.ar    1  UNL1        0.0651
     21 CL         -2.9032    3.5200   23.8836 Cl      1  UNL1       -0.0820
     22 C           3.8957   -0.7397   18.5499 C.3     1  UNL1        0.0264
     23 C           4.9707   -1.0273   19.5556 C.3     1  UNL1        0.0047
     24 C           5.1436   -2.4175   20.0918 C.3     1  UNL1        0.0003
     25 C           3.9428   -3.2851   20.3277 C.3     1  UNL1        0.0000
     26 C           4.5890   -5.2303   18.7313 C.3     1  UNL1        0.0000
     27 C           3.5508   -4.3158   19.3109 C.3     1  UNL1        0.0000
@<TRIPOS>BOND
     1    26    27    1
     2    27    25    1
     3    25    24    1
     4    24    23    1
     5    23    22    1
     6    22     1    1
     7     1     2   ar
     8     2     3   ar
     9     3     4   ar
    10     4     5   ar
    11     5     6   ar
    12     5     7    2
    13     7     8    1
    14     8     9    2
    15     8    10    1
    16    10    11    2
    17    11    12    1
    18    12    15    1
    19    15    16   ar
    20    16    17   ar
    21    17    18   ar
    22    18    19   ar
    23    19    20   ar
    24    20    21    1
    25    12    13    2
    26    13    14    1
    27     6     1   ar
    28    14    10    1
    29    14     4    2
    30    20    15   ar
@<TRIPOS>MOLECULE
*****
 27 30 0 0 0
SMALL
GASTEIGER

@<TRIPOS>ATOM
      1 C           3.3633   -1.4276   21.9495 C.ar    1  UNL1       -0.0209
      2 C           4.3686   -2.5118   22.2021 C.ar    1  UNL1       -0.0041
      3 C           4.9146   -2.7214   23.5834 C.ar    1  UNL1        0.0048
      4 C           4.4552   -1.8469   24.7121 C.ar    1  UNL1        0.0623
      5 C           3.4498   -0.7628   24.4596 C.ar    1  UNL1        0.0771
      6 C           2.9038   -0.5532   23.0783 C.ar    1  UNL1        0.0125
      7 N           2.9903    0.1117   25.5884 N.am    1  UNL1       -0.1721
      8 C           3.5363   -0.0979   26.9697 C.2     1  UNL1        0.3160
      9 O           3.0769    0.7765   28.0985 O.2     1  UNL1       -0.2638
     10 C           4.5418   -1.1821   27.2222 C.2     1  UNL1        0.2907
     11 N           5.2516   -1.6223   28.4681 N.2     1  UNL1       -0.0256
     12 C           6.1498   -2.7688   28.1093 C.2     1  UNL1        0.3765
     13 N           5.9950   -3.0373   26.6417 N.2     1  UNL1       -0.0302
     14 C           5.0012   -2.0566   26.0934 C.2     1  UNL1        0.2419
     15 C           7.0455   -3.5158   29.0527 C.ar    1  UNL1        0.0989
     16 C           6.6912   -4.9100   29.4777 C.ar    1  UNL1        0.0085
     17 C           7.5869   -5.6569   30.4210 C.ar    1  UNL1        0.0003
     18 C           8.8369   -5.0096   30.9392 C.ar    1  UNL1        0.0009
     19 C           9.1912   -3.6155   30.5142 C.ar    1  UNL1        0.0116
     20 C           8.2955   -2.8686   29.5709 C.ar    1  UNL1        0.0651
     21 CL          8.6497   -1.4743   29.1458 Cl      1  UNL1       -0.0820
     22 C           2.8173   -1.2180   20.5683 C.3     1  UNL1        0.0264
     23 C           3.7541   -1.0234   19.4131 C.3     1  UNL1        0.0047
     24 C           3.9360   -2.1168   18.4025 C.3     1  UNL1        0.0003
     25 C           5.0330   -3.1248   18.5774 C.3     1  UNL1        0.0000
     26 C           3.4075   -4.9213   19.5157 C.3     1  UNL1        0.0000
     27 C           4.6956   -4.5634   18.8354 C.3     1  UNL1        0.0000
@<TRIPOS>BOND
     1    26    27    1
     2    27    25    1
     3    25    24    1
     4    24    23    1
     5    23    22    1
     6    22     1    1
     7     1     2   ar
     8     2     3   ar
     9     3     4   ar
    10     4     5   ar
    11     5     6   ar
    12     5     7    2
    13     7     8    1
    14     8     9    2
    15     8    10    1
    16    10    11    2
    17    11    12    1
    18    12    15    1
    19    15    16   ar
    20    16    17   ar
    21    17    18   ar
    22    18    19   ar
    23    19    20   ar
    24    20    21    1
    25    12    13    2
    26    13    14    1
    27     6     1   ar
    28    14    10    1
    29    14     4    2
    30    20    15   ar
@<TRIPOS>MOLECULE
*****
 27 30 0 0 0
SMALL
GASTEIGER

@<TRIPOS>ATOM
      1 C           3.2450   -1.1219   21.7044 C.ar    1  UNL1       -0.0209
      2 C           2.2780   -1.2133   20.5613 C.ar    1  UNL1       -0.0041
      3 C           1.1468   -0.2340   20.4558 C.ar    1  UNL1        0.0048
      4 C           0.9825    0.8368   21.4933 C.ar    1  UNL1        0.0623
      5 C           1.9494    0.9281   22.6364 C.ar    1  UNL1        0.0771
      6 C           3.0807   -0.0512   22.7419 C.ar    1  UNL1        0.0125
      7 N           1.7852    1.9989   23.6740 N.am    1  UNL1       -0.1721
      8 C           0.6539    2.9783   23.5684 C.2     1  UNL1        0.3160
      9 O           0.4896    4.0490   24.6060 O.2     1  UNL1       -0.2638
     10 C          -0.3131    2.8869   22.4253 C.2     1  UNL1        0.2907
     11 N          -1.5159    3.7053   22.0604 N.2     1  UNL1       -0.0256
     12 C          -2.0951    3.1404   20.7973 C.2     1  UNL1        0.3765
     13 N          -1.2501    1.9728   20.3816 N.2     1  UNL1       -0.0302
     14 C          -0.1488    1.8161   21.3878 C.2     1  UNL1        0.2419
     15 C          -3.3065    3.6531   20.0764 C.ar    1  UNL1        0.0989
     16 C          -3.1607    4.3011   18.7315 C.ar    1  UNL1        0.0085
     17 C          -4.3721    4.8137   18.0107 C.ar    1  UNL1        0.0003
     18 C          -5.7294    4.6784   18.6348 C.ar    1  UNL1        0.0009
     19 C          -5.8752    4.0305   19.9797 C.ar    1  UNL1        0.0116
     20 C          -4.6638    3.5178   20.7005 C.ar    1  UNL1        0.0651
     21 CL         -4.8096    2.8698   22.0455 Cl      1  UNL1       -0.0820
     22 C           4.3762   -2.1013   21.8099 C.3     1  UNL1        0.0264
     23 C           5.5986   -1.9299   20.9577 C.3     1  UNL1        0.0047
     24 C           5.9409   -2.9591   19.9216 C.3     1  UNL1        0.0003
     25 C           4.9907   -3.2325   18.7935 C.3     1  UNL1        0.0000
     26 C           3.6226   -5.1888   19.8188 C.3     1  UNL1        0.0000
     27 C           4.3565   -4.5851   18.6583 C.3     1  UNL1        0.0000
@<TRIPOS>BOND
     1    26    27    1
     2    27    25    1
     3    25    24    1
     4    24    23    1
     5    23    22    1
     6    22     1    1
     7     1     2   ar
     8     2     3   ar
     9     3     4   ar
    10     4     5   ar
    11     5     6   ar
    12     5     7    2
    13     7     8    1
    14     8     9    2
    15     8    10    1
    16    10    11    2
    17    11    12    1
    18    12    15    1
    19    15    16   ar
    20    16    17   ar
    21    17    18   ar
    22    18    19   ar
    23    19    20   ar
    24    20    21    1
    25    12    13    2
    26    13    14    1
    27     6     1   ar
    28    14    10    1
    29    14     4    2
    30    20    15   ar
@<TRIPOS>MOLECULE
*****
 27 30 0 0 0
SMALL
GASTEIGER

@<TRIPOS>ATOM
      1 C          -0.6895    3.0436   24.7106 C.ar    1  UNL1       -0.0209
      2 C           0.1472    1.8714   25.1299 C.ar    1  UNL1       -0.0041
      3 C           0.8697    1.0580   24.0973 C.ar    1  UNL1        0.0048
      4 C           0.7556    1.4168   22.6454 C.ar    1  UNL1        0.0623
      5 C          -0.0811    2.5890   22.2260 C.ar    1  UNL1        0.0771
      6 C          -0.8036    3.4024   23.2586 C.ar    1  UNL1        0.0125
      7 N          -0.1952    2.9478   20.7740 N.am    1  UNL1       -0.1721
      8 C           0.5273    2.1344   19.7414 C.2     1  UNL1        0.3160
      9 O           0.4132    2.4932   18.2895 O.2     1  UNL1       -0.2638
     10 C           1.3640    0.9621   20.1608 C.2     1  UNL1        0.2907
     11 N           2.1848   -0.0173   19.3754 N.2     1  UNL1       -0.0256
     12 C           2.8063   -0.9814   20.3420 C.2     1  UNL1        0.3765
     13 N           2.3695   -0.5979   21.7247 N.2     1  UNL1       -0.0302
     14 C           1.4781    0.6033   21.6128 C.2     1  UNL1        0.2419
     15 C           3.7065   -2.1279   19.9879 C.ar    1  UNL1        0.0989
     16 C           3.1358   -3.3612   19.3529 C.ar    1  UNL1        0.0085
     17 C           4.0360   -4.5076   18.9989 C.ar    1  UNL1        0.0003
     18 C           5.5069   -4.4206   19.2798 C.ar    1  UNL1        0.0009
     19 C           6.0776   -3.1873   19.9147 C.ar    1  UNL1        0.0116
     20 C           5.1774   -2.0409   20.2687 C.ar    1  UNL1        0.0651
     21 CL          5.7481   -0.8075   20.9037 Cl      1  UNL1       -0.0820
     22 C          -1.4120    3.8571   25.7432 C.3     1  UNL1        0.0264
     23 C          -2.6637    3.3252   26.3759 C.3     1  UNL1        0.0047
     24 C          -3.7502    4.2692   26.7981 C.3     1  UNL1        0.0003
     25 C          -4.8570    4.6130   25.8457 C.3     1  UNL1        0.0000
     26 C          -4.7707    3.5490   23.4771 C.3     1  UNL1        0.0000
     27 C          -5.3447    3.5908   24.8622 C.3     1  UNL1        0.0000
@<TRIPOS>BOND
     1    26    27    1
     2    27    25    1
     3    25    24    1
     4    24    23    1
     5    23    22    1
     6    22     1    1
     7     1     2   ar
     8     2     3   ar
     9     3     4   ar
    10     4     5   ar
    11     5     6   ar
    12     5     7    2
    13     7     8    1
    14     8     9    2
    15     8    10    1
    16    10    11    2
    17    11    12    1
    18    12    15    1
    19    15    16   ar
    20    16    17   ar
    21    17    18   ar
    22    18    19   ar
    23    19    20   ar
    24    20    21    1
    25    12    13    2
    26    13    14    1
    27     6     1   ar
    28    14    10    1
    29    14     4    2
    30    20    15   ar
@<TRIPOS>MOLECULE
*****
 27 30 0 0 0
SMALL
GASTEIGER

@<TRIPOS>ATOM
      1 C           3.4297   -2.2441   20.0420 C.ar    1  UNL1       -0.0209
      2 C           4.0468   -2.2555   21.4091 C.ar    1  UNL1       -0.0041
      3 C           3.5382   -1.3243   22.4693 C.ar    1  UNL1        0.0048
      4 C           2.4125   -0.3816   22.1625 C.ar    1  UNL1        0.0623
      5 C           1.7954   -0.3702   20.7954 C.ar    1  UNL1        0.0771
      6 C           2.3040   -1.3015   19.7352 C.ar    1  UNL1        0.0125
      7 N           0.6696    0.5724   20.4885 N.am    1  UNL1       -0.1721
      8 C           0.1610    1.5037   21.5487 C.2     1  UNL1        0.3160
      9 O          -0.9647    2.4463   21.2419 O.2     1  UNL1       -0.2638
     10 C           0.7782    1.4923   22.9159 C.2     1  UNL1        0.2907
     11 N           0.4899    2.2887   24.1538 N.2     1  UNL1       -0.0256
     12 C           1.4375    1.8382   25.2259 C.2     1  UNL1        0.3765
     13 N           2.3114    0.7634   24.6504 N.2     1  UNL1       -0.0302
     14 C           1.9039    0.5496   23.2227 C.2     1  UNL1        0.2419
     15 C           1.5001    2.3693   26.6273 C.ar    1  UNL1        0.0989
     16 C           2.5765    3.3398   27.0142 C.ar    1  UNL1        0.0085
     17 C           2.6391    3.8708   28.4156 C.ar    1  UNL1        0.0003
     18 C           1.6254    3.4314   29.4302 C.ar    1  UNL1        0.0009
     19 C           0.5490    2.4610   29.0433 C.ar    1  UNL1        0.0116
     20 C           0.4864    1.9299   27.6419 C.ar    1  UNL1        0.0651
     21 CL         -0.5899    0.9594   27.2550 Cl      1  UNL1       -0.0820
     22 C           3.9383   -3.1754   18.9818 C.3     1  UNL1        0.0264
     23 C           5.3901   -3.1619   18.6053 C.3     1  UNL1        0.0047
     24 C           5.9743   -1.9664   17.9128 C.3     1  UNL1        0.0003
     25 C           6.6313   -0.8820   18.7145 C.3     1  UNL1        0.0000
     26 C           4.8305    0.9429   18.2937 C.3     1  UNL1        0.0000
     27 C           5.8232    0.2830   19.2042 C.3     1  UNL1        0.0000
@<TRIPOS>BOND
     1    26    27    1
     2    27    25    1
     3    25    24    1
     4    24    23    1
     5    23    22    1
     6    22     1    1
     7     1     2   ar
     8     2     3   ar
     9     3     4   ar
    10     4     5   ar
    11     5     6   ar
    12     5     7    2
    13     7     8    1
    14     8     9    2
    15     8    10    1
    16    10    11    2
    17    11    12    1
    18    12    15    1
    19    15    16   ar
    20    16    17   ar
    21    17    18   ar
    22    18    19   ar
    23    19    20   ar
    24    20    21    1
    25    12    13    2
    26    13    14    1
    27     6     1   ar
    28    14    10    1
    29    14     4    2
    30    20    15   ar
@<TRIPOS>MOLECULE
*****
 27 30 0 0 0
SMALL
GASTEIGER

@<TRIPOS>ATOM
      1 C           1.9076   -0.5825   20.7121 C.ar    1  UNL1       -0.0209
      2 C           1.9935   -0.2080   22.1621 C.ar    1  UNL1       -0.0041
      3 C           3.0477   -0.8228   23.0343 C.ar    1  UNL1        0.0048
      4 C           4.0159   -1.8121   22.4566 C.ar    1  UNL1        0.0623
      5 C           3.9299   -2.1866   21.0067 C.ar    1  UNL1        0.0771
      6 C           2.8758   -1.5718   20.1345 C.ar    1  UNL1        0.0125
      7 N           4.8982   -3.1760   20.4289 N.am    1  UNL1       -0.1721
      8 C           5.9523   -3.7908   21.3012 C.2     1  UNL1        0.3160
      9 O           6.9205   -4.7801   20.7235 O.2     1  UNL1       -0.2638
     10 C           6.0382   -3.4162   22.7511 C.2     1  UNL1        0.2907
     11 N           6.9635   -3.8539   23.8476 N.2     1  UNL1       -0.0256
     12 C           6.5671   -3.1350   25.1031 C.2     1  UNL1        0.3765
     13 N           5.3969   -2.2531   24.7824 N.2     1  UNL1       -0.0302
     14 C           5.0700   -2.4269   23.3288 C.2     1  UNL1        0.2419
     15 C           7.2253   -3.2737   26.4438 C.ar    1  UNL1        0.0989
     16 C           7.8963   -2.0905   27.0760 C.ar    1  UNL1        0.0085
     17 C           8.5545   -2.2292   28.4166 C.ar    1  UNL1        0.0003
     18 C           8.5418   -3.5513   29.1252 C.ar    1  UNL1        0.0009
     19 C           7.8708   -4.7346   28.4930 C.ar    1  UNL1        0.0116
     20 C           7.2126   -4.5958   27.1524 C.ar    1  UNL1        0.0651
     21 CL          6.5416   -5.7791   26.5202 Cl      1  UNL1       -0.0820
     22 C           0.8534    0.0323   19.8399 C.3     1  UNL1        0.0264
     23 C           1.2380    0.6846   18.5451 C.3     1  UNL1        0.0047
     24 C           2.0212    1.9638   18.5533 C.3     1  UNL1        0.0003
     25 C           3.5053    1.9359   18.3365 C.3     1  UNL1        0.0000
     26 C           4.1412    2.4886   20.7942 C.3     1  UNL1        0.0000
     27 C           4.4312    1.7771   19.5060 C.3     1  UNL1        0.0000
@<TRIPOS>BOND
     1    26    27    1
     2    27    25    1
     3    25    24    1
     4    24    23    1
     5    23    22    1
     6    22     1    1
     7     1     2   ar
     8     2     3   ar
     9     3     4   ar
    10     4     5   ar
    11     5     6   ar
    12     5     7    2
    13     7     8    1
    14     8     9    2
    15     8    10    1
    16    10    11    2
    17    11    12    1
    18    12    15    1
    19    15    16   ar
    20    16    17   ar
    21    17    18   ar
    22    18    19   ar
    23    19    20   ar
    24    20    21    1
    25    12    13    2
    26    13    14    1
    27     6     1   ar
    28    14    10    1
    29    14     4    2
    30    20    15   ar
