@<TRIPOS>MOLECULE
*****
 20 22 0 0 0
SMALL
GASTEIGER

@<TRIPOS>ATOM
      1 C         -10.2770  -18.4816   21.1102 C.3     1  UNL1        0.0878
      2 C          -9.5603  -18.9240   19.8690 C.3     1  UNL1        0.0135
      3 C         -10.7274  -19.7136   20.3829 C.3     1  UNL1        0.0135
      4 C         -14.2487  -18.4154   25.6069 C.3     1  UNL1        0.0310
      5 C         -13.2558  -18.4319   24.4827 C.ar    1  UNL1       -0.0219
      6 C         -13.6014  -17.7992   23.1674 C.ar    1  UNL1       -0.0046
      7 C         -12.6085  -17.8157   22.0432 C.ar    1  UNL1       -0.0042
      8 C         -11.2699  -18.4650   22.2344 C.ar    1  UNL1       -0.0146
      9 C         -10.9243  -19.0977   23.5497 C.ar    1  UNL1       -0.0042
     10 C         -11.9172  -19.0812   24.6739 C.ar    1  UNL1       -0.0046
     11 C          -9.4816  -17.2552   21.4471 C.2     1  UNL1        0.2288
     12 O         -10.0171  -15.8965   21.1047 O.2     1  UNL1       -0.2745
     13 N          -8.1508  -17.3875   22.1262 N.am    1  UNL1       -0.2729
     14 C          -7.3554  -16.1611   22.4631 C.3     1  UNL1        0.1152
     15 C          -7.6152  -18.7462   22.4686 C.3     1  UNL1        0.1266
     16 C          -6.3492  -19.2360   21.8305 C.ar    1  UNL1        0.0273
     17 C          -6.2555  -20.1117   20.6162 C.ar    1  UNL1        0.0044
     18 C          -4.8030  -20.3531   20.3298 C.ar    1  UNL1        0.0072
     19 C          -3.9990  -19.6266   21.3670 C.ar    1  UNL1        0.0352
     20 S          -4.9546  -18.9362   22.2945 S.2     1  UNL1       -0.0891
@<TRIPOS>BOND
     1     4     5    1
     2     5     6   ar
     3     6     7   ar
     4     7     8   ar
     5     8     1    1
     6     1    11    1
     7    11    12    2
     8    11    13   am
     9    13    14    1
    10    13    15    1
    11    15    16    1
    12    16    17   ar
    13    17    18   ar
    14    18    19   ar
    15    19    20   ar
    16     1     2    1
    17     2     3    1
    18     8     9   ar
    19     9    10   ar
    20    10     5   ar
    21     3     1    1
    22    20    16   ar
@<TRIPOS>MOLECULE
*****
 20 22 0 0 0
SMALL
GASTEIGER

@<TRIPOS>ATOM
      1 C         -10.7257  -18.4884   20.9075 C.3     1  UNL1        0.0878
      2 C          -9.9441  -19.0160   19.7410 C.3     1  UNL1        0.0135
      3 C         -10.6383  -19.9670   20.6703 C.3     1  UNL1        0.0135
      4 C         -14.1430  -18.4242   25.8388 C.3     1  UNL1        0.0310
      5 C         -13.2886  -18.4403   24.6060 C.ar    1  UNL1       -0.0219
      6 C         -13.7967  -17.8300   23.3334 C.ar    1  UNL1       -0.0046
      7 C         -12.9424  -17.8461   22.1006 C.ar    1  UNL1       -0.0042
      8 C         -11.5800  -18.4724   22.1403 C.ar    1  UNL1       -0.0146
      9 C         -11.0719  -19.0826   23.4129 C.ar    1  UNL1       -0.0042
     10 C         -11.9263  -19.0666   24.6457 C.ar    1  UNL1       -0.0046
     11 C         -10.5164  -17.0155   20.7164 C.2     1  UNL1        0.2288
     12 O         -11.4210  -16.2415   19.8038 O.2     1  UNL1       -0.2745
     13 N          -9.4025  -16.3164   21.4379 N.am    1  UNL1       -0.2729
     14 C          -9.1932  -14.8433   21.2468 C.3     1  UNL1        0.1152
     15 C          -8.4979  -17.0902   22.3505 C.3     1  UNL1        0.1266
     16 C          -8.0832  -16.5055   23.6680 C.ar    1  UNL1        0.0273
     17 C          -8.9205  -16.4518   24.9115 C.ar    1  UNL1        0.0044
     18 C          -8.1132  -15.7849   25.9855 C.ar    1  UNL1        0.0072
     19 C          -6.7770  -15.4265   25.4059 C.ar    1  UNL1        0.0352
     20 S          -6.7584  -15.8718   23.9736 S.2     1  UNL1       -0.0891
@<TRIPOS>BOND
     1     4     5    1
     2     5     6   ar
     3     6     7   ar
     4     7     8   ar
     5     8     1    1
     6     1    11    1
     7    11    12    2
     8    11    13   am
     9    13    14    1
    10    13    15    1
    11    15    16    1
    12    16    17   ar
    13    17    18   ar
    14    18    19   ar
    15    19    20   ar
    16     1     2    1
    17     2     3    1
    18     8     9   ar
    19     9    10   ar
    20    10     5   ar
    21     3     1    1
    22    20    16   ar
@<TRIPOS>MOLECULE
*****
 20 22 0 0 0
SMALL
GASTEIGER

@<TRIPOS>ATOM
      1 C          -9.3244  -17.0644   22.3732 C.3     1  UNL1        0.0878
      2 C          -7.9510  -16.4797   22.2258 C.3     1  UNL1        0.0135
      3 C          -8.7163  -16.2844   23.5010 C.3     1  UNL1        0.0135
      4 C         -14.6112  -18.4919   24.8250 C.3     1  UNL1        0.0310
      5 C         -13.2895  -18.1351   24.2120 C.ar    1  UNL1       -0.0219
      6 C         -13.2000  -17.0088   23.2254 C.ar    1  UNL1       -0.0046
      7 C         -11.8783  -16.6519   22.6124 C.ar    1  UNL1       -0.0042
      8 C         -10.6461  -17.4213   22.9861 C.ar    1  UNL1       -0.0146
      9 C         -10.7356  -18.5475   23.9728 C.ar    1  UNL1       -0.0042
     10 C         -12.0573  -18.9044   24.5857 C.ar    1  UNL1       -0.0046
     11 C          -9.4734  -17.7204   21.0325 C.2     1  UNL1        0.2288
     12 O         -10.3850  -17.1224   20.0021 O.2     1  UNL1       -0.2745
     13 N          -8.7109  -18.9742   20.7221 N.am    1  UNL1       -0.2729
     14 C          -8.8599  -19.6302   19.3813 C.3     1  UNL1        0.1152
     15 C          -7.7994  -19.5722   21.7524 C.3     1  UNL1        0.1266
     16 C          -6.3358  -19.7244   21.4612 C.ar    1  UNL1        0.0273
     17 C          -5.7325  -20.6194   20.4196 C.ar    1  UNL1        0.0044
     18 C          -4.2424  -20.4565   20.4752 C.ar    1  UNL1        0.0072
     19 C          -3.9248  -19.4607   21.5510 C.ar    1  UNL1        0.0352
     20 S          -5.2185  -19.0082   22.1605 S.2     1  UNL1       -0.0891
@<TRIPOS>BOND
     1     4     5    1
     2     5     6   ar
     3     6     7   ar
     4     7     8   ar
     5     8     1    1
     6     1    11    1
     7    11    12    2
     8    11    13   am
     9    13    14    1
    10    13    15    1
    11    15    16    1
    12    16    17   ar
    13    17    18   ar
    14    18    19   ar
    15    19    20   ar
    16     1     2    1
    17     2     3    1
    18     8     9   ar
    19     9    10   ar
    20    10     5   ar
    21     3     1    1
    22    20    16   ar
@<TRIPOS>MOLECULE
*****
 20 22 0 0 0
SMALL
GASTEIGER

@<TRIPOS>ATOM
      1 C          -8.9398  -19.3537   22.3534 C.3     1  UNL1        0.0878
      2 C         -10.2174  -19.6438   23.0838 C.3     1  UNL1        0.0135
      3 C          -8.9722  -20.4107   23.4172 C.3     1  UNL1        0.0135
      4 C          -3.1794  -19.7041   20.7116 C.3     1  UNL1        0.0310
      5 C          -4.6195  -19.6165   21.1221 C.ar    1  UNL1       -0.0219
      6 C          -5.6386  -20.5087   20.4777 C.ar    1  UNL1       -0.0046
      7 C          -7.0787  -20.4211   20.8881 C.ar    1  UNL1       -0.0042
      8 C          -7.4997  -19.4413   21.9429 C.ar    1  UNL1       -0.0146
      9 C          -6.4806  -18.5491   22.5873 C.ar    1  UNL1       -0.0042
     10 C          -5.0405  -18.6367   22.1769 C.ar    1  UNL1       -0.0046
     11 C          -9.4076  -18.2664   21.4321 C.2     1  UNL1        0.2288
     12 O          -9.3707  -18.4742   19.9470 O.2     1  UNL1       -0.2745
     13 N          -9.9122  -16.9712   21.9958 N.am    1  UNL1       -0.2729
     14 C         -10.3800  -15.8838   21.0745 C.3     1  UNL1        0.1152
     15 C          -9.9491  -16.7633   23.4809 C.3     1  UNL1        0.1266
     16 C          -8.7584  -16.1863   24.1873 C.ar    1  UNL1        0.0273
     17 C          -8.4835  -16.2642   25.6598 C.ar    1  UNL1        0.0044
     18 C          -7.1886  -15.5560   25.9278 C.ar    1  UNL1        0.0072
     19 C          -6.6632  -15.0405   24.6209 C.ar    1  UNL1        0.0352
     20 S          -7.6332  -15.4300   23.5452 S.2     1  UNL1       -0.0891
@<TRIPOS>BOND
     1     4     5    1
     2     5     6   ar
     3     6     7   ar
     4     7     8   ar
     5     8     1    1
     6     1    11    1
     7    11    12    2
     8    11    13   am
     9    13    14    1
    10    13    15    1
    11    15    16    1
    12    16    17   ar
    13    17    18   ar
    14    18    19   ar
    15    19    20   ar
    16     1     2    1
    17     2     3    1
    18     8     9   ar
    19     9    10   ar
    20    10     5   ar
    21     3     1    1
    22    20    16   ar
@<TRIPOS>MOLECULE
*****
 20 22 0 0 0
SMALL
GASTEIGER

@<TRIPOS>ATOM
      1 C          -9.9950  -18.7727   23.6420 C.3     1  UNL1        0.0878
      2 C          -9.8816  -19.4730   24.9636 C.3     1  UNL1        0.0135
      3 C         -11.1698  -18.8107   24.5739 C.3     1  UNL1        0.0135
      4 C         -12.3664  -15.6471   19.1025 C.3     1  UNL1        0.0310
      5 C         -11.7735  -16.4285   20.2374 C.ar    1  UNL1       -0.0219
      6 C         -11.0996  -17.7421   19.9722 C.ar    1  UNL1       -0.0046
      7 C         -10.5068  -18.5235   21.1071 C.ar    1  UNL1       -0.0042
      8 C         -10.5878  -17.9913   22.5072 C.ar    1  UNL1       -0.0146
      9 C         -11.2618  -16.6778   22.7723 C.ar    1  UNL1       -0.0042
     10 C         -11.8546  -15.8964   21.6375 C.ar    1  UNL1       -0.0046
     11 C          -8.6143  -19.0062   23.1043 C.2     1  UNL1        0.2288
     12 O          -8.2154  -20.3719   22.6292 O.2     1  UNL1       -0.2745
     13 N          -7.6324  -17.8739   23.0417 N.am    1  UNL1       -0.2729
     14 C          -6.2516  -18.1074   22.5040 C.3     1  UNL1        0.1152
     15 C          -8.0312  -16.5082   23.5168 C.3     1  UNL1        0.1266
     16 C          -7.6593  -16.0562   24.8978 C.ar    1  UNL1        0.0273
     17 C          -8.5414  -16.1078   26.1099 C.ar    1  UNL1        0.0044
     18 C          -7.7672  -15.5567   27.2705 C.ar    1  UNL1        0.0072
     19 C          -6.4066  -15.1645   26.7757 C.ar    1  UNL1        0.0352
     20 S          -6.3398  -15.4732   25.3093 S.2     1  UNL1       -0.0891
@<TRIPOS>BOND
     1     4     5    1
     2     5     6   ar
     3     6     7   ar
     4     7     8   ar
     5     8     1    1
     6     1    11    1
     7    11    12    2
     8    11    13   am
     9    13    14    1
    10    13    15    1
    11    15    16    1
    12    16    17   ar
    13    17    18   ar
    14    18    19   ar
    15    19    20   ar
    16     1     2    1
    17     2     3    1
    18     8     9   ar
    19     9    10   ar
    20    10     5   ar
    21     3     1    1
    22    20    16   ar
@<TRIPOS>MOLECULE
*****
 20 22 0 0 0
SMALL
GASTEIGER

@<TRIPOS>ATOM
      1 C         -10.2311  -17.9195   24.0807 C.3     1  UNL1        0.0878
      2 C         -11.3024  -18.9681   24.1319 C.3     1  UNL1        0.0135
      3 C         -10.2381  -18.9311   25.1882 C.3     1  UNL1        0.0135
      4 C          -5.3692  -14.7475   25.5973 C.3     1  UNL1        0.0310
      5 C          -6.5847  -15.5405   25.2182 C.ar    1  UNL1       -0.0219
      6 C          -7.6591  -15.7976   26.2328 C.ar    1  UNL1       -0.0046
      7 C          -8.8745  -16.5906   25.8537 C.ar    1  UNL1       -0.0042
      8 C          -9.0157  -17.1265   24.4599 C.ar    1  UNL1       -0.0146
      9 C          -7.9413  -16.8694   23.4452 C.ar    1  UNL1       -0.0042
     10 C          -6.7259  -16.0764   23.8243 C.ar    1  UNL1       -0.0046
     11 C         -10.6464  -17.1833   22.8415 C.2     1  UNL1        0.2288
     12 O         -11.1663  -15.7798   22.9417 O.2     1  UNL1       -0.2745
     13 N         -10.5418  -17.8505   21.5022 N.am    1  UNL1       -0.2729
     14 C         -10.9570  -17.1143   20.2630 C.3     1  UNL1        0.1152
     15 C         -10.0219  -19.2539   21.4020 C.3     1  UNL1        0.1266
     16 C          -8.5475  -19.5007   21.2793 C.ar    1  UNL1        0.0273
     17 C          -7.6465  -20.0150   22.3627 C.ar    1  UNL1        0.0044
     18 C          -6.2573  -20.1086   21.8046 C.ar    1  UNL1        0.0072
     19 C          -6.2997  -19.6521   20.3765 C.ar    1  UNL1        0.0352
     20 S          -7.7151  -19.2764   20.0517 S.2     1  UNL1       -0.0891
@<TRIPOS>BOND
     1     4     5    1
     2     5     6   ar
     3     6     7   ar
     4     7     8   ar
     5     8     1    1
     6     1    11    1
     7    11    12    2
     8    11    13   am
     9    13    14    1
    10    13    15    1
    11    15    16    1
    12    16    17   ar
    13    17    18   ar
    14    18    19   ar
    15    19    20   ar
    16     1     2    1
    17     2     3    1
    18     8     9   ar
    19     9    10   ar
    20    10     5   ar
    21     3     1    1
    22    20    16   ar
@<TRIPOS>MOLECULE
*****
 20 22 0 0 0
SMALL
GASTEIGER

@<TRIPOS>ATOM
      1 C         -10.4463  -17.0744   23.4620 C.3     1  UNL1        0.0878
      2 C         -11.6783  -17.1325   22.6084 C.3     1  UNL1        0.0135
      3 C         -10.8291  -15.8961   22.6164 C.3     1  UNL1        0.0135
      4 C          -5.4469  -14.9487   26.0091 C.3     1  UNL1        0.0310
      5 C          -6.6967  -15.4801   25.3723 C.ar    1  UNL1       -0.0219
      6 C          -7.8148  -15.9948   26.2296 C.ar    1  UNL1       -0.0046
      7 C          -9.0646  -16.5263   25.5929 C.ar    1  UNL1       -0.0042
      8 C          -9.1964  -16.5430   24.0988 C.ar    1  UNL1       -0.0146
      9 C          -8.0784  -16.0283   23.2415 C.ar    1  UNL1       -0.0042
     10 C          -6.8285  -15.4969   23.8783 C.ar    1  UNL1       -0.0046
     11 C         -10.4975  -18.4373   24.0864 C.2     1  UNL1        0.2288
     12 O         -11.5504  -18.7560   25.1061 O.2     1  UNL1       -0.2745
     13 N          -9.4959  -19.4815   23.6910 N.am    1  UNL1       -0.2729
     14 C          -9.5472  -20.8445   24.3155 C.3     1  UNL1        0.1152
     15 C          -8.4430  -19.1630   22.6713 C.3     1  UNL1        0.1266
     16 C          -8.7203  -19.3814   21.2135 C.ar    1  UNL1        0.0273
     17 C         -10.0744  -19.5355   20.5869 C.ar    1  UNL1        0.0044
     18 C          -9.8831  -19.7334   19.1124 C.ar    1  UNL1        0.0072
     19 C          -8.4108  -19.7016   18.8276 C.ar    1  UNL1        0.0352
     20 S          -7.6921  -19.4840   20.1261 S.2     1  UNL1       -0.0891
@<TRIPOS>BOND
     1     4     5    1
     2     5     6   ar
     3     6     7   ar
     4     7     8   ar
     5     8     1    1
     6     1    11    1
     7    11    12    2
     8    11    13   am
     9    13    14    1
    10    13    15    1
    11    15    16    1
    12    16    17   ar
    13    17    18   ar
    14    18    19   ar
    15    19    20   ar
    16     1     2    1
    17     2     3    1
    18     8     9   ar
    19     9    10   ar
    20    10     5   ar
    21     3     1    1
    22    20    16   ar
@<TRIPOS>MOLECULE
*****
 20 22 0 0 0
SMALL
GASTEIGER

@<TRIPOS>ATOM
      1 C         -10.2279  -18.9817   23.7967 C.3     1  UNL1        0.0878
      2 C         -10.5544  -20.2562   23.0764 C.3     1  UNL1        0.0135
      3 C          -9.3127  -20.1644   23.9128 C.3     1  UNL1        0.0135
      4 C          -7.2971  -15.0524   27.2565 C.3     1  UNL1        0.0310
      5 C          -8.0298  -16.0347   26.3916 C.ar    1  UNL1       -0.0219
      6 C          -7.9167  -15.9494   24.8983 C.ar    1  UNL1       -0.0046
      7 C          -8.6494  -16.9318   24.0333 C.ar    1  UNL1       -0.0042
      8 C          -9.4952  -17.9994   24.6616 C.ar    1  UNL1       -0.0146
      9 C          -9.6083  -18.0846   26.1549 C.ar    1  UNL1       -0.0042
     10 C          -8.8756  -17.1023   27.0199 C.ar    1  UNL1       -0.0046
     11 C         -11.3977  -18.1402   23.3801 C.2     1  UNL1        0.2288
     12 O         -12.6875  -18.2192   24.1418 O.2     1  UNL1       -0.2745
     13 N         -11.2776  -17.2197   22.2018 N.am    1  UNL1       -0.2729
     14 C         -12.4474  -16.3781   21.7852 C.3     1  UNL1        0.1152
     15 C          -9.9878  -17.1407   21.4401 C.3     1  UNL1        0.1266
     16 C          -9.5669  -18.2782   20.5577 C.ar    1  UNL1        0.0273
     17 C         -10.4498  -19.0283   19.6048 C.ar    1  UNL1        0.0044
     18 C          -9.6178  -20.0792   18.9314 C.ar    1  UNL1        0.0072
     19 C          -8.2207  -19.9786   19.4681 C.ar    1  UNL1        0.0352
     20 S          -8.1893  -18.8656   20.4732 S.2     1  UNL1       -0.0891
@<TRIPOS>BOND
     1     4     5    1
     2     5     6   ar
     3     6     7   ar
     4     7     8   ar
     5     8     1    1
     6     1    11    1
     7    11    12    2
     8    11    13   am
     9    13    14    1
    10    13    15    1
    11    15    16    1
    12    16    17   ar
    13    17    18   ar
    14    18    19   ar
    15    19    20   ar
    16     1     2    1
    17     2     3    1
    18     8     9   ar
    19     9    10   ar
    20    10     5   ar
    21     3     1    1
    22    20    16   ar
@<TRIPOS>MOLECULE
*****
 20 22 0 0 0
SMALL
GASTEIGER

@<TRIPOS>ATOM
      1 C         -10.0781  -17.0688   23.6432 C.3     1  UNL1        0.0878
      2 C         -11.3738  -17.1750   22.8951 C.3     1  UNL1        0.0135
      3 C         -10.6963  -15.8443   23.0363 C.3     1  UNL1        0.0135
      4 C          -5.1605  -14.6514   26.0874 C.3     1  UNL1        0.0310
      5 C          -6.3899  -15.2558   25.4763 C.ar    1  UNL1       -0.0219
      6 C          -6.5098  -15.3657   23.9852 C.ar    1  UNL1       -0.0046
      7 C          -7.7392  -15.9701   23.3741 C.ar    1  UNL1       -0.0042
      8 C          -8.8487  -16.4645   24.2542 C.ar    1  UNL1       -0.0146
      9 C          -8.7288  -16.3545   25.7453 C.ar    1  UNL1       -0.0042
     10 C          -7.4994  -15.7501   26.3564 C.ar    1  UNL1       -0.0046
     11 C          -9.8869  -18.5033   24.0378 C.2     1  UNL1        0.2288
     12 O         -10.5241  -19.0279   25.2903 O.2     1  UNL1       -0.2745
     13 N          -9.0584  -19.4131   23.1800 N.am    1  UNL1       -0.2729
     14 C          -8.8672  -20.8477   23.5746 C.3     1  UNL1        0.1152
     15 C          -8.4212  -18.8885   21.9275 C.3     1  UNL1        0.1266
     16 C          -7.0110  -19.2698   21.5871 C.ar    1  UNL1        0.0273
     17 C          -5.7780  -18.8351   22.3226 C.ar    1  UNL1        0.0044
     18 C          -4.5912  -19.4494   21.6414 C.ar    1  UNL1        0.0072
     19 C          -5.0905  -20.2637   20.4849 C.ar    1  UNL1        0.0352
     20 S          -6.5860  -20.1527   20.4513 S.2     1  UNL1       -0.0891
@<TRIPOS>BOND
     1     4     5    1
     2     5     6   ar
     3     6     7   ar
     4     7     8   ar
     5     8     1    1
     6     1    11    1
     7    11    12    2
     8    11    13   am
     9    13    14    1
    10    13    15    1
    11    15    16    1
    12    16    17   ar
    13    17    18   ar
    14    18    19   ar
    15    19    20   ar
    16     1     2    1
    17     2     3    1
    18     8     9   ar
    19     9    10   ar
    20    10     5   ar
    21     3     1    1
    22    20    16   ar
