@<TRIPOS>MOLECULE
*****
 30 33 0 0 0
SMALL
GASTEIGER

@<TRIPOS>ATOM
      1 C          -3.8360  -19.7660   19.9201 C.3     1  UNL1        0.0646
      2 C          -4.9454  -20.7601   20.0952 C.3     1  UNL1        0.0759
      3 C          -9.0225  -19.3748   21.4022 C.3     1  UNL1        0.0087
      4 C          -8.7384  -19.6020   19.9470 C.3     1  UNL1        0.0178
      5 C          -7.3794  -20.0638   19.5113 C.3     1  UNL1        0.0721
      6 N          -6.3045  -20.2983   20.5309 N.3     1  UNL1       -0.2726
      7 C          -6.5886  -20.0712   21.9861 C.3     1  UNL1        0.0721
      8 C          -7.9476  -19.6094   22.4217 C.3     1  UNL1        0.0178
      9 C         -10.3816  -18.9130   21.8379 C.3     1  UNL1        0.0475
     10 C         -11.4560  -15.8797   19.6677 C.ar    1  UNL1        0.1747
     11 N         -10.4076  -16.8335   20.1586 N.ar    1  UNL1       -0.2285
     12 C         -11.0611  -17.7906   21.1109 C.ar    1  UNL1        0.0776
     13 C         -12.5134  -17.4283   21.2085 C.ar    1  UNL1        0.0885
     14 N         -12.7575  -16.2473   20.3166 N.ar    1  UNL1       -0.3340
     15 H         -13.6204  -15.7931   20.1809 H       1  UNL1        0.1675
     16 C          -2.4592  -20.0818   20.4251 C.3     1  UNL1        0.2068
     17 O          -1.8746  -19.2881   21.5557 O.3     1  UNL1       -0.4754
     18 C          -2.6619  -18.1705   22.1731 C.ar    1  UNL1        0.1388
     19 C          -2.3738  -16.7492   21.7898 C.ar    1  UNL1        0.0400
     20 C          -3.1610  -15.6316   22.4073 C.ar    1  UNL1        0.0400
     21 C          -4.2363  -15.9353   23.4080 C.ar    1  UNL1        0.1386
     22 C          -4.5244  -17.3565   23.7913 C.ar    1  UNL1        0.0400
     23 C          -3.7372  -18.4742   23.1738 C.ar    1  UNL1        0.0400
     24 O          -5.0236  -14.8177   24.0254 O.3     1  UNL1       -0.4792
     25 C          -6.1403  -15.1244   24.9788 C.3     1  UNL1        0.1659
     26 C          -5.8514  -15.3031   26.4398 C.3     1  UNL1        0.0435
     27 C          -6.9680  -15.6097   27.3932 C.3     1  UNL1        0.0037
     28 C          -8.3737  -15.7378   26.8855 C.3     1  UNL1        0.0002
     29 C          -8.6627  -15.5591   25.4245 C.3     1  UNL1        0.0037
     30 C          -7.5460  -15.2524   24.4711 C.3     1  UNL1        0.0435
@<TRIPOS>BOND
     1    10    11   ar
     2    11    12   ar
     3    12     9    1
     4     9     3    1
     5     3     4    1
     6     4     5    1
     7     5     6    1
     8     6     2    1
     9     2     1    1
    10     1    16    1
    11    16    17    1
    12    17    18    1
    13    18    19   ar
    14    19    20   ar
    15    20    21   ar
    16    21    24    1
    17    24    25    1
    18    25    26    1
    19    26    27    1
    20    27    28    1
    21    28    29    1
    22    29    30    1
    23    21    22   ar
    24    22    23   ar
    25     6     7    1
    26     7     8    1
    27    12    13   ar
    28    13    14   ar
    29    14    10   ar
    30     8     3    1
    31    23    18   ar
    32    30    25    1
    33    14    15    1
@<TRIPOS>MOLECULE
*****
 30 33 0 0 0
SMALL
GASTEIGER

@<TRIPOS>ATOM
      1 C          -8.8695  -19.6983   19.0225 C.3     1  UNL1        0.0646
      2 C          -8.0427  -20.5697   19.9209 C.3     1  UNL1        0.0759
      3 C          -4.2592  -18.9643   21.7532 C.3     1  UNL1        0.0087
      4 C          -4.1866  -19.9675   20.6404 C.3     1  UNL1        0.0178
      5 C          -5.4478  -20.5026   20.0297 C.3     1  UNL1        0.0721
      6 N          -6.7815  -20.0346   20.5317 N.3     1  UNL1       -0.2726
      7 C          -6.8541  -19.0314   21.6445 C.3     1  UNL1        0.0721
      8 C          -5.5929  -18.4963   22.2553 C.3     1  UNL1        0.0178
      9 C          -2.9980  -18.4292   22.3640 C.3     1  UNL1        0.0475
     10 C           0.0370  -17.9003   20.0031 C.ar    1  UNL1        0.1747
     11 N          -0.8893  -18.8017   20.7642 N.ar    1  UNL1       -0.2285
     12 C          -1.8861  -17.9418   21.4831 C.ar    1  UNL1        0.0776
     13 C          -1.5758  -16.5088   21.1662 C.ar    1  UNL1        0.0885
     14 N          -0.3873  -16.4831   20.2516 N.ar    1  UNL1       -0.3340
     15 H           0.0394  -15.6776   19.8797 H       1  UNL1        0.1675
     16 C         -10.3637  -19.6894   19.1539 C.3     1  UNL1        0.2068
     17 O         -10.9976  -19.7542   20.5118 O.3     1  UNL1       -0.4754
     18 C         -10.6461  -18.7332   21.5530 C.ar    1  UNL1        0.1388
     19 C         -10.3676  -19.1646   22.9625 C.ar    1  UNL1        0.0400
     20 C         -10.0160  -18.1436   24.0036 C.ar    1  UNL1        0.0400
     21 C          -9.9429  -16.6914   23.6354 C.ar    1  UNL1        0.1386
     22 C         -10.2214  -16.2600   22.2261 C.ar    1  UNL1        0.0400
     23 C         -10.5729  -17.2810   21.1848 C.ar    1  UNL1        0.0400
     24 O          -9.5914  -15.6704   24.6766 O.3     1  UNL1       -0.4792
     25 C          -8.1790  -15.5571   25.1691 C.3     1  UNL1        0.1659
     26 C          -7.8986  -15.5271   26.6423 C.3     1  UNL1        0.0435
     27 C          -6.4863  -15.4138   27.1349 C.3     1  UNL1        0.0037
     28 C          -5.3544  -15.3303   26.1541 C.3     1  UNL1        0.0002
     29 C          -5.6348  -15.3602   24.6808 C.3     1  UNL1        0.0037
     30 C          -7.0472  -15.4736   24.1883 C.3     1  UNL1        0.0435
@<TRIPOS>BOND
     1    10    11   ar
     2    11    12   ar
     3    12     9    1
     4     9     3    1
     5     3     4    1
     6     4     5    1
     7     5     6    1
     8     6     2    1
     9     2     1    1
    10     1    16    1
    11    16    17    1
    12    17    18    1
    13    18    19   ar
    14    19    20   ar
    15    20    21   ar
    16    21    24    1
    17    24    25    1
    18    25    26    1
    19    26    27    1
    20    27    28    1
    21    28    29    1
    22    29    30    1
    23    21    22   ar
    24    22    23   ar
    25     6     7    1
    26     7     8    1
    27    12    13   ar
    28    13    14   ar
    29    14    10   ar
    30     8     3    1
    31    23    18   ar
    32    30    25    1
    33    14    15    1
@<TRIPOS>MOLECULE
*****
 30 33 0 0 0
SMALL
GASTEIGER

@<TRIPOS>ATOM
      1 C         -11.4741  -18.1089   20.0059 C.3     1  UNL1        0.0646
      2 C         -11.8923  -18.4948   21.3937 C.3     1  UNL1        0.0759
      3 C          -9.5045  -17.0839   24.9374 C.3     1  UNL1        0.0087
      4 C          -9.8672  -16.1210   23.8460 C.3     1  UNL1        0.0178
      5 C         -10.6631  -16.5913   22.6648 C.3     1  UNL1        0.0721
      6 N         -11.0964  -18.0245   22.5750 N.3     1  UNL1       -0.2726
      7 C         -10.7337  -18.9875   23.6664 C.3     1  UNL1        0.0721
      8 C          -9.9378  -18.5171   24.8476 C.3     1  UNL1        0.0178
      9 C          -8.7085  -16.6136   26.1186 C.3     1  UNL1        0.0475
     10 C          -5.3312  -15.1637   24.8711 C.ar    1  UNL1        0.1747
     11 N          -6.6118  -15.9036   24.6206 N.ar    1  UNL1       -0.2285
     12 C          -7.3722  -15.9645   25.9121 C.ar    1  UNL1        0.0776
     13 C          -6.5616  -15.2622   26.9608 C.ar    1  UNL1        0.0885
     14 N          -5.3002  -14.7673   26.3175 N.ar    1  UNL1       -0.3340
     15 H          -4.5786  -14.2697   26.7658 H       1  UNL1        0.1675
     16 C         -10.1059  -18.4690   19.5075 C.3     1  UNL1        0.2068
     17 O          -9.4314  -19.7143   20.0015 O.3     1  UNL1       -0.4754
     18 C          -8.0531  -19.6383   20.5885 C.ar    1  UNL1        0.1388
     19 C          -6.9866  -20.5851   20.1236 C.ar    1  UNL1        0.0400
     20 C          -5.6083  -20.5090   20.7106 C.ar    1  UNL1        0.0400
     21 C          -5.2966  -19.4861   21.7625 C.ar    1  UNL1        0.1386
     22 C          -6.3630  -18.5394   22.2275 C.ar    1  UNL1        0.0400
     23 C          -7.7414  -18.6154   21.6405 C.ar    1  UNL1        0.0400
     24 O          -3.9183  -19.4101   22.3495 O.3     1  UNL1       -0.4792
     25 C          -2.8744  -18.5482   21.7033 C.3     1  UNL1        0.1659
     26 C          -1.9995  -19.1124   20.6234 C.3     1  UNL1        0.0435
     27 C          -0.9556  -18.2507   19.9772 C.3     1  UNL1        0.0037
     28 C          -0.7866  -16.8247   20.4109 C.3     1  UNL1        0.0002
     29 C          -1.6615  -16.2605   21.4908 C.3     1  UNL1        0.0037
     30 C          -2.7054  -17.1223   22.1370 C.3     1  UNL1        0.0435
@<TRIPOS>BOND
     1    10    11   ar
     2    11    12   ar
     3    12     9    1
     4     9     3    1
     5     3     4    1
     6     4     5    1
     7     5     6    1
     8     6     2    1
     9     2     1    1
    10     1    16    1
    11    16    17    1
    12    17    18    1
    13    18    19   ar
    14    19    20   ar
    15    20    21   ar
    16    21    24    1
    17    24    25    1
    18    25    26    1
    19    26    27    1
    20    27    28    1
    21    28    29    1
    22    29    30    1
    23    21    22   ar
    24    22    23   ar
    25     6     7    1
    26     7     8    1
    27    12    13   ar
    28    13    14   ar
    29    14    10   ar
    30     8     3    1
    31    23    18   ar
    32    30    25    1
    33    14    15    1
@<TRIPOS>MOLECULE
*****
 30 33 0 0 0
SMALL
GASTEIGER

@<TRIPOS>ATOM
      1 C         -12.0084  -18.1658   22.5470 C.3     1  UNL1        0.0646
      2 C         -11.5280  -16.7468   22.4708 C.3     1  UNL1        0.0759
      3 C          -7.3962  -15.6900   23.9062 C.3     1  UNL1        0.0087
      4 C          -7.7931  -15.4051   22.4881 C.3     1  UNL1        0.0178
      5 C          -9.1704  -15.7574   22.0096 C.3     1  UNL1        0.0721
      6 N         -10.1507  -16.3946   22.9493 N.3     1  UNL1       -0.2726
      7 C          -9.7537  -16.6795   24.3674 C.3     1  UNL1        0.0721
      8 C          -8.3765  -16.3272   24.8459 C.3     1  UNL1        0.0178
      9 C          -6.0188  -15.3377   24.3848 C.3     1  UNL1        0.0475
     10 C          -2.8469  -16.1460   22.2990 C.ar    1  UNL1        0.1747
     11 N          -3.9176  -15.1922   22.7390 N.ar    1  UNL1       -0.2285
     12 C          -4.8161  -15.9145   23.6987 C.ar    1  UNL1        0.0776
     13 C          -4.3007  -17.3148   23.8518 C.ar    1  UNL1        0.0885
     14 N          -3.0837  -17.4580   22.9867 N.ar    1  UNL1       -0.3340
     15 H          -2.5364  -18.2703   22.8877 H       1  UNL1        0.1675
     16 C         -11.2645  -19.2494   21.8242 C.3     1  UNL1        0.2068
     17 O         -10.3592  -18.9025   20.6796 O.3     1  UNL1       -0.4754
     18 C          -8.9137  -19.3011   20.7194 C.ar    1  UNL1        0.1388
     19 C          -8.1413  -19.1948   22.0009 C.ar    1  UNL1        0.0400
     20 C          -6.6958  -19.5934   22.0406 C.ar    1  UNL1        0.0400
     21 C          -6.0226  -20.0983   20.7989 C.ar    1  UNL1        0.1386
     22 C          -6.7949  -20.2046   19.5175 C.ar    1  UNL1        0.0400
     23 C          -8.2405  -19.8060   19.4777 C.ar    1  UNL1        0.0400
     24 O          -4.5771  -20.4969   20.8387 O.3     1  UNL1       -0.4792
     25 C          -3.5273  -19.5650   20.3099 C.3     1  UNL1        0.1659
     26 C          -3.9016  -18.4914   19.3315 C.3     1  UNL1        0.0435
     27 C          -2.8518  -17.5596   18.8027 C.3     1  UNL1        0.0037
     28 C          -1.4278  -17.7013   19.2523 C.3     1  UNL1        0.0002
     29 C          -1.0536  -18.7749   20.2308 C.3     1  UNL1        0.0037
     30 C          -2.1034  -19.7068   20.7596 C.3     1  UNL1        0.0435
@<TRIPOS>BOND
     1    10    11   ar
     2    11    12   ar
     3    12     9    1
     4     9     3    1
     5     3     4    1
     6     4     5    1
     7     5     6    1
     8     6     2    1
     9     2     1    1
    10     1    16    1
    11    16    17    1
    12    17    18    1
    13    18    19   ar
    14    19    20   ar
    15    20    21   ar
    16    21    24    1
    17    24    25    1
    18    25    26    1
    19    26    27    1
    20    27    28    1
    21    28    29    1
    22    29    30    1
    23    21    22   ar
    24    22    23   ar
    25     6     7    1
    26     7     8    1
    27    12    13   ar
    28    13    14   ar
    29    14    10   ar
    30     8     3    1
    31    23    18   ar
    32    30    25    1
    33    14    15    1
@<TRIPOS>MOLECULE
*****
 30 33 0 0 0
SMALL
GASTEIGER

@<TRIPOS>ATOM
      1 C          -3.8101  -19.9974   19.5424 C.3     1  UNL1        0.0646
      2 C          -4.7293  -18.8206   19.6841 C.3     1  UNL1        0.0759
      3 C          -9.0471  -19.4574   20.7800 C.3     1  UNL1        0.0087
      4 C          -8.5788  -19.7373   19.3827 C.3     1  UNL1        0.0178
      5 C          -7.1396  -19.5251   19.0175 C.3     1  UNL1        0.0721
      6 N          -6.1686  -19.0329   20.0494 N.3     1  UNL1       -0.2726
      7 C          -6.6369  -18.7529   21.4466 C.3     1  UNL1        0.0721
      8 C          -8.0761  -18.9651   21.8119 C.3     1  UNL1        0.0178
      9 C         -10.4864  -19.6696   21.1453 C.3     1  UNL1        0.0475
     10 C         -12.1285  -18.5003   24.4621 C.ar    1  UNL1        0.1747
     11 N         -11.9784  -18.4122   22.9723 N.ar    1  UNL1       -0.2285
     12 C         -10.9487  -19.4178   22.5499 C.ar    1  UNL1        0.0776
     13 C         -10.4624  -20.1274   23.7787 C.ar    1  UNL1        0.0885
     14 N         -11.1915  -19.5604   24.9606 N.ar    1  UNL1       -0.3340
     15 H         -11.0755  -19.8356   25.8987 H       1  UNL1        0.1675
     16 C          -2.9136  -20.3900   20.6792 C.3     1  UNL1        0.2068
     17 O          -2.1160  -19.3446   21.4008 O.3     1  UNL1       -0.4754
     18 C          -2.8157  -18.2136   22.0946 C.ar    1  UNL1        0.1388
     19 C          -2.5300  -16.7965   21.6943 C.ar    1  UNL1        0.0400
     20 C          -3.2298  -15.6656   22.3880 C.ar    1  UNL1        0.0400
     21 C          -4.2152  -15.9517   23.4821 C.ar    1  UNL1        0.1386
     22 C          -4.5009  -17.3687   23.8825 C.ar    1  UNL1        0.0400
     23 C          -3.8011  -18.4998   23.1887 C.ar    1  UNL1        0.0400
     24 O          -4.9149  -14.8208   24.1759 O.3     1  UNL1       -0.4792
     25 C          -6.0870  -15.0994   25.0697 C.3     1  UNL1        0.1659
     26 C          -7.4754  -15.1172   24.5022 C.3     1  UNL1        0.0435
     27 C          -8.6474  -15.3958   25.3959 C.3     1  UNL1        0.0037
     28 C          -8.4310  -15.6567   26.8571 C.3     1  UNL1        0.0002
     29 C          -7.0426  -15.6390   27.4246 C.3     1  UNL1        0.0037
     30 C          -5.8706  -15.3603   26.5308 C.3     1  UNL1        0.0435
@<TRIPOS>BOND
     1    10    11   ar
     2    11    12   ar
     3    12     9    1
     4     9     3    1
     5     3     4    1
     6     4     5    1
     7     5     6    1
     8     6     2    1
     9     2     1    1
    10     1    16    1
    11    16    17    1
    12    17    18    1
    13    18    19   ar
    14    19    20   ar
    15    20    21   ar
    16    21    24    1
    17    24    25    1
    18    25    26    1
    19    26    27    1
    20    27    28    1
    21    28    29    1
    22    29    30    1
    23    21    22   ar
    24    22    23   ar
    25     6     7    1
    26     7     8    1
    27    12    13   ar
    28    13    14   ar
    29    14    10   ar
    30     8     3    1
    31    23    18   ar
    32    30    25    1
    33    14    15    1
@<TRIPOS>MOLECULE
*****
 30 33 0 0 0
SMALL
GASTEIGER

@<TRIPOS>ATOM
      1 C          -2.4936  -19.9784   20.9523 C.3     1  UNL1        0.0646
      2 C          -1.8879  -18.8253   21.6962 C.3     1  UNL1        0.0759
      3 C          -4.5344  -15.9357   23.9088 C.3     1  UNL1        0.0087
      4 C          -3.7829  -15.4835   22.6920 C.3     1  UNL1        0.0178
      5 C          -2.9007  -16.4467   21.9545 C.3     1  UNL1        0.0721
      6 N          -2.7701  -17.8621   22.4338 N.3     1  UNL1       -0.2726
      7 C          -3.5216  -18.3142   23.6506 C.3     1  UNL1        0.0721
      8 C          -4.4038  -17.3510   24.3881 C.3     1  UNL1        0.0178
      9 C          -5.4166  -14.9725   24.6464 C.3     1  UNL1        0.0475
     10 C          -8.0813  -16.1091   27.2296 C.ar    1  UNL1        0.1747
     11 N          -6.7329  -15.5390   26.9028 N.ar    1  UNL1       -0.2285
     12 C          -6.6052  -15.4774   25.4096 C.ar    1  UNL1        0.0776
     13 C          -7.8746  -16.0095   24.8134 C.ar    1  UNL1        0.0885
     14 N          -8.7870  -16.3999   25.9382 N.ar    1  UNL1       -0.3340
     15 H          -9.6903  -16.7802   25.8452 H       1  UNL1        0.1675
     16 C          -3.7269  -19.7717   20.1239 C.3     1  UNL1        0.2068
     17 O          -4.9820  -20.5274   20.4458 O.3     1  UNL1       -0.4754
     18 C          -6.2775  -19.7913   20.6172 C.ar    1  UNL1        0.1388
     19 C          -6.3900  -18.6989   21.6391 C.ar    1  UNL1        0.0400
     20 C          -7.6856  -17.9627   21.8105 C.ar    1  UNL1        0.0400
     21 C          -8.8688  -18.3188   20.9601 C.ar    1  UNL1        0.1386
     22 C          -8.7564  -19.4112   19.9383 C.ar    1  UNL1        0.0400
     23 C          -7.4608  -20.1474   19.7668 C.ar    1  UNL1        0.0400
     24 O         -10.1644  -17.5827   21.1316 O.3     1  UNL1       -0.4792
     25 C         -11.0721  -17.9188   22.2775 C.3     1  UNL1        0.1659
     26 C         -10.5337  -18.6506   23.4711 C.3     1  UNL1        0.0435
     27 C         -11.4413  -18.9867   24.6170 C.3     1  UNL1        0.0037
     28 C         -12.8875  -18.5911   24.5694 C.3     1  UNL1        0.0002
     29 C         -13.4259  -17.8594   23.3758 C.3     1  UNL1        0.0037
     30 C         -12.5182  -17.5232   22.2298 C.3     1  UNL1        0.0435
@<TRIPOS>BOND
     1    10    11   ar
     2    11    12   ar
     3    12     9    1
     4     9     3    1
     5     3     4    1
     6     4     5    1
     7     5     6    1
     8     6     2    1
     9     2     1    1
    10     1    16    1
    11    16    17    1
    12    17    18    1
    13    18    19   ar
    14    19    20   ar
    15    20    21   ar
    16    21    24    1
    17    24    25    1
    18    25    26    1
    19    26    27    1
    20    27    28    1
    21    28    29    1
    22    29    30    1
    23    21    22   ar
    24    22    23   ar
    25     6     7    1
    26     7     8    1
    27    12    13   ar
    28    13    14   ar
    29    14    10   ar
    30     8     3    1
    31    23    18   ar
    32    30    25    1
    33    14    15    1
@<TRIPOS>MOLECULE
*****
 30 33 0 0 0
SMALL
GASTEIGER

@<TRIPOS>ATOM
      1 C         -12.6675  -17.8653   21.1998 C.3     1  UNL1        0.0646
      2 C         -12.0410  -16.5097   21.0591 C.3     1  UNL1        0.0759
      3 C          -8.2490  -15.5420   23.2803 C.3     1  UNL1        0.0087
      4 C          -9.4060  -16.1619   24.0062 C.3     1  UNL1        0.0178
      5 C         -10.6700  -16.4845   23.2658 C.3     1  UNL1        0.0721
      6 N         -10.7769  -16.1871   21.7995 N.3     1  UNL1       -0.2726
      7 C          -9.6200  -15.5672   21.0735 C.3     1  UNL1        0.0721
      8 C          -8.3560  -15.2447   21.8139 C.3     1  UNL1        0.0178
      9 C          -6.9849  -15.2194   24.0207 C.3     1  UNL1        0.0475
     10 C          -5.9964  -16.1761   27.6501 C.ar    1  UNL1        0.1747
     11 N          -5.6556  -16.0175   26.1979 N.ar    1  UNL1       -0.2285
     12 C          -6.8778  -15.5169   25.4869 C.ar    1  UNL1        0.0776
     13 C          -7.9740  -15.3662   26.4996 C.ar    1  UNL1        0.0885
     14 N          -7.4294  -15.7736   27.8365 N.ar    1  UNL1       -0.3340
     15 H          -7.9253  -15.7763   28.6870 H       1  UNL1        0.1675
     16 C         -11.8302  -19.0992   21.0364 C.3     1  UNL1        0.2068
     17 O         -10.7122  -19.1198   20.0366 O.3     1  UNL1       -0.4754
     18 C          -9.2992  -19.3258   20.4959 C.ar    1  UNL1        0.1388
     19 C          -8.9754  -19.3018   21.9604 C.ar    1  UNL1        0.0400
     20 C          -7.5624  -19.5078   22.4196 C.ar    1  UNL1        0.0400
     21 C          -6.4731  -19.7378   21.4144 C.ar    1  UNL1        0.1386
     22 C          -6.7967  -19.7618   19.9500 C.ar    1  UNL1        0.0400
     23 C          -8.2098  -19.5558   19.4907 C.ar    1  UNL1        0.0400
     24 O          -5.0601  -19.9437   21.8737 O.3     1  UNL1       -0.4792
     25 C          -4.0335  -18.8743   21.6444 C.3     1  UNL1        0.1659
     26 C          -3.7024  -17.9052   22.7404 C.3     1  UNL1        0.0435
     27 C          -2.6758  -16.8358   22.5111 C.3     1  UNL1        0.0037
     28 C          -1.9803  -16.7355   21.1858 C.3     1  UNL1        0.0002
     29 C          -2.3114  -17.7046   20.0898 C.3     1  UNL1        0.0037
     30 C          -3.3380  -18.7741   20.3191 C.3     1  UNL1        0.0435
@<TRIPOS>BOND
     1    10    11   ar
     2    11    12   ar
     3    12     9    1
     4     9     3    1
     5     3     4    1
     6     4     5    1
     7     5     6    1
     8     6     2    1
     9     2     1    1
    10     1    16    1
    11    16    17    1
    12    17    18    1
    13    18    19   ar
    14    19    20   ar
    15    20    21   ar
    16    21    24    1
    17    24    25    1
    18    25    26    1
    19    26    27    1
    20    27    28    1
    21    28    29    1
    22    29    30    1
    23    21    22   ar
    24    22    23   ar
    25     6     7    1
    26     7     8    1
    27    12    13   ar
    28    13    14   ar
    29    14    10   ar
    30     8     3    1
    31    23    18   ar
    32    30    25    1
    33    14    15    1
@<TRIPOS>MOLECULE
*****
 30 33 0 0 0
SMALL
GASTEIGER

@<TRIPOS>ATOM
      1 C         -15.6004   -1.1473   19.8982 C.3     1  UNL1        0.0646
      2 C         -16.3848   -2.1542   19.1103 C.3     1  UNL1        0.0759
      3 C         -14.9719   -6.4200   18.8719 C.3     1  UNL1        0.0087
      4 C         -14.0231   -5.3383   19.2956 C.3     1  UNL1        0.0178
      5 C         -14.4941   -3.9164   19.3751 C.3     1  UNL1        0.0721
      6 N         -15.9139   -3.5762   19.0308 N.3     1  UNL1       -0.2726
      7 C         -16.8627   -4.6579   18.6071 C.3     1  UNL1        0.0721
      8 C         -16.3917   -6.0798   18.5276 C.3     1  UNL1        0.0178
      9 C         -14.5010   -7.8420   18.7923 C.3     1  UNL1        0.0475
     10 C         -16.6703  -11.0511   18.5463 C.ar    1  UNL1        0.1747
     11 N         -15.5301  -10.2007   18.0699 N.ar    1  UNL1       -0.2285
     12 C         -15.4854   -8.9664   18.9210 C.ar    1  UNL1        0.0776
     13 C         -16.5979   -9.0539   19.9234 C.ar    1  UNL1        0.0885
     14 N         -17.3302  -10.3423   19.6918 N.ar    1  UNL1       -0.3340
     15 H         -18.1075  -10.6659   20.2020 H       1  UNL1        0.1675
     16 C         -15.4051    0.2391   19.3597 C.3     1  UNL1        0.2068
     17 O         -14.5835    0.4547   18.1234 O.3     1  UNL1       -0.4754
     18 C         -13.5337   -0.5445   17.7369 C.ar    1  UNL1        0.1388
     19 C         -13.7581   -1.4526   16.5643 C.ar    1  UNL1        0.0400
     20 C         -12.7083   -2.4518   16.1778 C.ar    1  UNL1        0.0400
     21 C         -11.4340   -2.5429   16.9638 C.ar    1  UNL1        0.1386
     22 C         -11.2096   -1.6348   18.1364 C.ar    1  UNL1        0.0400
     23 C         -12.2594   -0.6356   18.5230 C.ar    1  UNL1        0.0400
     24 O         -10.3842   -3.5421   16.5773 O.3     1  UNL1       -0.4792
     25 C         -10.3925   -4.9126   17.1870 C.3     1  UNL1        0.1659
     26 C          -9.6225   -5.1777   18.4467 C.3     1  UNL1        0.0435
     27 C          -9.6307   -6.5482   19.0564 C.3     1  UNL1        0.0037
     28 C         -10.4091   -7.6536   18.4064 C.3     1  UNL1        0.0002
     29 C         -11.1791   -7.3885   17.1468 C.3     1  UNL1        0.0037
     30 C         -11.1708   -6.0179   16.5371 C.3     1  UNL1        0.0435
@<TRIPOS>BOND
     1    10    11   ar
     2    11    12   ar
     3    12     9    1
     4     9     3    1
     5     3     4    1
     6     4     5    1
     7     5     6    1
     8     6     2    1
     9     2     1    1
    10     1    16    1
    11    16    17    1
    12    17    18    1
    13    18    19   ar
    14    19    20   ar
    15    20    21   ar
    16    21    24    1
    17    24    25    1
    18    25    26    1
    19    26    27    1
    20    27    28    1
    21    28    29    1
    22    29    30    1
    23    21    22   ar
    24    22    23   ar
    25     6     7    1
    26     7     8    1
    27    12    13   ar
    28    13    14   ar
    29    14    10   ar
    30     8     3    1
    31    23    18   ar
    32    30    25    1
    33    14    15    1
@<TRIPOS>MOLECULE
*****
 30 33 0 0 0
SMALL
GASTEIGER

@<TRIPOS>ATOM
      1 C          -2.7052  -17.5855   22.7500 C.3     1  UNL1        0.0646
      2 C          -3.3990  -16.2732   22.9655 C.3     1  UNL1        0.0759
      3 C          -7.6320  -16.1898   24.4904 C.3     1  UNL1        0.0087
      4 C          -7.3166  -16.8668   23.1896 C.3     1  UNL1        0.0178
      5 C          -5.9057  -16.8946   22.6813 C.3     1  UNL1        0.0721
      6 N          -4.8101  -16.2454   23.4739 N.3     1  UNL1       -0.2726
      7 C          -5.1254  -15.5684   24.7747 C.3     1  UNL1        0.0721
      8 C          -6.5364  -15.5406   25.2830 C.3     1  UNL1        0.0178
      9 C          -9.0430  -16.1620   24.9987 C.3     1  UNL1        0.0475
     10 C         -11.6768  -18.9411   24.3626 C.ar    1  UNL1        0.1747
     11 N         -11.1678  -17.5458   24.1530 N.ar    1  UNL1       -0.2285
     12 C          -9.8909  -17.3972   24.9259 C.ar    1  UNL1        0.0776
     13 C          -9.6107  -18.7007   25.6132 C.ar    1  UNL1        0.0885
     14 N         -10.7145  -19.6549   25.2651 N.ar    1  UNL1       -0.3340
     15 H         -10.7935  -20.5862   25.5746 H       1  UNL1        0.1675
     16 C          -2.7326  -18.2352   21.3982 C.3     1  UNL1        0.2068
     17 O          -3.4101  -19.5611   21.2170 O.3     1  UNL1       -0.4754
     18 C          -4.9017  -19.6277   21.0728 C.ar    1  UNL1        0.1388
     19 C          -5.7393  -20.1787   22.1885 C.ar    1  UNL1        0.0400
     20 C          -7.2308  -20.2453   22.0442 C.ar    1  UNL1        0.0400
     21 C          -7.8848  -19.7608   20.7843 C.ar    1  UNL1        0.1386
     22 C          -7.0473  -19.2098   19.6685 C.ar    1  UNL1        0.0400
     23 C          -5.5557  -19.1432   19.8128 C.ar    1  UNL1        0.0400
     24 O          -9.3764  -19.8274   20.6400 O.3     1  UNL1       -0.4792
     25 C         -10.2017  -18.5853   20.8020 C.3     1  UNL1        0.1659
     26 C          -9.5301  -17.2605   21.0115 C.3     1  UNL1        0.0435
     27 C         -10.3553  -16.0185   21.1735 C.3     1  UNL1        0.0037
     28 C         -11.8524  -16.1012   21.1260 C.3     1  UNL1        0.0002
     29 C         -12.5240  -17.4260   20.9164 C.3     1  UNL1        0.0037
     30 C         -11.6986  -18.6681   20.7545 C.3     1  UNL1        0.0435
@<TRIPOS>BOND
     1    10    11   ar
     2    11    12   ar
     3    12     9    1
     4     9     3    1
     5     3     4    1
     6     4     5    1
     7     5     6    1
     8     6     2    1
     9     2     1    1
    10     1    16    1
    11    16    17    1
    12    17    18    1
    13    18    19   ar
    14    19    20   ar
    15    20    21   ar
    16    21    24    1
    17    24    25    1
    18    25    26    1
    19    26    27    1
    20    27    28    1
    21    28    29    1
    22    29    30    1
    23    21    22   ar
    24    22    23   ar
    25     6     7    1
    26     7     8    1
    27    12    13   ar
    28    13    14   ar
    29    14    10   ar
    30     8     3    1
    31    23    18   ar
    32    30    25    1
    33    14    15    1
