@<TRIPOS>MOLECULE
*****
 90 90 0 0 0
SMALL
GASTEIGER

@<TRIPOS>ATOM
      1 C           7.2854   -3.7943   24.9125 C.3     1  UNL1        0.1789
      2 C           7.8549   -3.8534   26.2989 C.2     1  UNL1        0.2433
      3 O           8.9172   -4.8613   25.9739 O.2     1  UNL1       -0.2732
      4 N           8.2225   -3.7208   27.7471 N.am    1  UNL1       -0.2969
      5 C           8.3749   -3.4015   29.2047 C.3     1  UNL1        0.1488
      6 C           8.3065   -2.9067   30.6192 C.2     1  UNL1        0.2439
      7 O           9.4546   -3.7347   31.1155 O.2     1  UNL1       -0.2731
      8 N           8.0199   -2.2547   31.9393 N.am    1  UNL1       -0.2682
      9 C           9.1134   -2.9587   32.6865 C.3     1  UNL1        0.1154
     10 C           7.5253   -1.4688   33.1173 C.3     1  UNL1        0.1794
     11 C           6.8407   -0.5774   34.1107 C.2     1  UNL1        0.2463
     12 O           7.7101   -0.9625   35.2707 O.2     1  UNL1       -0.2730
     13 N           5.9908    0.3873   34.8835 N.am    1  UNL1       -0.2698
     14 C           6.6987    0.1855   36.1905 C.3     1  UNL1        0.1153
     15 C           5.0064    1.3902   35.4079 C.3     1  UNL1        0.1518
     16 C           3.9229    2.3953   35.6648 C.2     1  UNL1        0.2409
     17 O           4.2377    2.5752   37.1203 O.2     1  UNL1       -0.2733
     18 N           2.7797    3.3661   35.6450 N.am    1  UNL1       -0.2970
     19 C           1.6179    4.2677   35.3492 C.3     1  UNL1        0.1487
     20 C           0.4796    5.0673   34.7881 C.2     1  UNL1        0.2439
     21 O           0.1397    5.7553   36.0770 O.2     1  UNL1       -0.2731
     22 N          -0.5941    5.7362   33.9820 N.am    1  UNL1       -0.2699
     23 C          -1.1380    6.5513   35.1176 C.3     1  UNL1        0.1153
     24 C          -1.5643    6.2501   32.9600 C.3     1  UNL1        0.1518
     25 C          -2.3961    6.5905   31.7591 C.2     1  UNL1        0.2409
     26 O          -3.2827    7.5680   32.4721 O.2     1  UNL1       -0.2733
     27 N          -3.0593    6.7450   30.4225 N.am    1  UNL1       -0.2970
     28 C          -3.5300    6.7081   28.9988 C.3     1  UNL1        0.1486
     29 C          -4.6321    7.7080   29.1870 C.3     1  UNL1        0.0312
     30 C          -3.7911    6.4811   27.5393 C.2     1  UNL1        0.2406
     31 O          -4.9429    7.4378   27.4499 O.2     1  UNL1       -0.2733
     32 N          -3.8333    6.0722   26.0966 N.am    1  UNL1       -0.2970
     33 C          -3.6549    5.4962   24.7232 C.3     1  UNL1        0.1489
     34 C          -4.7809    6.2658   24.0985 C.3     1  UNL1        0.0312
     35 C          -3.2625    4.7739   23.4684 C.2     1  UNL1        0.2439
     36 O          -4.3139    5.4061   22.6053 O.2     1  UNL1       -0.2731
     37 N          -2.6703    3.9315   22.3778 N.am    1  UNL1       -0.2699
     38 C          -3.6091    4.4035   21.3073 C.3     1  UNL1        0.1153
     39 C          -1.8996    2.9993   21.4907 C.3     1  UNL1        0.1520
     40 C          -0.9783    2.0110   20.8392 C.2     1  UNL1        0.2441
     41 O          -1.5953    2.1180   19.4762 O.2     1  UNL1       -0.2731
     42 N           0.0604    1.0024   20.4467 N.am    1  UNL1       -0.2699
     43 C          -0.3593    0.9176   19.0091 C.3     1  UNL1        0.1153
     44 C           1.1788    0.0100   20.3275 C.3     1  UNL1        0.1520
     45 C           2.3365   -0.9305   20.4861 C.2     1  UNL1        0.2441
     46 O           2.3497   -1.3828   19.0560 O.2     1  UNL1       -0.2731
     47 N           3.4918   -1.7849   20.9165 N.am    1  UNL1       -0.2699
     48 C           3.7245   -2.3997   19.5682 C.3     1  UNL1        0.1153
     49 C           4.6028   -2.5226   21.6032 C.3     1  UNL1        0.1520
     50 C           5.6295   -3.1166   22.5215 C.2     1  UNL1        0.2441
     51 O           6.2686   -3.9846   21.4782 O.2     1  UNL1       -0.2731
     52 N           6.5345   -3.5457   23.6380 N.am    1  UNL1       -0.2680
     53 C           7.3457   -4.4952   22.8070 C.3     1  UNL1        0.1154
     54 H           8.9656   -4.3658   27.7144 H       1  UNL1        0.1499
     55 H           2.8436    3.6054   36.5978 H       1  UNL1        0.1499
     56 H          -3.7240    7.4059   30.7237 H       1  UNL1        0.1499
     57 H          -4.5945    6.6491   25.8581 H       1  UNL1        0.1499
     58 C           8.2394   -4.7910   24.3238 C.3     1  UNL1        0.1377
     59 O           9.4966   -4.3210   23.6541 O.3     1  UNL1       -0.3822
     60 H           9.9966   -5.0868   23.3311 H       1  UNL1        0.2104
     61 C           7.9362   -6.2578   24.4049 C.3     1  UNL1        0.0334
     62 C           8.7633   -7.2387   23.6279 C.3     1  UNL1        0.0029
     63 C           6.8058   -6.7437   25.2630 C.3     1  UNL1        0.0282
     64 C           7.5801   -9.9791   27.4270 C.3     1  UNL1        0.0303
     65 C           7.5984   -8.5590   26.9442 C.2     1  UNL1       -0.0304
     66 C           6.7875   -8.1637   25.7458 C.2     1  UNL1       -0.0306
     67 C           1.4944    4.8036   36.7448 C.3     1  UNL1        0.0269
     68 C           0.6583    4.0769   37.7561 C.3     1  UNL1        0.0022
     69 C           2.2072    6.0663   37.1290 C.3     1  UNL1        0.0022
     70 C           5.0467   -3.2775   20.3854 C.3     1  UNL1        0.0271
     71 C           4.9692   -4.7753   20.3617 C.3     1  UNL1        0.0022
     72 C           5.5682   -2.5345   19.1912 C.3     1  UNL1        0.0022
     73 C           9.5360   -4.3235   29.4322 C.3     1  UNL1        0.0290
     74 C           9.2944   -5.7497   29.8292 C.3     1  UNL1        0.0023
     75 C           5.5271    1.3791   36.8145 C.3     1  UNL1        0.0292
     76 C           6.8359    2.0380   37.1350 C.3     1  UNL1        0.0021
     77 C           7.1168    2.5082   38.5315 C.3     1  UNL1        0.0001
     78 C           7.8639    2.2268   36.0591 C.3     1  UNL1        0.0001
     79 C          -2.2928    7.1629   33.9013 C.3     1  UNL1        0.0292
     80 C          -3.7925    7.1680   33.9311 C.3     1  UNL1        0.0021
     81 C          -4.5684    6.8813   32.6798 C.3     1  UNL1        0.0001
     82 C          -4.5161    7.4597   35.2121 C.3     1  UNL1        0.0001
     83 C          -2.6918    3.2941   20.2515 C.3     1  UNL1        0.0292
     84 C          -2.3193    4.4587   19.3826 C.3     1  UNL1        0.0021
     85 C          -0.9795    4.4936   18.7090 C.3     1  UNL1        0.0001
     86 C          -3.2865    5.5884   19.1873 C.3     1  UNL1        0.0001
     87 C           0.9718   -0.2635   18.8673 C.3     1  UNL1        0.0292
     88 C           1.8627    0.3844   17.8493 C.3     1  UNL1        0.0021
     89 C           2.3439   -0.4010   16.6654 C.3     1  UNL1        0.0001
     90 C           2.2725    1.8178   18.0151 C.3     1  UNL1        0.0001
@<TRIPOS>BOND
     1    64    65    1
     2    65    66    2
     3    66    63    1
     4    63    61    1
     5    61    62    1
     6    61    58    1
     7    58    59    1
     8    58     1    1
     9     1     2    1
    10     2     3    2
    11     2     4   am
    12     4     5    1
    13     5    73    1
    14    73    74    1
    15     5     6    1
    16     6     7    2
    17     6     8   am
    18     8     9    1
    19     8    10    1
    20    10    11    1
    21    11    12    2
    22    11    13   am
    23    13    14    1
    24    13    15    1
    25    15    75    1
    26    75    76    1
    27    76    77    1
    28    76    78    1
    29    15    16    1
    30    16    17    2
    31    16    18   am
    32    18    19    1
    33    19    67    1
    34    67    68    1
    35    67    69    1
    36    19    20    1
    37    20    21    2
    38    20    22   am
    39    22    23    1
    40    22    24    1
    41    24    79    1
    42    79    80    1
    43    80    81    1
    44    80    82    1
    45    24    25    1
    46    25    26    2
    47    25    27   am
    48    27    28    1
    49    28    29    1
    50    28    30    1
    51    30    31    2
    52    30    32   am
    53    32    33    1
    54    33    34    1
    55    33    35    1
    56    35    36    2
    57    35    37   am
    58    37    38    1
    59    37    39    1
    60    39    83    1
    61    83    84    1
    62    84    85    1
    63    84    86    1
    64    39    40    1
    65    40    41    2
    66    40    42   am
    67    42    43    1
    68    42    44    1
    69    44    87    1
    70    87    88    1
    71    88    89    1
    72    88    90    1
    73    44    45    1
    74    45    46    2
    75    45    47   am
    76    47    48    1
    77    47    49    1
    78    49    70    1
    79    70    71    1
    80    70    72    1
    81    49    50    1
    82    50    51    2
    83    50    52   am
    84    52    53    1
    85     1    52    1
    86    59    60    1
    87     4    54    1
    88    18    55    1
    89    27    56    1
    90    32    57    1
@<TRIPOS>MOLECULE
*****
 90 90 0 0 0
SMALL
GASTEIGER

@<TRIPOS>ATOM
      1 C           3.8809   -0.9583   19.8537 C.3     1  UNL1        0.1789
      2 C           4.9472   -1.7983   20.4921 C.2     1  UNL1        0.2433
      3 O           5.4274   -2.4159   19.2122 O.2     1  UNL1       -0.2732
      4 N           5.9221   -2.5208   21.3737 N.am    1  UNL1       -0.2969
      5 C           6.7706   -3.0999   22.4668 C.3     1  UNL1        0.1488
      6 C           7.4619   -3.5144   23.7319 C.2     1  UNL1        0.2439
      7 O           8.4202   -4.4583   23.0680 O.2     1  UNL1       -0.2731
      8 N           7.9710   -3.7496   25.1231 N.am    1  UNL1       -0.2682
      9 C           9.0260   -4.7381   24.7237 C.3     1  UNL1        0.1154
     10 C           8.2795   -3.7967   26.5903 C.3     1  UNL1        0.1794
     11 C           8.3762   -3.6543   28.0803 C.2     1  UNL1        0.2463
     12 O           9.5083   -4.6247   28.2432 O.2     1  UNL1       -0.2730
     13 N           8.2577   -3.3272   29.5395 N.am    1  UNL1       -0.2698
     14 C           9.3673   -4.2355   29.9797 C.3     1  UNL1        0.1153
     15 C           7.9283   -2.8276   30.9150 C.3     1  UNL1        0.1518
     16 C           7.3998   -2.1733   32.1570 C.2     1  UNL1        0.2409
     17 O           8.3463   -2.8622   33.0948 O.2     1  UNL1       -0.2733
     18 N           6.6914   -1.3881   33.2207 N.am    1  UNL1       -0.2970
     19 C           5.8287   -0.5002   34.0677 C.3     1  UNL1        0.1487
     20 C           4.8428    0.4581   34.6673 C.2     1  UNL1        0.2439
     21 O           5.3032    0.2694   36.0825 O.2     1  UNL1       -0.2731
     22 N           3.7693    1.4523   34.9980 N.am    1  UNL1       -0.2699
     23 C           4.0257    1.4526   36.4759 C.3     1  UNL1        0.1153
     24 C           2.6472    2.4464   35.0477 C.3     1  UNL1        0.1518
     25 C           1.5169    3.4046   34.8146 C.2     1  UNL1        0.2409
     26 O           1.3450    3.7761   36.2576 O.2     1  UNL1       -0.2733
     27 N           0.4193    4.2921   34.3071 N.am    1  UNL1       -0.2970
     28 C          -0.6060    5.0769   33.5436 C.3     1  UNL1        0.1486
     29 C          -1.1815    5.7664   34.7451 C.3     1  UNL1        0.0312
     30 C          -1.5218    5.7307   32.5518 C.2     1  UNL1        0.2406
     31 O          -2.2715    6.5444   33.5646 O.2     1  UNL1       -0.2733
     32 N          -2.2952    6.2297   31.3673 N.am    1  UNL1       -0.2970
     33 C          -2.8981    6.5560   30.0331 C.3     1  UNL1        0.1489
     34 C          -3.9094    7.5267   30.5672 C.3     1  UNL1        0.0312
     35 C          -3.3087    6.6978   28.5974 C.2     1  UNL1        0.2439
     36 O          -4.3980    7.6954   28.8585 O.2     1  UNL1       -0.2731
     37 N          -3.5123    6.6499   27.1121 N.am    1  UNL1       -0.2699
     38 C          -4.6403    7.6384   27.0908 C.3     1  UNL1        0.1153
     39 C          -3.5014    6.4142   25.6308 C.3     1  UNL1        0.1520
     40 C          -3.2764    5.9989   24.2071 C.2     1  UNL1        0.2441
     41 O          -4.3596    6.8637   23.6335 O.2     1  UNL1       -0.2731
     42 N          -2.8455    5.4194   22.8923 N.am    1  UNL1       -0.2699
     43 C          -3.8468    6.1739   22.0688 C.3     1  UNL1        0.1153
     44 C          -2.2243    4.6963   21.7342 C.3     1  UNL1        0.1520
     45 C          -1.4352    3.8560   20.7745 C.2     1  UNL1        0.2441
     46 O          -2.1682    4.3133   19.5484 O.2     1  UNL1       -0.2731
     47 N          -0.5066    2.9287   20.0479 N.am    1  UNL1       -0.2699
     48 C          -1.0632    3.2097   18.6836 C.3     1  UNL1        0.1153
     49 C           0.5277    1.9480   19.5806 C.3     1  UNL1        0.1520
     50 C           1.6305    0.9493   19.3896 C.2     1  UNL1        0.2441
     51 O           1.4802    0.8540   17.9002 O.2     1  UNL1       -0.2731
     52 N           2.7619   -0.0313   19.4817 N.am    1  UNL1       -0.2680
     53 C           2.8266   -0.3130   18.0098 C.3     1  UNL1        0.1154
     54 H           6.3590   -3.0163   20.6437 H       1  UNL1        0.1499
     55 H           7.2243   -1.7423   33.9689 H       1  UNL1        0.1499
     56 H           0.1695    4.6467   35.1909 H       1  UNL1        0.1499
     57 H          -2.8837    6.8260   31.8843 H       1  UNL1        0.1499
     58 C           4.1584   -1.4163   18.4525 C.3     1  UNL1        0.1377
     59 O           3.4639   -2.6294   17.9086 O.3     1  UNL1       -0.3822
     60 H           3.7541   -2.7863   16.9964 H       1  UNL1        0.2104
     61 C           5.1304   -0.6611   17.5953 C.3     1  UNL1        0.0334
     62 C           5.6625   -1.2831   16.3383 C.3     1  UNL1        0.0029
     63 C           5.5704    0.7162   17.9951 C.3     1  UNL1        0.0282
     64 C           8.7103    2.8810   16.8977 C.3     1  UNL1        0.0303
     65 C           7.7404    2.1247   17.7564 C.2     1  UNL1       -0.0304
     66 C           6.5403    1.4724   17.1365 C.2     1  UNL1       -0.0306
     67 C           6.4765   -0.8711   35.3688 C.3     1  UNL1        0.0269
     68 C           5.6375   -1.3610   36.5117 C.3     1  UNL1        0.0022
     69 C           7.9634   -0.7521   35.5270 C.3     1  UNL1        0.0022
     70 C           0.1677    2.0426   18.1275 C.3     1  UNL1        0.0271
     71 C          -0.5184    0.8945   17.4484 C.3     1  UNL1        0.0022
     72 C           0.4939    3.2855   17.3535 C.3     1  UNL1        0.0022
     73 C           7.5975   -3.9650   21.5625 C.3     1  UNL1        0.0290
     74 C           8.6520   -3.3477   20.6923 C.3     1  UNL1        0.0023
     75 C           8.9753   -3.6409   31.6166 C.3     1  UNL1        0.0292
     76 C           8.8223   -5.1292   31.7230 C.3     1  UNL1        0.0021
     77 C           8.8660   -5.9781   30.4871 C.3     1  UNL1        0.0001
     78 C           8.6256   -5.7689   33.0655 C.3     1  UNL1        0.0001
     79 C           2.6902    2.6358   36.5350 C.3     1  UNL1        0.0292
     80 C           3.6350    3.6332   37.1372 C.3     1  UNL1        0.0021
     81 C           4.2931    3.3431   38.4535 C.3     1  UNL1        0.0001
     82 C           3.9217    4.9206   36.4229 C.3     1  UNL1        0.0001
     83 C          -4.6273    7.3578   25.3278 C.3     1  UNL1        0.0292
     84 C          -5.9964    6.8212   25.0316 C.3     1  UNL1        0.0021
     85 C          -6.6193    5.8088   25.9465 C.3     1  UNL1        0.0001
     86 C          -6.7427    7.2970   23.8206 C.3     1  UNL1        0.0001
     87 C          -3.1074    5.3134   20.6905 C.3     1  UNL1        0.0292
     88 C          -4.3842    4.6346   20.2916 C.3     1  UNL1        0.0021
     89 C          -5.3568    5.3361   19.3907 C.3     1  UNL1        0.0001
     90 C          -4.6883    3.2543   20.7938 C.3     1  UNL1        0.0001
@<TRIPOS>BOND
     1    64    65    1
     2    65    66    2
     3    66    63    1
     4    63    61    1
     5    61    62    1
     6    61    58    1
     7    58    59    1
     8    58     1    1
     9     1     2    1
    10     2     3    2
    11     2     4   am
    12     4     5    1
    13     5    73    1
    14    73    74    1
    15     5     6    1
    16     6     7    2
    17     6     8   am
    18     8     9    1
    19     8    10    1
    20    10    11    1
    21    11    12    2
    22    11    13   am
    23    13    14    1
    24    13    15    1
    25    15    75    1
    26    75    76    1
    27    76    77    1
    28    76    78    1
    29    15    16    1
    30    16    17    2
    31    16    18   am
    32    18    19    1
    33    19    67    1
    34    67    68    1
    35    67    69    1
    36    19    20    1
    37    20    21    2
    38    20    22   am
    39    22    23    1
    40    22    24    1
    41    24    79    1
    42    79    80    1
    43    80    81    1
    44    80    82    1
    45    24    25    1
    46    25    26    2
    47    25    27   am
    48    27    28    1
    49    28    29    1
    50    28    30    1
    51    30    31    2
    52    30    32   am
    53    32    33    1
    54    33    34    1
    55    33    35    1
    56    35    36    2
    57    35    37   am
    58    37    38    1
    59    37    39    1
    60    39    83    1
    61    83    84    1
    62    84    85    1
    63    84    86    1
    64    39    40    1
    65    40    41    2
    66    40    42   am
    67    42    43    1
    68    42    44    1
    69    44    87    1
    70    87    88    1
    71    88    89    1
    72    88    90    1
    73    44    45    1
    74    45    46    2
    75    45    47   am
    76    47    48    1
    77    47    49    1
    78    49    70    1
    79    70    71    1
    80    70    72    1
    81    49    50    1
    82    50    51    2
    83    50    52   am
    84    52    53    1
    85     1    52    1
    86    59    60    1
    87     4    54    1
    88    18    55    1
    89    27    56    1
    90    32    57    1
