@<TRIPOS>MOLECULE
*****
 35 39 0 0 0
SMALL
GASTEIGER

@<TRIPOS>ATOM
      1 N           2.2505    1.5578   32.1767 N.ar    1  UNL1       -0.2937
      2 C           1.8807    2.4288   33.3405 C.ar    1  UNL1        0.1798
      3 N           2.6756    1.9762   34.5293 N.ar    1  UNL1       -0.2195
      4 C           3.5367    0.8253   34.1002 C.ar    1  UNL1        0.1483
      5 C           4.5261   -0.0206   34.8456 C.ar    1  UNL1        0.1516
      6 N           5.2528   -1.1251   34.1370 N.ar    1  UNL1       -0.2031
      7 C           4.9900   -1.3837   32.6830 C.ar    1  UNL1        0.2094
      8 N           4.0006   -0.5377   31.9376 N.ar    1  UNL1       -0.2003
      9 C           3.2740    0.5667   32.6462 C.ar    1  UNL1        0.1678
     10 C           0.8176    2.5638   28.7126 C.3     1  UNL1        0.0977
     11 C           0.8916    4.0040   29.1255 C.3     1  UNL1        0.0136
     12 C           1.3333    2.9285   30.0732 C.3     1  UNL1        0.0344
     13 C           1.6945    1.6598   30.7873 C.3     1  UNL1        0.1180
     14 C           1.4022    0.5110   29.8681 C.3     1  UNL1        0.1582
     15 O           1.6145   -0.9414   30.1769 O.3     1  UNL1       -0.3800
     16 C           0.8602    1.0698   28.5858 C.3     1  UNL1        0.1471
     17 O           0.4354    0.2742   27.3873 O.3     1  UNL1       -0.3814
     18 H           1.3459   -1.4768   29.4139 H       1  UNL1        0.2105
     19 H           0.5641   -0.6708   27.5644 H       1  UNL1        0.2105
     20 C          -1.7819    3.1359   25.7689 C.3     1  UNL1        0.1107
     21 N          -1.2245    2.8783   27.1375 N.am    1  UNL1       -0.3026
     22 C           0.2602    2.8215   27.3440 C.2     1  UNL1        0.2240
     23 O           1.1874    3.0222   26.1821 O.2     1  UNL1       -0.2750
     24 H          -1.8330    2.7465   27.9001 H       1  UNL1        0.1495
     25 N           4.7888    0.2380   36.2996 N.pl3   1  UNL1       -0.3153
     26 C           6.1656    0.0374   36.8602 C.3     1  UNL1        0.1097
     27 H           4.0577    0.5394   36.8859 H       1  UNL1        0.1483
     28 C           5.7166   -2.4881   31.9744 C.1     1  UNL1       -0.0195
     29 C           6.4433   -3.5926   31.2658 C.1     1  UNL1       -0.0359
     30 C           7.1699   -4.6971   30.5571 C.ar    1  UNL1        0.1421
     31 C           6.7152   -5.1435   29.1992 C.ar    1  UNL1        0.1264
     32 N           7.4417   -6.2480   28.4905 N.ar    1  UNL1       -0.2385
     33 C           8.6230   -6.9061   29.1398 C.ar    1  UNL1        0.1196
     34 C           9.0777   -6.4597   30.4977 C.ar    1  UNL1        0.1202
     35 N           8.3511   -5.3551   31.2064 N.ar    1  UNL1       -0.2324
@<TRIPOS>BOND
     1    20    21    1
     2    21    22   am
     3    22    23    2
     4    10    22    1
     5    10    11    1
     6    12    11    1
     7    12    13    1
     8    13     1    1
     9     1     2   ar
    10     2     3   ar
    11     3     4   ar
    12     4     5   ar
    13     5    25    1
    14    25    26    1
    15     5     6   ar
    16     6     7   ar
    17     7    28    1
    18    28    29    3
    19    29    30    1
    20    30    31   ar
    21    31    32   ar
    22    32    33   ar
    23    33    34   ar
    24    34    35   ar
    25     7     8   ar
    26     8     9   ar
    27    13    14    1
    28    14    15    1
    29    14    16    1
    30    16    17    1
    31    12    10    1
    32     9     1   ar
    33    16    10    1
    34     9     4   ar
    35    35    30   ar
    36    21    24    1
    37    25    27    1
    38    15    18    1
    39    17    19    1
@<TRIPOS>MOLECULE
*****
 35 39 0 0 0
SMALL
GASTEIGER

@<TRIPOS>ATOM
      1 N         -14.2131   -6.9630   18.4340 N.ar    1  UNL1       -0.2937
      2 C         -12.9259   -7.7083   18.2398 C.ar    1  UNL1        0.1798
      3 N         -11.7959   -6.7485   18.4673 N.ar    1  UNL1       -0.2195
      4 C         -12.3847   -5.4101   18.8022 C.ar    1  UNL1        0.1483
      5 C         -11.7534   -4.0878   19.1232 C.ar    1  UNL1        0.1516
      6 N         -12.6162   -2.8981   19.4236 N.ar    1  UNL1       -0.2031
      7 C         -14.1102   -3.0307   19.4030 C.ar    1  UNL1        0.2094
      8 N         -14.7414   -4.3531   19.0820 N.ar    1  UNL1       -0.2003
      9 C         -13.8786   -5.5427   18.7816 C.ar    1  UNL1        0.1678
     10 C         -17.5024   -9.0227   18.4966 C.3     1  UNL1        0.0977
     11 C         -16.7984  -10.0803   19.2940 C.3     1  UNL1        0.0136
     12 C         -16.0586   -8.8484   18.8640 C.3     1  UNL1        0.0344
     13 C         -15.5927   -7.5373   18.3036 C.3     1  UNL1        0.1180
     14 C         -16.7486   -6.9014   17.5898 C.3     1  UNL1        0.1582
     15 O         -16.7279   -5.5795   16.8811 O.3     1  UNL1       -0.3800
     16 C         -17.9289   -7.8194   17.7091 C.3     1  UNL1        0.1471
     17 O         -19.2956   -7.5767   17.1407 O.3     1  UNL1       -0.3814
     18 H         -17.6037   -5.4008   16.5044 H       1  UNL1        0.2105
     19 H         -19.3062   -6.7251   16.6765 H       1  UNL1        0.2105
     20 C         -20.4617  -11.3752   17.2889 C.3     1  UNL1        0.1107
     21 N         -19.1342  -10.6783   17.3363 N.am    1  UNL1       -0.3026
     22 C         -18.8299   -9.7197   18.4492 C.2     1  UNL1        0.2240
     23 O         -19.8528   -9.4579   19.5146 O.2     1  UNL1       -0.2750
     24 H         -18.4628  -10.8500   16.6371 H       1  UNL1        0.1495
     25 N         -10.2594   -3.9552   19.1438 N.pl3   1  UNL1       -0.3153
     26 C          -9.4776   -4.0819   17.8698 C.3     1  UNL1        0.1097
     27 H          -9.7920   -3.7851   19.9933 H       1  UNL1        0.1483
     28 C         -14.9729   -1.8410   19.7034 C.1     1  UNL1       -0.0195
     29 C         -15.8357   -0.6513   20.0038 C.1     1  UNL1       -0.0359
     30 C         -16.6985    0.5384   20.3042 C.ar    1  UNL1        0.1421
     31 C         -16.2471    1.9121   19.9054 C.ar    1  UNL1        0.1264
     32 N         -17.1098    3.1018   20.2058 N.ar    1  UNL1       -0.2385
     33 C         -18.4241    2.9178   20.9050 C.ar    1  UNL1        0.1196
     34 C         -18.8756    1.5440   21.3039 C.ar    1  UNL1        0.1202
     35 N         -18.0127    0.3543   21.0034 N.ar    1  UNL1       -0.2324
@<TRIPOS>BOND
     1    20    21    1
     2    21    22   am
     3    22    23    2
     4    10    22    1
     5    10    11    1
     6    12    11    1
     7    12    13    1
     8    13     1    1
     9     1     2   ar
    10     2     3   ar
    11     3     4   ar
    12     4     5   ar
    13     5    25    1
    14    25    26    1
    15     5     6   ar
    16     6     7   ar
    17     7    28    1
    18    28    29    3
    19    29    30    1
    20    30    31   ar
    21    31    32   ar
    22    32    33   ar
    23    33    34   ar
    24    34    35   ar
    25     7     8   ar
    26     8     9   ar
    27    13    14    1
    28    14    15    1
    29    14    16    1
    30    16    17    1
    31    12    10    1
    32     9     1   ar
    33    16    10    1
    34     9     4   ar
    35    35    30   ar
    36    21    24    1
    37    25    27    1
    38    15    18    1
    39    17    19    1
@<TRIPOS>MOLECULE
*****
 35 39 0 0 0
SMALL
GASTEIGER

@<TRIPOS>ATOM
      1 N           6.9499   -4.5081   24.9104 N.ar    1  UNL1       -0.2937
      2 C           7.8217   -5.3590   24.0351 C.ar    1  UNL1        0.1798
      3 N           7.4842   -5.0518   22.6062 N.ar    1  UNL1       -0.2195
      4 C           6.4040   -4.0111   22.5983 C.ar    1  UNL1        0.1483
      5 C           5.6783   -3.3261   21.4785 C.ar    1  UNL1        0.1516
      6 N           4.6224   -2.3050   21.7826 N.ar    1  UNL1       -0.2031
      7 C           4.2922   -1.9689   23.2067 C.ar    1  UNL1        0.2094
      8 N           5.0179   -2.6540   24.3266 N.ar    1  UNL1       -0.2003
      9 C           6.0738   -3.6751   24.0224 C.ar    1  UNL1        0.1678
     10 C           7.1291   -3.7388   28.7105 C.3     1  UNL1        0.0977
     11 C           7.4600   -2.3129   28.3833 C.3     1  UNL1        0.0136
     12 C           7.2303   -3.3018   27.2792 C.3     1  UNL1        0.0344
     13 C           6.9537   -4.4929   26.4103 C.3     1  UNL1        0.1180
     14 C           6.6816   -5.6659   27.3046 C.3     1  UNL1        0.1582
     15 O           6.3579   -7.0602   26.8560 O.3     1  UNL1       -0.3800
     16 C           6.7900   -5.1999   28.7263 C.3     1  UNL1        0.1471
     17 O           6.5937   -6.0463   29.9490 O.3     1  UNL1       -0.3814
     18 H           6.2264   -7.6272   27.6320 H       1  UNL1        0.2105
     19 H           6.3828   -6.9549   29.6827 H       1  UNL1        0.2105
     20 C           6.0065   -2.8748   32.4178 C.3     1  UNL1        0.1107
     21 N           5.9673   -3.0427   30.9277 N.am    1  UNL1       -0.3026
     22 C           7.1683   -3.5710   30.2007 C.2     1  UNL1        0.2240
     23 O           8.4085   -3.9313   30.9637 O.2     1  UNL1       -0.2750
     24 H           5.1533   -2.8062   30.4269 H       1  UNL1        0.1495
     25 N           6.0086   -3.6622   20.0544 N.pl3   1  UNL1       -0.3153
     26 C           4.9084   -3.9670   19.0812 C.3     1  UNL1        0.1097
     27 H           6.9473   -3.6827   19.7584 H       1  UNL1        0.1483
     28 C           3.2364   -0.9479   23.5109 C.1     1  UNL1       -0.0195
     29 C           2.1806    0.0732   23.8152 C.1     1  UNL1       -0.0359
     30 C           1.1247    1.0943   24.1194 C.ar    1  UNL1        0.1421
     31 C           0.6885    2.0611   23.0587 C.ar    1  UNL1        0.1264
     32 N          -0.3673    3.0821   23.3629 N.ar    1  UNL1       -0.2385
     33 C          -0.9870    3.1365   24.7279 C.ar    1  UNL1        0.1196
     34 C          -0.5508    2.1697   25.7886 C.ar    1  UNL1        0.1202
     35 N           0.5051    1.1486   25.4844 N.ar    1  UNL1       -0.2324
@<TRIPOS>BOND
     1    20    21    1
     2    21    22   am
     3    22    23    2
     4    10    22    1
     5    10    11    1
     6    12    11    1
     7    12    13    1
     8    13     1    1
     9     1     2   ar
    10     2     3   ar
    11     3     4   ar
    12     4     5   ar
    13     5    25    1
    14    25    26    1
    15     5     6   ar
    16     6     7   ar
    17     7    28    1
    18    28    29    3
    19    29    30    1
    20    30    31   ar
    21    31    32   ar
    22    32    33   ar
    23    33    34   ar
    24    34    35   ar
    25     7     8   ar
    26     8     9   ar
    27    13    14    1
    28    14    15    1
    29    14    16    1
    30    16    17    1
    31    12    10    1
    32     9     1   ar
    33    16    10    1
    34     9     4   ar
    35    35    30   ar
    36    21    24    1
    37    25    27    1
    38    15    18    1
    39    17    19    1
@<TRIPOS>MOLECULE
*****
 35 39 0 0 0
SMALL
GASTEIGER

@<TRIPOS>ATOM
      1 N          -0.9672    3.0826   24.9506 N.ar    1  UNL1       -0.2937
      2 C          -2.0986    4.0672   24.9279 C.ar    1  UNL1        0.1798
      3 N          -2.5342    4.2400   23.5030 N.ar    1  UNL1       -0.2195
      4 C          -1.6720    3.3622   22.6450 C.ar    1  UNL1        0.1483
      5 C          -1.6437    3.1219   21.1647 C.ar    1  UNL1        0.1516
      6 N          -0.6468    2.1662   20.5790 N.ar    1  UNL1       -0.2031
      7 C           0.3216    1.4508   21.4736 C.ar    1  UNL1        0.2094
      8 N           0.2932    1.6912   22.9540 N.ar    1  UNL1       -0.2003
      9 C          -0.7036    2.6469   23.5397 C.ar    1  UNL1        0.1678
     10 C           0.3542    1.4124   28.1955 C.3     1  UNL1        0.0977
     11 C          -0.8804    0.5614   28.2333 C.3     1  UNL1        0.0136
     12 C          -0.6894    1.5570   27.1278 C.3     1  UNL1        0.0344
     13 C          -0.2291    2.6157   26.1700 C.3     1  UNL1        0.1180
     14 C           1.0990    3.1254   26.6458 C.3     1  UNL1        0.1582
     15 O           1.9221    4.1916   25.9856 O.3     1  UNL1       -0.3800
     16 C           1.4595    2.3818   27.8977 C.3     1  UNL1        0.1471
     17 O           2.7063    2.5737   28.7091 O.3     1  UNL1       -0.3814
     18 H           2.7358    4.3333   26.4943 H       1  UNL1        0.2105
     19 H           3.2557    3.2606   28.3001 H       1  UNL1        0.2105
     20 C           2.6298   -0.7966   30.5813 C.3     1  UNL1        0.1107
     21 N           2.0112   -0.2309   29.3373 N.am    1  UNL1       -0.3026
     22 C           0.9728    0.8467   29.4395 C.2     1  UNL1        0.2240
     23 O           0.5530    1.3587   30.7855 O.2     1  UNL1       -0.2750
     24 H           2.2867   -0.5669   28.4539 H       1  UNL1        0.1495
     25 N          -2.6121    3.8372   20.2700 N.pl3   1  UNL1       -0.3153
     26 C          -4.0506    3.4135   20.2310 C.3     1  UNL1        0.1097
     27 H          -2.3037    4.5847   19.7085 H       1  UNL1        0.1483
     28 C           1.3184    0.4952   20.8880 C.1     1  UNL1       -0.0195
     29 C           2.3153   -0.4605   20.3023 C.1     1  UNL1       -0.0359
     30 C           3.3122   -1.4161   19.7166 C.ar    1  UNL1        0.1421
     31 C           3.8309   -1.1999   18.3259 C.ar    1  UNL1        0.1264
     32 N           4.8277   -2.1555   17.7402 N.ar    1  UNL1       -0.2385
     33 C           5.3059   -3.3274   18.5452 C.ar    1  UNL1        0.1196
     34 C           4.7872   -3.5437   19.9360 C.ar    1  UNL1        0.1202
     35 N           3.7903   -2.5880   20.5217 N.ar    1  UNL1       -0.2324
@<TRIPOS>BOND
     1    20    21    1
     2    21    22   am
     3    22    23    2
     4    10    22    1
     5    10    11    1
     6    12    11    1
     7    12    13    1
     8    13     1    1
     9     1     2   ar
    10     2     3   ar
    11     3     4   ar
    12     4     5   ar
    13     5    25    1
    14    25    26    1
    15     5     6   ar
    16     6     7   ar
    17     7    28    1
    18    28    29    3
    19    29    30    1
    20    30    31   ar
    21    31    32   ar
    22    32    33   ar
    23    33    34   ar
    24    34    35   ar
    25     7     8   ar
    26     8     9   ar
    27    13    14    1
    28    14    15    1
    29    14    16    1
    30    16    17    1
    31    12    10    1
    32     9     1   ar
    33    16    10    1
    34     9     4   ar
    35    35    30   ar
    36    21    24    1
    37    25    27    1
    38    15    18    1
    39    17    19    1
@<TRIPOS>MOLECULE
*****
 35 39 0 0 0
SMALL
GASTEIGER

@<TRIPOS>ATOM
      1 N           6.8132   -4.0488   30.6759 N.ar    1  UNL1       -0.2937
      2 C           7.3994   -5.0137   31.6634 C.ar    1  UNL1        0.1798
      3 N           7.9512   -6.1808   30.8994 N.ar    1  UNL1       -0.2195
      4 C           7.7060   -5.9370   29.4398 C.ar    1  UNL1        0.1483
      5 C           8.0324   -6.7447   28.2187 C.ar    1  UNL1        0.1516
      6 N           7.6554   -6.2347   26.8593 N.ar    1  UNL1       -0.2031
      7 C           6.9521   -4.9170   26.7211 C.ar    1  UNL1        0.2094
      8 N           6.6258   -4.1093   27.9423 N.ar    1  UNL1       -0.2003
      9 C           7.0027   -4.6193   29.3016 C.ar    1  UNL1        0.1678
     10 C           4.8295   -1.0416   32.1207 C.3     1  UNL1        0.0977
     11 C           4.3634   -1.9184   33.2449 C.3     1  UNL1        0.0136
     12 C           5.2665   -2.4752   32.1846 C.3     1  UNL1        0.0344
     13 C           6.1534   -2.7425   31.0048 C.3     1  UNL1        0.1180
     14 C           6.2646   -1.4742   30.2117 C.3     1  UNL1        0.1582
     15 O           7.0551   -1.2894   28.9504 O.3     1  UNL1       -0.3800
     16 C           5.4464   -0.4229   30.9013 C.3     1  UNL1        0.1471
     17 O           5.2751    0.9974   30.4508 O.3     1  UNL1       -0.3814
     18 H           6.9591   -0.3756   28.6395 H       1  UNL1        0.2105
     19 H           5.7789    1.1406   29.6344 H       1  UNL1        0.2105
     20 C           2.0151    1.7297   32.5068 C.3     1  UNL1        0.1107
     21 N           2.7358    0.4951   32.0522 N.am    1  UNL1       -0.3026
     22 C           4.1088    0.1929   32.5753 C.2     1  UNL1        0.2240
     23 O           4.7610    1.1250   33.5529 O.2     1  UNL1       -0.2750
     24 H           2.3077   -0.1167   31.4106 H       1  UNL1        0.1495
     25 N           8.7357   -8.0624   28.3569 N.pl3   1  UNL1       -0.3153
     26 C           8.2711   -9.2473   27.5631 C.3     1  UNL1        0.1097
     27 H           9.5022   -8.1495   28.9686 H       1  UNL1        0.1483
     28 C           6.5751   -4.4070   25.3618 C.1     1  UNL1       -0.0195
     29 C           6.1982   -3.8970   24.0025 C.1     1  UNL1       -0.0359
     30 C           5.8212   -3.3869   22.6432 C.ar    1  UNL1        0.1421
     31 C           6.3544   -2.0700   22.1619 C.ar    1  UNL1        0.1264
     32 N           5.9775   -1.5599   20.8026 N.ar    1  UNL1       -0.2385
     33 C           5.0673   -2.3667   19.9245 C.ar    1  UNL1        0.1196
     34 C           4.5341   -3.6835   20.4059 C.ar    1  UNL1        0.1202
     35 N           4.9111   -4.1936   21.7652 N.ar    1  UNL1       -0.2324
@<TRIPOS>BOND
     1    20    21    1
     2    21    22   am
     3    22    23    2
     4    10    22    1
     5    10    11    1
     6    12    11    1
     7    12    13    1
     8    13     1    1
     9     1     2   ar
    10     2     3   ar
    11     3     4   ar
    12     4     5   ar
    13     5    25    1
    14    25    26    1
    15     5     6   ar
    16     6     7   ar
    17     7    28    1
    18    28    29    3
    19    29    30    1
    20    30    31   ar
    21    31    32   ar
    22    32    33   ar
    23    33    34   ar
    24    34    35   ar
    25     7     8   ar
    26     8     9   ar
    27    13    14    1
    28    14    15    1
    29    14    16    1
    30    16    17    1
    31    12    10    1
    32     9     1   ar
    33    16    10    1
    34     9     4   ar
    35    35    30   ar
    36    21    24    1
    37    25    27    1
    38    15    18    1
    39    17    19    1
@<TRIPOS>MOLECULE
*****
 35 39 0 0 0
SMALL
GASTEIGER

@<TRIPOS>ATOM
      1 N           4.1822   -0.2177   32.9585 N.ar    1  UNL1       -0.2937
      2 C           3.9186    0.3317   34.3291 C.ar    1  UNL1        0.1798
      3 N           2.8978    1.4234   34.2024 N.ar    1  UNL1       -0.2195
      4 C           2.5305    1.5487   32.7535 C.ar    1  UNL1        0.1483
      5 C           1.5758    2.4554   32.0349 C.ar    1  UNL1        0.1516
      6 N           1.4148    2.3478   30.5474 N.ar    1  UNL1       -0.2031
      7 C           2.2086    1.3335   29.7786 C.ar    1  UNL1        0.2094
      8 N           3.1634    0.4268   30.4972 N.ar    1  UNL1       -0.2003
      9 C           3.3243    0.5345   31.9847 C.ar    1  UNL1        0.1678
     10 C           7.0598   -2.5346   31.7683 C.3     1  UNL1        0.0977
     11 C           7.7527   -1.3379   31.1872 C.3     1  UNL1        0.0136
     12 C           6.4341   -1.1763   31.8836 C.3     1  UNL1        0.0344
     13 C           5.1362   -1.3249   32.6208 C.3     1  UNL1        0.1180
     14 C           4.9598   -2.7751   32.9611 C.3     1  UNL1        0.1582
     15 O           3.7984   -3.3728   33.6987 O.3     1  UNL1       -0.3800
     16 C           6.1487   -3.5228   32.4342 C.3     1  UNL1        0.1471
     17 O           6.3849   -4.9993   32.5524 O.3     1  UNL1       -0.3814
     18 H           3.9296   -4.3298   33.7874 H       1  UNL1        0.2105
     19 H           5.6446   -5.4082   33.0273 H       1  UNL1        0.2105
     20 C           8.9861   -5.3107   29.6866 C.3     1  UNL1        0.1107
     21 N           7.9421   -4.3128   30.0920 N.am    1  UNL1       -0.3026
     22 C           8.1039   -3.5325   31.3629 C.2     1  UNL1        0.2240
     23 O           9.3095   -3.7501   32.2283 O.2     1  UNL1       -0.2750
     24 H           7.1507   -4.1699   29.5240 H       1  UNL1        0.1495
     25 N           0.7820    3.4697   32.8037 N.pl3   1  UNL1       -0.3153
     26 C           1.1004    4.9295   32.6699 C.3     1  UNL1        0.1097
     27 H           0.0520    3.1774   33.3962 H       1  UNL1        0.1483
     28 C           2.0477    1.2259   28.2911 C.1     1  UNL1       -0.0195
     29 C           1.8868    1.1183   26.8037 C.1     1  UNL1       -0.0359
     30 C           1.7259    1.0106   25.3162 C.ar    1  UNL1        0.1421
     31 C           0.6116    1.7413   24.6276 C.ar    1  UNL1        0.1264
     32 N           0.4506    1.6337   23.1401 N.ar    1  UNL1       -0.2385
     33 C           1.4041    0.7952   22.3413 C.ar    1  UNL1        0.1196
     34 C           2.5184    0.0645   23.0300 C.ar    1  UNL1        0.1202
     35 N           2.6793    0.1722   24.5175 N.ar    1  UNL1       -0.2324
@<TRIPOS>BOND
     1    20    21    1
     2    21    22   am
     3    22    23    2
     4    10    22    1
     5    10    11    1
     6    12    11    1
     7    12    13    1
     8    13     1    1
     9     1     2   ar
    10     2     3   ar
    11     3     4   ar
    12     4     5   ar
    13     5    25    1
    14    25    26    1
    15     5     6   ar
    16     6     7   ar
    17     7    28    1
    18    28    29    3
    19    29    30    1
    20    30    31   ar
    21    31    32   ar
    22    32    33   ar
    23    33    34   ar
    24    34    35   ar
    25     7     8   ar
    26     8     9   ar
    27    13    14    1
    28    14    15    1
    29    14    16    1
    30    16    17    1
    31    12    10    1
    32     9     1   ar
    33    16    10    1
    34     9     4   ar
    35    35    30   ar
    36    21    24    1
    37    25    27    1
    38    15    18    1
    39    17    19    1
@<TRIPOS>MOLECULE
*****
 35 39 0 0 0
SMALL
GASTEIGER

@<TRIPOS>ATOM
      1 N           4.8125   -0.1003   34.1884 N.ar    1  UNL1       -0.2937
      2 C           4.9866    0.2490   35.6367 C.ar    1  UNL1        0.1798
      3 N           4.0188    1.3459   35.9685 N.ar    1  UNL1       -0.2195
      4 C           3.2466    1.6745   34.7253 C.ar    1  UNL1        0.1483
      5 C           2.1601    2.6722   34.4529 C.ar    1  UNL1        0.1516
      6 N           1.5641    2.7761   33.0802 N.ar    1  UNL1       -0.2031
      7 C           2.0547    1.8823   31.9800 C.ar    1  UNL1        0.2094
      8 N           3.1412    0.8846   32.2525 N.ar    1  UNL1       -0.2003
      9 C           3.7371    0.7807   33.6251 C.ar    1  UNL1        0.1678
     10 C           7.3183   -2.2696   32.1683 C.3     1  UNL1        0.0977
     11 C           8.2529   -1.0977   32.1124 C.3     1  UNL1        0.0136
     12 C           6.9347   -0.9727   32.8173 C.3     1  UNL1        0.0344
     13 C           5.5792   -1.1469   33.4355 C.3     1  UNL1        0.1180
     14 C           5.1250   -2.5514   33.1687 C.3     1  UNL1        0.1582
     15 O           3.8243   -3.1558   33.6079 O.3     1  UNL1       -0.3800
     16 C           6.1998   -3.2453   32.3855 C.3     1  UNL1        0.1471
     17 O           6.1627   -4.6653   31.9041 O.3     1  UNL1       -0.3814
     18 H           3.7778   -4.0768   33.3069 H       1  UNL1        0.2105
     19 H           5.3282   -5.0776   32.1772 H       1  UNL1        0.2105
     20 C           8.8779   -4.3187   29.1485 C.3     1  UNL1        0.1107
     21 N           7.9984   -3.3797   29.9200 N.am    1  UNL1       -0.3026
     22 C           8.1977   -3.2085   31.3968 C.2     1  UNL1        0.2240
     23 O           9.2763   -3.9761   32.1022 O.2     1  UNL1       -0.2750
     24 H           7.2905   -2.8760   29.4571 H       1  UNL1        0.1495
     25 N           1.6695    3.5660   35.5531 N.pl3   1  UNL1       -0.3153
     26 C           2.5078    4.7234   36.0091 C.3     1  UNL1        0.1097
     27 H           0.7974    3.3931   35.9759 H       1  UNL1        0.1483
     28 C           1.4588    1.9861   30.6074 C.1     1  UNL1       -0.0195
     29 C           0.8629    2.0899   29.2348 C.1     1  UNL1       -0.0359
     30 C           0.2670    2.1938   27.8621 C.ar    1  UNL1        0.1421
     31 C          -0.7747    3.2338   27.5735 C.ar    1  UNL1        0.1264
     32 N          -1.3706    3.3378   26.2009 N.ar    1  UNL1       -0.2385
     33 C          -0.9248    2.4016   25.1169 C.ar    1  UNL1        0.1196
     34 C           0.1168    1.3616   25.4055 C.ar    1  UNL1        0.1202
     35 N           0.7127    1.2577   26.7782 N.ar    1  UNL1       -0.2324
@<TRIPOS>BOND
     1    20    21    1
     2    21    22   am
     3    22    23    2
     4    10    22    1
     5    10    11    1
     6    12    11    1
     7    12    13    1
     8    13     1    1
     9     1     2   ar
    10     2     3   ar
    11     3     4   ar
    12     4     5   ar
    13     5    25    1
    14    25    26    1
    15     5     6   ar
    16     6     7   ar
    17     7    28    1
    18    28    29    3
    19    29    30    1
    20    30    31   ar
    21    31    32   ar
    22    32    33   ar
    23    33    34   ar
    24    34    35   ar
    25     7     8   ar
    26     8     9   ar
    27    13    14    1
    28    14    15    1
    29    14    16    1
    30    16    17    1
    31    12    10    1
    32     9     1   ar
    33    16    10    1
    34     9     4   ar
    35    35    30   ar
    36    21    24    1
    37    25    27    1
    38    15    18    1
    39    17    19    1
@<TRIPOS>MOLECULE
*****
 35 39 0 0 0
SMALL
GASTEIGER

@<TRIPOS>ATOM
      1 N           6.3565   -3.8377   24.0260 N.ar    1  UNL1       -0.2937
      2 C           6.9740   -4.5845   22.8810 C.ar    1  UNL1        0.1798
      3 N           6.3003   -4.1360   21.6180 N.ar    1  UNL1       -0.2195
      4 C           5.2665   -3.1121   21.9825 C.ar    1  UNL1        0.1483
      5 C           4.2980   -2.3238   21.1515 C.ar    1  UNL1        0.1516
      6 N           3.3641   -1.3511   21.8087 N.ar    1  UNL1       -0.2031
      7 C           3.3989   -1.1668   23.2970 C.ar    1  UNL1        0.2094
      8 N           4.3675   -1.9551   24.1279 N.ar    1  UNL1       -0.2003
      9 C           5.3012   -2.9278   23.4707 C.ar    1  UNL1        0.1678
     10 C           7.3118   -4.9365   27.6239 C.3     1  UNL1        0.0977
     11 C           7.2536   -6.3675   27.1781 C.3     1  UNL1        0.0136
     12 C           6.9637   -5.2657   26.2025 C.3     1  UNL1        0.0344
     13 C           6.7289   -3.9766   25.4724 C.3     1  UNL1        0.1180
     14 C           6.9319   -2.8507   26.4425 C.3     1  UNL1        0.1582
     15 O           6.7982   -1.3883   26.1366 O.3     1  UNL1       -0.3800
     16 C           7.2922   -3.4440   27.7723 C.3     1  UNL1        0.1471
     17 O           7.5819   -2.6791   29.0296 O.3     1  UNL1       -0.3814
     18 H           6.9816   -0.8724   26.9373 H       1  UNL1        0.2105
     19 H           7.5012   -1.7282   28.8555 H       1  UNL1        0.2105
     20 C           6.9846   -5.7583   31.4928 C.3     1  UNL1        0.1107
     21 N           6.6122   -5.4642   30.0698 N.am    1  UNL1       -0.3026
     22 C           7.6843   -5.2306   29.0470 C.2     1  UNL1        0.2240
     23 O           9.1286   -5.2911   29.4470 O.2     1  UNL1       -0.2750
     24 H           5.6642   -5.4245   29.8071 H       1  UNL1        0.1495
     25 N           4.2633   -2.5082   19.6633 N.pl3   1  UNL1       -0.3153
     26 C           3.6767   -3.7576   19.0758 C.3     1  UNL1        0.1097
     27 H           4.6254   -1.8092   19.0721 H       1  UNL1        0.1483
     28 C           2.4651   -0.1942   23.9542 C.1     1  UNL1       -0.0195
     29 C           1.5313    0.7785   24.6115 C.1     1  UNL1       -0.0359
     30 C           0.5975    1.7511   25.2687 C.ar    1  UNL1        0.1421
     31 C           0.3624    3.0984   24.6527 C.ar    1  UNL1        0.1264
     32 N          -0.5714    4.0710   25.3099 N.ar    1  UNL1       -0.2385
     33 C          -1.2702    3.6964   26.5833 C.ar    1  UNL1        0.1196
     34 C          -1.0351    2.3491   27.1994 C.ar    1  UNL1        0.1202
     35 N          -0.1012    1.3764   26.5421 N.ar    1  UNL1       -0.2324
@<TRIPOS>BOND
     1    20    21    1
     2    21    22   am
     3    22    23    2
     4    10    22    1
     5    10    11    1
     6    12    11    1
     7    12    13    1
     8    13     1    1
     9     1     2   ar
    10     2     3   ar
    11     3     4   ar
    12     4     5   ar
    13     5    25    1
    14    25    26    1
    15     5     6   ar
    16     6     7   ar
    17     7    28    1
    18    28    29    3
    19    29    30    1
    20    30    31   ar
    21    31    32   ar
    22    32    33   ar
    23    33    34   ar
    24    34    35   ar
    25     7     8   ar
    26     8     9   ar
    27    13    14    1
    28    14    15    1
    29    14    16    1
    30    16    17    1
    31    12    10    1
    32     9     1   ar
    33    16    10    1
    34     9     4   ar
    35    35    30   ar
    36    21    24    1
    37    25    27    1
    38    15    18    1
    39    17    19    1
@<TRIPOS>MOLECULE
*****
 35 39 0 0 0
SMALL
GASTEIGER

@<TRIPOS>ATOM
      1 N           5.6014   -1.7389   29.3763 N.ar    1  UNL1       -0.2937
      2 C           6.4086   -2.0297   30.6067 C.ar    1  UNL1        0.1798
      3 N           7.5348   -2.9408   30.2176 N.ar    1  UNL1       -0.2195
      4 C           7.4237   -3.2132   28.7467 C.ar    1  UNL1        0.1483
      5 C           8.2562   -4.0416   27.8137 C.ar    1  UNL1        0.1516
      6 N           7.8938   -4.1272   26.3606 N.ar    1  UNL1       -0.2031
      7 C           6.6988   -3.3843   25.8406 C.ar    1  UNL1        0.2094
      8 N           5.8663   -2.5559   26.7738 N.ar    1  UNL1       -0.2003
      9 C           6.2288   -2.4703   28.2268 C.ar    1  UNL1        0.1678
     10 C           2.7460    0.8564   29.7961 C.3     1  UNL1        0.0977
     11 C           3.4745    1.4339   30.9733 C.3     1  UNL1        0.0136
     12 C           4.0566    0.2690   30.2289 C.3     1  UNL1        0.0344
     13 C           4.3811   -0.8694   29.3075 C.3     1  UNL1        0.1180
     14 C           3.2711   -0.9854   28.3053 C.3     1  UNL1        0.1582
     15 O           3.1866   -1.9915   27.1959 O.3     1  UNL1       -0.3800
     16 C           2.2605    0.0812   28.6072 C.3     1  UNL1        0.1471
     17 O           0.9880    0.3290   27.8528 O.3     1  UNL1       -0.3814
     18 H           2.3693   -1.8502   26.6929 H       1  UNL1        0.2105
     19 H           0.9116   -0.3116   27.1285 H       1  UNL1        0.2105
     20 C           0.4946    4.0705   29.2037 C.3     1  UNL1        0.1107
     21 N           1.6575    3.1247   29.1479 N.am    1  UNL1       -0.3026
     22 C           1.5830    1.8022   29.8519 C.2     1  UNL1        0.2240
     23 O           0.3458    1.4256   30.6118 O.2     1  UNL1       -0.2750
     24 H           2.4696    3.3718   28.6492 H       1  UNL1        0.1495
     25 N           9.4511   -4.7844   28.3336 N.pl3   1  UNL1       -0.3153
     26 C           9.4457   -6.2841   28.3672 C.3     1  UNL1        0.1097
     27 H          10.2389   -4.2877   28.6528 H       1  UNL1        0.1483
     28 C           6.3364   -3.4699   24.3876 C.1     1  UNL1       -0.0195
     29 C           5.9740   -3.5555   22.9346 C.1     1  UNL1       -0.0359
     30 C           5.6115   -3.6411   21.4815 C.ar    1  UNL1        0.1421
     31 C           6.4041   -2.8746   20.4645 C.ar    1  UNL1        0.1264
     32 N           6.0417   -2.9602   19.0115 N.ar    1  UNL1       -0.2385
     33 C           4.8868   -3.8123   18.5754 C.ar    1  UNL1        0.1196
     34 C           4.0942   -4.5788   19.5924 C.ar    1  UNL1        0.1202
     35 N           4.4567   -4.4932   21.0455 N.ar    1  UNL1       -0.2324
@<TRIPOS>BOND
     1    20    21    1
     2    21    22   am
     3    22    23    2
     4    10    22    1
     5    10    11    1
     6    12    11    1
     7    12    13    1
     8    13     1    1
     9     1     2   ar
    10     2     3   ar
    11     3     4   ar
    12     4     5   ar
    13     5    25    1
    14    25    26    1
    15     5     6   ar
    16     6     7   ar
    17     7    28    1
    18    28    29    3
    19    29    30    1
    20    30    31   ar
    21    31    32   ar
    22    32    33   ar
    23    33    34   ar
    24    34    35   ar
    25     7     8   ar
    26     8     9   ar
    27    13    14    1
    28    14    15    1
    29    14    16    1
    30    16    17    1
    31    12    10    1
    32     9     1   ar
    33    16    10    1
    34     9     4   ar
    35    35    30   ar
    36    21    24    1
    37    25    27    1
    38    15    18    1
    39    17    19    1
