@<TRIPOS>MOLECULE
*****
 35 39 0 0 0
SMALL
GASTEIGER

@<TRIPOS>ATOM
      1 C           6.5759   -3.5360   23.1190 C.ar    1  UNL1        0.0375
      2 C           6.7370   -2.0722   22.8342 C.ar    1  UNL1        0.0179
      3 C           5.8873   -1.7351   21.6450 C.ar    1  UNL1        0.0657
      4 N           5.2009   -2.9906   21.1948 N.ar    1  UNL1       -0.2630
      5 C           5.6265   -4.1037   22.1059 C.ar    1  UNL1        0.0854
      6 C           4.3512   -2.6536   20.0056 C.2     1  UNL1        0.3236
      7 O           3.4913   -3.6121   19.2363 O.2     1  UNL1       -0.2489
      8 N           4.5123   -1.1897   19.7207 N.am    1  UNL1       -0.2514
      9 C           5.4617   -0.6221   20.7339 C.3     1  UNL1        0.1398
     10 C           7.1407   -5.4450   26.5523 C.ar    1  UNL1        0.2218
     11 N           8.5872   -5.8233   26.4317 N.ar    1  UNL1       -0.2111
     12 C           9.3632   -5.4392   25.2068 C.ar    1  UNL1        0.1147
     13 C           8.6928   -4.6767   24.1026 C.ar    1  UNL1        0.0945
     14 CL          9.4689   -4.2927   22.8778 Cl      1  UNL1       -0.0790
     15 C           7.2463   -4.2984   24.2232 C.ar    1  UNL1        0.0977
     16 N           6.4703   -4.6826   25.4481 N.ar    1  UNL1       -0.2126
     17 N           6.3647   -5.8290   27.7771 N.pl3   1  UNL1       -0.2681
     18 H           5.6905   -6.5448   27.7283 H       1  UNL1        0.1565
     19 C           6.0031   -2.6321   28.3232 C.3     1  UNL1        0.1552
     20 N           6.4496   -3.6531   29.3273 N.ar    1  UNL1       -0.2355
     21 N           6.8082   -3.3840   30.7587 N.ar    1  UNL1       -0.1665
     22 C           7.1960   -4.6871   31.3924 C.ar    1  UNL1        0.1230
     23 C           7.0771   -5.7616   30.3526 C.ar    1  UNL1        0.0565
     24 C           6.6157   -5.1226   29.0763 C.ar    1  UNL1        0.1328
     25 C           3.8419   -0.4273   18.6166 C.3     1  UNL1        0.1292
     26 C           2.6310    0.4082   18.9097 C.ar    1  UNL1       -0.0009
     27 C           1.5182   -0.1513   19.7454 C.ar    1  UNL1       -0.0025
     28 C           0.3073    0.6842   20.0386 C.ar    1  UNL1        0.0006
     29 C           0.2094    2.0791   19.4960 C.ar    1  UNL1        0.0114
     30 C           1.3223    2.6386   18.6602 C.ar    1  UNL1        0.0574
     31 CL          1.2244    4.0336   18.1176 Cl      1  UNL1       -0.0823
     32 C           2.5331    1.8031   18.3671 C.ar    1  UNL1        0.0088
     33 C           4.3822   -0.5004   17.2192 C.3     1  UNL1        0.1614
     34 O           3.7034   -1.3628   16.1966 O.3     1  UNL1       -0.3799
     35 H           3.7880   -2.2947   16.4522 H       1  UNL1        0.2105
@<TRIPOS>BOND
     1    19    20    1
     2    20    21   ar
     3    21    22   ar
     4    22    23   ar
     5    23    24   ar
     6    24    17    1
     7    17    10    1
     8    10    11   ar
     9    11    12   ar
    10    12    13   ar
    11    13    14    1
    12    13    15   ar
    13    15     1    1
    14     1     2   ar
    15     2     3   ar
    16     3     4   ar
    17     4     5   ar
    18     4     6   am
    19     6     7    2
    20     6     8   am
    21     8    25    1
    22    25    33    1
    23    33    34    1
    24    25    26    1
    25    26    27   ar
    26    27    28   ar
    27    28    29   ar
    28    29    30   ar
    29    30    31    1
    30    30    32   ar
    31     8     9    1
    32    15    16   ar
    33    24    20   ar
    34    16    10   ar
    35     5     1   ar
    36    32    26   ar
    37     9     3    1
    38    17    18    1
    39    34    35    1
@<TRIPOS>MOLECULE
*****
 35 39 0 0 0
SMALL
GASTEIGER

@<TRIPOS>ATOM
      1 C           1.0276    1.1897   19.8753 C.ar    1  UNL1        0.0375
      2 C           1.4603    0.2356   20.9488 C.ar    1  UNL1        0.0179
      3 C           2.4531   -0.7162   20.3502 C.ar    1  UNL1        0.0657
      4 N           2.6341   -0.3503   18.9068 N.ar    1  UNL1       -0.2630
      5 C           1.7530    0.8276   18.6133 C.ar    1  UNL1        0.0854
      6 C           3.6270   -1.3021   18.3082 C.2     1  UNL1        0.3236
      7 O           4.1035   -1.3001   16.8859 O.2     1  UNL1       -0.2489
      8 N           4.0597   -2.2563   19.3818 N.am    1  UNL1       -0.2514
      9 C           3.3342   -1.8941   20.6437 C.3     1  UNL1        0.1398
     10 C          -2.3722    3.1274   20.5365 C.ar    1  UNL1        0.2218
     11 N          -1.9281    4.5488   20.3562 N.ar    1  UNL1       -0.2111
     12 C          -0.4988    4.8504   20.0157 C.ar    1  UNL1        0.1147
     13 C           0.4865    3.7308   19.8553 C.ar    1  UNL1        0.0945
     14 CL          1.9158    4.0325   19.5147 Cl      1  UNL1       -0.0790
     15 C           0.0424    2.3094   20.0356 C.ar    1  UNL1        0.0977
     16 N          -1.3869    2.0078   20.3762 N.ar    1  UNL1       -0.2126
     17 N          -3.8015    2.8257   20.8771 N.pl3   1  UNL1       -0.2681
     18 H          -4.0119    2.1915   21.6001 H       1  UNL1        0.1565
     19 C          -6.4421    4.2366   22.1755 C.3     1  UNL1        0.1552
     20 N          -6.1240    4.1387   20.7129 N.ar    1  UNL1       -0.2355
     21 N          -6.9638    4.6721   19.5903 N.ar    1  UNL1       -0.1665
     22 C          -6.2691    4.3532   18.2997 C.ar    1  UNL1        0.1230
     23 C          -5.0000    3.6227   18.6246 C.ar    1  UNL1        0.0565
     24 C          -4.9103    3.4901   20.1161 C.ar    1  UNL1        0.1328
     25 C           5.0448   -3.3759   19.2214 C.3     1  UNL1        0.1292
     26 C           6.4934   -3.1519   19.5404 C.ar    1  UNL1       -0.0009
     27 C           7.2830   -2.1367   18.7687 C.ar    1  UNL1       -0.0025
     28 C           8.7315   -1.9127   19.0877 C.ar    1  UNL1        0.0006
     29 C           9.3903   -2.7040   20.1785 C.ar    1  UNL1        0.0114
     30 C           8.6006   -3.7193   20.9502 C.ar    1  UNL1        0.0574
     31 CL          9.2593   -4.5106   22.0410 Cl      1  UNL1       -0.0823
     32 C           7.1521   -3.9432   20.6312 C.ar    1  UNL1        0.0088
     33 C           4.5816   -4.7197   18.7421 C.3     1  UNL1        0.1614
     34 O           3.9010   -5.6609   19.6912 O.3     1  UNL1       -0.3799
     35 H           4.5291   -5.9404   20.3755 H       1  UNL1        0.2105
@<TRIPOS>BOND
     1    19    20    1
     2    20    21   ar
     3    21    22   ar
     4    22    23   ar
     5    23    24   ar
     6    24    17    1
     7    17    10    1
     8    10    11   ar
     9    11    12   ar
    10    12    13   ar
    11    13    14    1
    12    13    15   ar
    13    15     1    1
    14     1     2   ar
    15     2     3   ar
    16     3     4   ar
    17     4     5   ar
    18     4     6   am
    19     6     7    2
    20     6     8   am
    21     8    25    1
    22    25    33    1
    23    33    34    1
    24    25    26    1
    25    26    27   ar
    26    27    28   ar
    27    28    29   ar
    28    29    30   ar
    29    30    31    1
    30    30    32   ar
    31     8     9    1
    32    15    16   ar
    33    24    20   ar
    34    16    10   ar
    35     5     1   ar
    36    32    26   ar
    37     9     3    1
    38    17    18    1
    39    34    35    1
@<TRIPOS>MOLECULE
*****
 35 39 0 0 0
SMALL
GASTEIGER

@<TRIPOS>ATOM
      1 C           0.7414    1.5874   19.9229 C.ar    1  UNL1        0.0375
      2 C           1.4155    0.7844   20.9957 C.ar    1  UNL1        0.0179
      3 C           2.4315   -0.1036   20.3406 C.ar    1  UNL1        0.0657
      4 N           2.3853    0.1505   18.8630 N.ar    1  UNL1       -0.2630
      5 C           1.3408    1.1956   18.6049 C.ar    1  UNL1        0.0854
      6 C           3.4013   -0.7376   18.2080 C.2     1  UNL1        0.3236
      7 O           3.6921   -0.8099   16.7382 O.2     1  UNL1       -0.2489
      8 N           4.0755   -1.5406   19.2808 N.am    1  UNL1       -0.2514
      9 C           3.4760   -1.1487   20.5988 C.3     1  UNL1        0.1398
     10 C          -2.8190    3.1738   20.6693 C.ar    1  UNL1        0.2218
     11 N          -2.5086    4.6364   20.5488 N.ar    1  UNL1       -0.2111
     12 C          -1.1148    5.0826   20.2197 C.ar    1  UNL1        0.1147
     13 C          -0.0314    4.0663   20.0111 C.ar    1  UNL1        0.0945
     14 CL          1.3623    4.5126   19.6820 Cl      1  UNL1       -0.0790
     15 C          -0.3419    2.6037   20.1315 C.ar    1  UNL1        0.0977
     16 N          -1.7356    2.1575   20.4606 N.ar    1  UNL1       -0.2126
     17 N          -4.2127    2.7275   20.9984 N.pl3   1  UNL1       -0.2681
     18 H          -4.6402    2.0169   20.4678 H       1  UNL1        0.1565
     19 C          -6.7534    4.7583   20.7333 C.3     1  UNL1        0.1552
     20 N          -6.1230    4.2973   22.0140 N.ar    1  UNL1       -0.2355
     21 N          -6.5497    4.6889   23.3977 N.ar    1  UNL1       -0.1665
     22 C          -5.6456    3.9974   24.3747 C.ar    1  UNL1        0.1230
     23 C          -4.6601    3.1785   23.5948 C.ar    1  UNL1        0.0565
     24 C          -4.9552    3.3639   22.1358 C.ar    1  UNL1        0.1328
     25 C           5.1587   -2.5569   19.0721 C.3     1  UNL1        0.1292
     26 C           6.5917   -2.1867   19.3167 C.ar    1  UNL1       -0.0009
     27 C           7.4898   -3.1221   20.0704 C.ar    1  UNL1       -0.0025
     28 C           8.9227   -2.7520   20.3150 C.ar    1  UNL1        0.0006
     29 C           9.4574   -1.4464   19.8057 C.ar    1  UNL1        0.0114
     30 C           8.5593   -0.5109   19.0519 C.ar    1  UNL1        0.0574
     31 CL          9.0940    0.7947   18.5426 Cl      1  UNL1       -0.0823
     32 C           7.1264   -0.8811   18.8074 C.ar    1  UNL1        0.0088
     33 C           4.8091   -3.9434   18.6189 C.3     1  UNL1        0.1614
     34 O           3.3798   -4.3981   18.6300 O.3     1  UNL1       -0.3799
     35 H           3.0613   -4.4415   19.5453 H       1  UNL1        0.2105
@<TRIPOS>BOND
     1    19    20    1
     2    20    21   ar
     3    21    22   ar
     4    22    23   ar
     5    23    24   ar
     6    24    17    1
     7    17    10    1
     8    10    11   ar
     9    11    12   ar
    10    12    13   ar
    11    13    14    1
    12    13    15   ar
    13    15     1    1
    14     1     2   ar
    15     2     3   ar
    16     3     4   ar
    17     4     5   ar
    18     4     6   am
    19     6     7    2
    20     6     8   am
    21     8    25    1
    22    25    33    1
    23    33    34    1
    24    25    26    1
    25    26    27   ar
    26    27    28   ar
    27    28    29   ar
    28    29    30   ar
    29    30    31    1
    30    30    32   ar
    31     8     9    1
    32    15    16   ar
    33    24    20   ar
    34    16    10   ar
    35     5     1   ar
    36    32    26   ar
    37     9     3    1
    38    17    18    1
    39    34    35    1
@<TRIPOS>MOLECULE
*****
 35 39 0 0 0
SMALL
GASTEIGER

@<TRIPOS>ATOM
      1 C           6.8773   -4.2045   24.9242 C.ar    1  UNL1        0.0375
      2 C           6.4341   -3.1403   25.8839 C.ar    1  UNL1        0.0179
      3 C           6.6285   -3.6620   27.2767 C.ar    1  UNL1        0.0657
      4 N           7.1919   -5.0487   27.1779 N.ar    1  UNL1       -0.2630
      5 C           7.3456   -5.3840   25.7239 C.ar    1  UNL1        0.0854
      6 C           7.3863   -5.5705   28.5707 C.2     1  UNL1        0.3236
      7 O           7.9287   -6.9196   28.9391 O.2     1  UNL1       -0.2489
      8 N           6.9431   -4.5062   29.5304 N.am    1  UNL1       -0.2514
      9 C           6.4748   -3.3268   28.7306 C.3     1  UNL1        0.1398
     10 C           5.5288   -3.8590   21.2077 C.ar    1  UNL1        0.2218
     11 N           6.8130   -3.9105   20.4342 N.ar    1  UNL1       -0.2111
     12 C           8.1186   -4.0601   21.1575 C.ar    1  UNL1        0.1147
     13 C           8.1401   -4.1581   22.6542 C.ar    1  UNL1        0.0945
     14 CL          9.4457   -4.3076   23.3773 Cl      1  UNL1       -0.0790
     15 C           6.8559   -4.1065   23.4276 C.ar    1  UNL1        0.0977
     16 N           5.5503   -3.9570   22.7043 N.ar    1  UNL1       -0.2126
     17 N           4.2232   -3.7094   20.4845 N.pl3   1  UNL1       -0.2681
     18 H           3.6239   -4.4842   20.3853 H       1  UNL1        0.1565
     19 C           3.1261   -1.1428   22.1751 C.3     1  UNL1        0.1552
     20 N           3.3264   -1.1997   20.6896 N.ar    1  UNL1       -0.2355
     21 N           3.0575   -0.0869   19.7203 N.ar    1  UNL1       -0.1665
     22 C           3.3956   -0.5790   18.3443 C.ar    1  UNL1        0.1230
     23 C           3.8734   -1.9958   18.4630 C.ar    1  UNL1        0.0565
     24 C           3.8306   -2.3795   19.9125 C.ar    1  UNL1        0.1328
     25 C           6.9645   -4.6042   31.0270 C.3     1  UNL1        0.1292
     26 C           6.8979   -3.3593   31.8612 C.ar    1  UNL1       -0.0009
     27 C           8.1438   -2.5680   32.1284 C.ar    1  UNL1       -0.0025
     28 C           8.0772   -1.3231   32.9627 C.ar    1  UNL1        0.0006
     29 C           6.7647   -0.8697   33.5297 C.ar    1  UNL1        0.0114
     30 C           5.5187   -1.6610   33.2625 C.ar    1  UNL1        0.0574
     31 CL          4.2062   -1.2076   33.8295 Cl      1  UNL1       -0.0823
     32 C           5.5854   -2.9059   32.4282 C.ar    1  UNL1        0.0088
     33 C           7.0525   -5.9471   31.6895 C.3     1  UNL1        0.1614
     34 O           8.3917   -6.5788   31.9297 O.3     1  UNL1       -0.3799
     35 H           8.8068   -6.7901   31.0788 H       1  UNL1        0.2105
@<TRIPOS>BOND
     1    19    20    1
     2    20    21   ar
     3    21    22   ar
     4    22    23   ar
     5    23    24   ar
     6    24    17    1
     7    17    10    1
     8    10    11   ar
     9    11    12   ar
    10    12    13   ar
    11    13    14    1
    12    13    15   ar
    13    15     1    1
    14     1     2   ar
    15     2     3   ar
    16     3     4   ar
    17     4     5   ar
    18     4     6   am
    19     6     7    2
    20     6     8   am
    21     8    25    1
    22    25    33    1
    23    33    34    1
    24    25    26    1
    25    26    27   ar
    26    27    28   ar
    27    28    29   ar
    28    29    30   ar
    29    30    31    1
    30    30    32   ar
    31     8     9    1
    32    15    16   ar
    33    24    20   ar
    34    16    10   ar
    35     5     1   ar
    36    32    26   ar
    37     9     3    1
    38    17    18    1
    39    34    35    1
@<TRIPOS>MOLECULE
*****
 35 39 0 0 0
SMALL
GASTEIGER

@<TRIPOS>ATOM
      1 C           7.6129   -4.6418   24.5392 C.ar    1  UNL1        0.0375
      2 C           6.1862   -4.2246   24.3384 C.ar    1  UNL1        0.0179
      3 C           6.0531   -3.6833   22.9458 C.ar    1  UNL1        0.0657
      4 N           7.3976   -3.7660   22.2859 N.ar    1  UNL1       -0.2630
      5 C           8.3616   -4.3584   23.2707 C.ar    1  UNL1        0.0854
      6 C           7.2646   -3.2248   20.8933 C.2     1  UNL1        0.3236
      7 O           8.3650   -3.1193   19.8794 O.2     1  UNL1       -0.2489
      8 N           5.8377   -2.8076   20.6925 N.am    1  UNL1       -0.2514
      9 C           5.0891   -3.0910   21.9611 C.3     1  UNL1        0.1398
     10 C           9.0060   -4.9689   28.2409 C.ar    1  UNL1        0.2218
     11 N           9.3434   -6.4296   28.2888 N.ar    1  UNL1       -0.2111
     12 C           9.1040   -7.2944   27.0868 C.ar    1  UNL1        0.1147
     13 C           8.5272   -6.6985   25.8369 C.ar    1  UNL1        0.0945
     14 CL          8.2878   -7.5634   24.6350 Cl      1  UNL1       -0.0790
     15 C           8.1897   -5.2377   25.7890 C.ar    1  UNL1        0.0977
     16 N           8.4291   -4.3730   26.9910 N.ar    1  UNL1       -0.2126
     17 N           9.2453   -4.1040   29.4428 N.pl3   1  UNL1       -0.2681
     18 H          10.1648   -3.9291   29.7482 H       1  UNL1        0.1565
     19 C           7.1024   -5.7299   31.2903 C.3     1  UNL1        0.1552
     20 N           7.0989   -4.2529   31.0288 N.ar    1  UNL1       -0.2355
     21 N           6.1097   -3.2639   31.5705 N.ar    1  UNL1       -0.1665
     22 C           6.4834   -1.9054   31.0562 C.ar    1  UNL1        0.1230
     23 C           7.7035   -2.0547   30.1965 C.ar    1  UNL1        0.0565
     24 C           8.0839   -3.5056   30.1796 C.ar    1  UNL1        0.1328
     25 C           5.2610   -2.2116   19.4427 C.3     1  UNL1        0.1292
     26 C           4.3286   -1.0399   19.5315 C.ar    1  UNL1       -0.0009
     27 C           4.8379    0.3457   19.2662 C.ar    1  UNL1       -0.0025
     28 C           3.9055    1.5174   19.3550 C.ar    1  UNL1        0.0006
     29 C           2.4637    1.3033   19.7091 C.ar    1  UNL1        0.0114
     30 C           1.9544   -0.0824   19.9744 C.ar    1  UNL1        0.0574
     31 CL          0.5126   -0.2965   20.3285 Cl      1  UNL1       -0.0823
     32 C           2.8868   -1.2540   19.8856 C.ar    1  UNL1        0.0088
     33 C           5.6166   -2.7873   18.1040 C.3     1  UNL1        0.1614
     34 O           6.8268   -2.2893   17.3708 O.3     1  UNL1       -0.3799
     35 H           6.6932   -1.3623   17.1185 H       1  UNL1        0.2105
@<TRIPOS>BOND
     1    19    20    1
     2    20    21   ar
     3    21    22   ar
     4    22    23   ar
     5    23    24   ar
     6    24    17    1
     7    17    10    1
     8    10    11   ar
     9    11    12   ar
    10    12    13   ar
    11    13    14    1
    12    13    15   ar
    13    15     1    1
    14     1     2   ar
    15     2     3   ar
    16     3     4   ar
    17     4     5   ar
    18     4     6   am
    19     6     7    2
    20     6     8   am
    21     8    25    1
    22    25    33    1
    23    33    34    1
    24    25    26    1
    25    26    27   ar
    26    27    28   ar
    27    28    29   ar
    28    29    30   ar
    29    30    31    1
    30    30    32   ar
    31     8     9    1
    32    15    16   ar
    33    24    20   ar
    34    16    10   ar
    35     5     1   ar
    36    32    26   ar
    37     9     3    1
    38    17    18    1
    39    34    35    1
@<TRIPOS>MOLECULE
*****
 35 39 0 0 0
SMALL
GASTEIGER

@<TRIPOS>ATOM
      1 C           1.8027    1.1193   25.5737 C.ar    1  UNL1        0.0375
      2 C           3.1421    1.0115   24.9073 C.ar    1  UNL1        0.0179
      3 C           2.9142    0.8143   23.4379 C.ar    1  UNL1        0.0657
      4 N           1.4338    0.8002   23.1962 N.ar    1  UNL1       -0.2630
      5 C           0.7469    0.9887   24.5162 C.ar    1  UNL1        0.0854
      6 C           1.2059    0.6029   21.7268 C.2     1  UNL1        0.3236
      7 O          -0.1274    0.5269   21.0438 O.2     1  UNL1       -0.2489
      8 N           2.5454    0.4952   21.0602 N.am    1  UNL1       -0.2514
      9 C           3.6012    0.6258   22.1178 C.3     1  UNL1        0.1398
     10 C           1.6846    0.4460   29.4831 C.ar    1  UNL1        0.2218
     11 N           1.0786    1.7276   29.9733 N.ar    1  UNL1       -0.2111
     12 C           0.7140    2.8064   28.9970 C.ar    1  UNL1        0.1147
     13 C           0.9553    2.6037   27.5304 C.ar    1  UNL1        0.0945
     14 CL          0.5907    3.6825   26.5542 Cl      1  UNL1       -0.0790
     15 C           1.5613    1.3221   27.0402 C.ar    1  UNL1        0.0977
     16 N           1.9259    0.2433   28.0165 N.ar    1  UNL1       -0.2126
     17 N           2.0492   -0.6329   30.4593 N.pl3   1  UNL1       -0.2681
     18 H           1.4416   -1.3944   30.6009 H       1  UNL1        0.1565
     19 C           5.0220   -1.2539   29.2651 C.3     1  UNL1        0.1552
     20 N           4.7060   -0.8369   30.6708 N.ar    1  UNL1       -0.2355
     21 N           5.7010   -0.6321   31.7746 N.ar    1  UNL1       -0.1665
     22 C           4.9495   -0.2201   33.0056 C.ar    1  UNL1        0.1230
     23 C           3.4901   -0.1702   32.6627 C.ar    1  UNL1        0.0565
     24 C           3.3396   -0.5514   31.2198 C.ar    1  UNL1        0.1328
     25 C           2.7867    0.2924   19.5938 C.3     1  UNL1        0.1292
     26 C           3.6404   -0.8484   19.1249 C.ar    1  UNL1       -0.0009
     27 C           4.8753   -0.5786   18.3175 C.ar    1  UNL1       -0.0025
     28 C           5.7291   -1.7194   17.8485 C.ar    1  UNL1        0.0006
     29 C           5.3477   -3.1300   18.1870 C.ar    1  UNL1        0.0114
     30 C           4.1127   -3.3999   18.9945 C.ar    1  UNL1        0.0574
     31 CL          3.7313   -4.8105   19.3330 Cl      1  UNL1       -0.0823
     32 C           3.2591   -2.2591   19.4634 C.ar    1  UNL1        0.0088
     33 C           2.1744    1.2303   18.5962 C.3     1  UNL1        0.1614
     34 O           0.7429    1.0561   18.1832 O.3     1  UNL1       -0.3799
     35 H           0.6449    0.2200   17.7012 H       1  UNL1        0.2105
@<TRIPOS>BOND
     1    19    20    1
     2    20    21   ar
     3    21    22   ar
     4    22    23   ar
     5    23    24   ar
     6    24    17    1
     7    17    10    1
     8    10    11   ar
     9    11    12   ar
    10    12    13   ar
    11    13    14    1
    12    13    15   ar
    13    15     1    1
    14     1     2   ar
    15     2     3   ar
    16     3     4   ar
    17     4     5   ar
    18     4     6   am
    19     6     7    2
    20     6     8   am
    21     8    25    1
    22    25    33    1
    23    33    34    1
    24    25    26    1
    25    26    27   ar
    26    27    28   ar
    27    28    29   ar
    28    29    30   ar
    29    30    31    1
    30    30    32   ar
    31     8     9    1
    32    15    16   ar
    33    24    20   ar
    34    16    10   ar
    35     5     1   ar
    36    32    26   ar
    37     9     3    1
    38    17    18    1
    39    34    35    1
@<TRIPOS>MOLECULE
*****
 35 39 0 0 0
SMALL
GASTEIGER

@<TRIPOS>ATOM
      1 C           6.8882   -2.8107   25.3304 C.ar    1  UNL1        0.0375
      2 C           7.0648   -1.6161   24.4406 C.ar    1  UNL1        0.0179
      3 C           6.3700   -1.8991   23.1416 C.ar    1  UNL1        0.0657
      4 N           5.7641   -3.2685   23.2286 N.ar    1  UNL1       -0.2630
      5 C           6.0844   -3.8319   24.5814 C.ar    1  UNL1        0.0854
      6 C           5.0694   -3.5514   21.9297 C.2     1  UNL1        0.3236
      7 O           4.3283   -4.8082   21.5817 O.2     1  UNL1       -0.2489
      8 N           5.2459   -2.3568   21.0398 N.am    1  UNL1       -0.2514
      9 C           6.0498   -1.3356   21.7889 C.3     1  UNL1        0.1398
     10 C           7.5044   -2.1664   29.1977 C.ar    1  UNL1        0.2218
     11 N           8.4890   -3.2532   29.5127 N.ar    1  UNL1       -0.2111
     12 C           8.9401   -4.1925   28.4337 C.ar    1  UNL1        0.1147
     13 C           8.4065   -4.0451   27.0396 C.ar    1  UNL1        0.0945
     14 CL          8.8575   -4.9844   25.9607 Cl      1  UNL1       -0.0790
     15 C           7.4219   -2.9583   26.7245 C.ar    1  UNL1        0.0977
     16 N           6.9708   -2.0190   27.8035 N.ar    1  UNL1       -0.2126
     17 N           7.0533   -1.2271   30.2766 N.pl3   1  UNL1       -0.2681
     18 H           7.4692   -0.3388   30.3614 H       1  UNL1        0.1565
     19 C           3.9440   -0.2407   30.1849 C.3     1  UNL1        0.1552
     20 N           4.5395   -1.1877   31.1842 N.ar    1  UNL1       -0.2355
     21 N           3.8102   -1.8476   32.3168 N.ar    1  UNL1       -0.1665
     22 C           4.7888   -2.7088   33.0589 C.ar    1  UNL1        0.1230
     23 C           6.1227   -2.5812   32.3850 C.ar    1  UNL1        0.0565
     24 C           5.9687   -1.6411   31.2263 C.ar    1  UNL1        0.1328
     25 C           4.7123   -2.2093   19.6458 C.3     1  UNL1        0.1292
     26 C           3.7212   -1.1278   19.3325 C.ar    1  UNL1       -0.0009
     27 C           4.0455   -0.0893   18.3000 C.ar    1  UNL1       -0.0025
     28 C           3.0543    0.9922   17.9867 C.ar    1  UNL1        0.0006
     29 C           1.7389    1.0351   18.7062 C.ar    1  UNL1        0.0114
     30 C           1.4145   -0.0034   19.7388 C.ar    1  UNL1        0.0574
     31 CL          0.0990    0.0395   20.4583 Cl      1  UNL1       -0.0823
     32 C           2.4057   -1.0848   20.0520 C.ar    1  UNL1        0.0088
     33 C           5.1698   -3.1432   18.5649 C.3     1  UNL1        0.1614
     34 O           4.5417   -4.4987   18.4293 O.3     1  UNL1       -0.3799
     35 H           4.7574   -5.0344   19.2086 H       1  UNL1        0.2105
@<TRIPOS>BOND
     1    19    20    1
     2    20    21   ar
     3    21    22   ar
     4    22    23   ar
     5    23    24   ar
     6    24    17    1
     7    17    10    1
     8    10    11   ar
     9    11    12   ar
    10    12    13   ar
    11    13    14    1
    12    13    15   ar
    13    15     1    1
    14     1     2   ar
    15     2     3   ar
    16     3     4   ar
    17     4     5   ar
    18     4     6   am
    19     6     7    2
    20     6     8   am
    21     8    25    1
    22    25    33    1
    23    33    34    1
    24    25    26    1
    25    26    27   ar
    26    27    28   ar
    27    28    29   ar
    28    29    30   ar
    29    30    31    1
    30    30    32   ar
    31     8     9    1
    32    15    16   ar
    33    24    20   ar
    34    16    10   ar
    35     5     1   ar
    36    32    26   ar
    37     9     3    1
    38    17    18    1
    39    34    35    1
@<TRIPOS>MOLECULE
*****
 35 39 0 0 0
SMALL
GASTEIGER

@<TRIPOS>ATOM
      1 C           5.8943   -0.6446   33.9442 C.ar    1  UNL1        0.0375
      2 C           6.1190   -0.4914   35.4193 C.ar    1  UNL1        0.0179
      3 C           5.0504    0.4119   35.9596 C.ar    1  UNL1        0.0657
      4 N           4.1651    0.8171   34.8185 N.ar    1  UNL1       -0.2630
      5 C           4.6867    0.1641   33.5728 C.ar    1  UNL1        0.0854
      6 C           3.0965    1.7204   35.3588 C.2     1  UNL1        0.3236
      7 O           1.9962    2.3585   34.5636 O.2     1  UNL1       -0.2489
      8 N           3.3212    1.8736   36.8340 N.am    1  UNL1       -0.2514
      9 C           4.5288    1.0649   37.2053 C.3     1  UNL1        0.1398
     10 C           7.0987   -3.6397   31.6358 C.ar    1  UNL1        0.2218
     11 N           8.4022   -3.0992   31.1273 N.ar    1  UNL1       -0.2111
     12 C           8.8698   -1.7405   31.5577 C.ar    1  UNL1        0.1147
     13 C           8.0338   -0.9223   32.4967 C.ar    1  UNL1        0.0945
     14 CL          8.5014    0.4364   32.9271 Cl      1  UNL1       -0.0790
     15 C           6.7303   -1.4628   33.0052 C.ar    1  UNL1        0.0977
     16 N           6.2627   -2.8215   32.5748 N.ar    1  UNL1       -0.2126
     17 N           6.6311   -4.9984   31.2054 N.pl3   1  UNL1       -0.2681
     18 H           6.0545   -5.5315   31.7992 H       1  UNL1        0.1565
     19 C           9.1922   -6.9378   30.6322 C.3     1  UNL1        0.1552
     20 N           8.2190   -6.4363   29.6068 N.ar    1  UNL1       -0.2355
     21 N           8.2522   -6.7383   28.1378 N.ar    1  UNL1       -0.1665
     22 C           7.0955   -6.0334   27.4934 C.ar    1  UNL1        0.1230
     23 C           6.3474   -5.2959   28.5641 C.ar    1  UNL1        0.0565
     24 C           7.0418   -5.5449   29.8702 C.ar    1  UNL1        0.1328
     25 C           2.4853    2.6918   37.7729 C.3     1  UNL1        0.1292
     26 C           2.3715    4.1747   37.5776 C.ar    1  UNL1       -0.0009
     27 C           1.1966    4.7463   36.8411 C.ar    1  UNL1       -0.0025
     28 C           1.0828    6.2292   36.6459 C.ar    1  UNL1        0.0006
     29 C           2.1442    7.1405   37.1873 C.ar    1  UNL1        0.0114
     30 C           3.3192    6.5688   37.9238 C.ar    1  UNL1        0.0574
     31 CL          4.3806    7.4801   38.4652 Cl      1  UNL1       -0.0823
     32 C           3.4329    5.0860   38.1190 C.ar    1  UNL1        0.0088
     33 C           1.7629    2.0271   38.9071 C.3     1  UNL1        0.1614
     34 O           0.6002    1.1215   38.6279 O.3     1  UNL1       -0.3799
     35 H          -0.1293    1.6384   38.2517 H       1  UNL1        0.2105
@<TRIPOS>BOND
     1    19    20    1
     2    20    21   ar
     3    21    22   ar
     4    22    23   ar
     5    23    24   ar
     6    24    17    1
     7    17    10    1
     8    10    11   ar
     9    11    12   ar
    10    12    13   ar
    11    13    14    1
    12    13    15   ar
    13    15     1    1
    14     1     2   ar
    15     2     3   ar
    16     3     4   ar
    17     4     5   ar
    18     4     6   am
    19     6     7    2
    20     6     8   am
    21     8    25    1
    22    25    33    1
    23    33    34    1
    24    25    26    1
    25    26    27   ar
    26    27    28   ar
    27    28    29   ar
    28    29    30   ar
    29    30    31    1
    30    30    32   ar
    31     8     9    1
    32    15    16   ar
    33    24    20   ar
    34    16    10   ar
    35     5     1   ar
    36    32    26   ar
    37     9     3    1
    38    17    18    1
    39    34    35    1
@<TRIPOS>MOLECULE
*****
 35 39 0 0 0
SMALL
GASTEIGER

@<TRIPOS>ATOM
      1 C           0.5903    1.7348   24.9233 C.ar    1  UNL1        0.0375
      2 C           1.8347    2.2735   25.5646 C.ar    1  UNL1        0.0179
      3 C           1.7964    1.9180   27.0214 C.ar    1  UNL1        0.0657
      4 N           0.5284    1.1597   27.2804 N.ar    1  UNL1       -0.2630
      5 C          -0.2170    1.0464   25.9837 C.ar    1  UNL1        0.0854
      6 C           0.4902    0.8042   28.7371 C.2     1  UNL1        0.3236
      7 O          -0.6009    0.0436   29.4308 O.2     1  UNL1       -0.2489
      8 N           1.7346    1.3429   29.3786 N.am    1  UNL1       -0.2514
      9 C           2.5419    2.0313   28.3181 C.3     1  UNL1        0.1398
     10 C           0.2336    0.9138   21.0569 C.ar    1  UNL1        0.2218
     11 N          -0.5252    2.1168   20.5804 N.ar    1  UNL1       -0.2111
     12 C          -0.9122    3.1924   21.5516 C.ar    1  UNL1        0.1147
     13 C          -0.5404    3.0652   22.9993 C.ar    1  UNL1        0.0945
     14 CL         -0.9274    4.1409   23.9704 Cl      1  UNL1       -0.0790
     15 C           0.2184    1.8622   23.4757 C.ar    1  UNL1        0.0977
     16 N           0.6054    0.7865   22.5045 N.ar    1  UNL1       -0.2126
     17 N           0.6206   -0.1619   20.0858 N.pl3   1  UNL1       -0.2681
     18 H          -0.0754   -0.7021   19.6464 H       1  UNL1        0.1565
     19 C           2.6223    1.8465   18.4706 C.3     1  UNL1        0.1552
     20 N           2.9881    0.5085   19.0416 N.ar    1  UNL1       -0.2355
     21 N           4.3382   -0.1412   18.9705 N.ar    1  UNL1       -0.1665
     22 C           4.2525   -1.4659   19.6689 C.ar    1  UNL1        0.1230
     23 C           2.8495   -1.6349   20.1717 C.ar    1  UNL1        0.0565
     24 C           2.0680   -0.4146   19.7840 C.ar    1  UNL1        0.1328
     25 C           2.1064    1.2155   30.8261 C.3     1  UNL1        0.1292
     26 C           3.2066    0.2830   31.2387 C.ar    1  UNL1       -0.0009
     27 C           4.0536   -0.3852   30.1967 C.ar    1  UNL1       -0.0025
     28 C           5.1538   -1.3177   30.6093 C.ar    1  UNL1        0.0006
     29 C           5.4067   -1.5820   32.0640 C.ar    1  UNL1        0.0114
     30 C           4.5595   -0.9138   33.1060 C.ar    1  UNL1        0.0574
     31 CL          4.8124   -1.1781   34.5607 Cl      1  UNL1       -0.0823
     32 C           3.4595    0.0187   32.6934 C.ar    1  UNL1        0.0088
     33 C           1.3782    2.0207   31.8611 C.3     1  UNL1        0.1614
     34 O          -0.1122    1.9071   31.9879 O.3     1  UNL1       -0.3799
     35 H          -0.5324    2.2556   31.1861 H       1  UNL1        0.2105
@<TRIPOS>BOND
     1    19    20    1
     2    20    21   ar
     3    21    22   ar
     4    22    23   ar
     5    23    24   ar
     6    24    17    1
     7    17    10    1
     8    10    11   ar
     9    11    12   ar
    10    12    13   ar
    11    13    14    1
    12    13    15   ar
    13    15     1    1
    14     1     2   ar
    15     2     3   ar
    16     3     4   ar
    17     4     5   ar
    18     4     6   am
    19     6     7    2
    20     6     8   am
    21     8    25    1
    22    25    33    1
    23    33    34    1
    24    25    26    1
    25    26    27   ar
    26    27    28   ar
    27    28    29   ar
    28    29    30   ar
    29    30    31    1
    30    30    32   ar
    31     8     9    1
    32    15    16   ar
    33    24    20   ar
    34    16    10   ar
    35     5     1   ar
    36    32    26   ar
    37     9     3    1
    38    17    18    1
    39    34    35    1
