@<TRIPOS>MOLECULE
*****
 30 34 0 0 0
SMALL
GASTEIGER

@<TRIPOS>ATOM
      1 C          -4.9526  -17.2090   23.1835 C.ar    1  UNL1        0.2212
      2 N          -6.0136  -17.8942   22.3743 N.ar    1  UNL1       -0.1948
      3 C          -5.6431  -19.0110   21.4439 C.ar    1  UNL1        0.1667
      4 C          -4.2117  -19.4426   21.3228 C.ar    1  UNL1        0.1117
      5 C          -4.1484  -20.5654   20.3302 C.ar    1  UNL1        0.0968
      6 N          -5.5408  -20.8277   19.8378 N.ar    1  UNL1       -0.2924
      7 N          -6.4646  -19.8671   20.5262 N.ar    1  UNL1       -0.2587
      8 C          -3.1507  -18.7574   22.1320 C.ar    1  UNL1        0.2860
      9 O          -1.7192  -19.1889   22.0109 O.2     1  UNL1       -0.2650
     10 N          -3.5213  -17.6406   23.0624 N.ar    1  UNL1       -0.1749
     11 H          -5.8025  -21.5106   19.1787 H       1  UNL1        0.1871
     12 C          -7.9492  -19.7782   20.3310 C.3     1  UNL1        0.1046
     13 C          -8.6679  -19.7932   19.0145 C.3     1  UNL1        0.0243
     14 C         -10.1386  -19.6829   19.2879 C.3     1  UNL1        0.0021
     15 C         -10.3289  -19.5997   20.7735 C.3     1  UNL1        0.0021
     16 C          -8.9758  -19.6586   21.4181 C.3     1  UNL1        0.0243
     17 N          -5.3232  -16.0922   24.1139 N.pl3   1  UNL1       -0.2968
     18 H          -4.6189  -15.5771   24.5698 H       1  UNL1        0.1500
     19 C          -7.2935  -15.6562   25.7502 C.3     1  UNL1        0.0312
     20 C          -6.7669  -15.7603   24.3495 C.3     1  UNL1        0.1490
     21 C          -7.6840  -15.5325   23.1846 C.2     1  UNL1        0.2435
     22 O          -7.2307  -14.6947   22.0259 O.2     1  UNL1       -0.2731
     23 N          -9.0544  -16.1425   23.1783 N.am    1  UNL1       -0.2781
     24 C         -10.2127  -16.1387   22.2253 C.3     1  UNL1        0.0952
     25 C         -10.9923  -17.0051   23.1695 C.3     1  UNL1        0.0419
     26 C         -12.1507  -17.0014   22.2165 C.3     1  UNL1        0.0387
     27 C         -12.9303  -17.8677   23.1607 C.3     1  UNL1        0.1612
     28 F         -14.3006  -18.4777   23.1545 F       1  UNL1       -0.2373
     29 C         -11.7721  -17.8715   24.1137 C.3     1  UNL1        0.0387
     30 C          -9.8340  -17.0089   24.1226 C.3     1  UNL1        0.0952
@<TRIPOS>BOND
     1    20    19    1
     2    20    17    1
     3    17     1    1
     4     1     2   ar
     5     2     3   ar
     6     3     4    1
     7     4     5   ar
     8     5     6   ar
     9     6     7   ar
    10     7    12    1
    11    12    13    1
    12    13    14    1
    13    14    15    1
    14    15    16    1
    15     4     8   ar
    16     8     9    2
    17     8    10   ar
    18    20    21    1
    19    21    22    2
    20    21    23   am
    21    23    24    1
    22    24    25    1
    23    25    26    1
    24    26    27    1
    25    27    28    1
    26    27    29    1
    27    25    30    1
    28    10     1   ar
    29    30    23    1
    30     7     3   ar
    31    16    12    1
    32    29    25    1
    33    17    18    1
    34     6    11    1
@<TRIPOS>MOLECULE
*****
 30 34 0 0 0
SMALL
GASTEIGER

@<TRIPOS>ATOM
      1 C          -8.2236  -18.4028   20.3325 C.ar    1  UNL1        0.2212
      2 N          -7.8441  -17.6648   21.5820 N.ar    1  UNL1       -0.1948
      3 C          -8.8919  -16.9367   22.3706 C.ar    1  UNL1        0.1667
      4 C         -10.3193  -16.9466   21.9097 C.ar    1  UNL1        0.1117
      5 C         -11.1274  -16.1446   22.8864 C.ar    1  UNL1        0.0968
      6 N         -10.1994  -15.6392   23.9509 N.ar    1  UNL1       -0.2924
      7 N          -8.8178  -16.1287   23.6322 N.ar    1  UNL1       -0.2587
      8 C         -10.6989  -17.6845   20.6601 C.ar    1  UNL1        0.2860
      9 O         -12.1263  -17.6944   20.1991 O.2     1  UNL1       -0.2650
     10 N          -9.6509  -18.4126   19.8716 N.ar    1  UNL1       -0.1749
     11 H         -10.4526  -15.0836   24.7233 H       1  UNL1        0.1871
     12 C          -7.5795  -15.8578   24.4343 C.3     1  UNL1        0.1046
     13 C          -7.5180  -15.6526   25.9189 C.3     1  UNL1        0.0243
     14 C          -6.0858  -15.4125   26.2946 C.3     1  UNL1        0.0021
     15 C          -5.2622  -15.4692   25.0423 C.3     1  UNL1        0.0021
     16 C          -6.1854  -15.7444   23.8925 C.3     1  UNL1        0.0243
     17 N          -7.1757  -19.1309   19.5439 N.pl3   1  UNL1       -0.2968
     18 H          -7.0142  -18.8929   18.6023 H       1  UNL1        0.1500
     19 C          -6.5375  -21.6420   19.7365 C.3     1  UNL1        0.0312
     20 C          -6.3738  -20.2215   20.1900 C.3     1  UNL1        0.1490
     21 C          -5.4083  -19.8919   21.2896 C.2     1  UNL1        0.2435
     22 O          -5.7624  -20.1968   22.7149 O.2     1  UNL1       -0.2731
     23 N          -4.0887  -19.2574   20.9639 N.am    1  UNL1       -0.2781
     24 C          -2.9060  -18.7987   21.7644 C.3     1  UNL1        0.0952
     25 C          -2.2226  -18.3601   20.5032 C.3     1  UNL1        0.0419
     26 C          -1.0399  -17.9014   21.3036 C.3     1  UNL1        0.0387
     27 C          -0.3564  -17.4628   20.0425 C.3     1  UNL1        0.1612
     28 F           0.9632  -16.8283   19.7167 F       1  UNL1       -0.2373
     29 C          -1.5390  -17.9215   19.2420 C.3     1  UNL1        0.0387
     30 C          -3.4052  -18.8189   19.7027 C.3     1  UNL1        0.0952
@<TRIPOS>BOND
     1    20    19    1
     2    20    17    1
     3    17     1    1
     4     1     2   ar
     5     2     3   ar
     6     3     4    1
     7     4     5   ar
     8     5     6   ar
     9     6     7   ar
    10     7    12    1
    11    12    13    1
    12    13    14    1
    13    14    15    1
    14    15    16    1
    15     4     8   ar
    16     8     9    2
    17     8    10   ar
    18    20    21    1
    19    21    22    2
    20    21    23   am
    21    23    24    1
    22    24    25    1
    23    25    26    1
    24    26    27    1
    25    27    28    1
    26    27    29    1
    27    25    30    1
    28    10     1   ar
    29    30    23    1
    30     7     3   ar
    31    16    12    1
    32    29    25    1
    33    17    18    1
    34     6    11    1
@<TRIPOS>MOLECULE
*****
 30 34 0 0 0
SMALL
GASTEIGER

@<TRIPOS>ATOM
      1 C          -5.8160  -16.5612   23.6176 C.ar    1  UNL1        0.2212
      2 N          -6.6090  -17.4096   22.6681 N.ar    1  UNL1       -0.1948
      3 C          -5.9283  -18.4878   21.8782 C.ar    1  UNL1        0.1667
      4 C          -4.4546  -18.7177   22.0376 C.ar    1  UNL1        0.1117
      5 C          -4.0608  -19.8466   21.1318 C.ar    1  UNL1        0.0968
      6 N          -5.2912  -20.3144   20.4125 N.ar    1  UNL1       -0.2924
      7 N          -6.4453  -19.4746   20.8737 N.ar    1  UNL1       -0.2587
      8 C          -3.6616  -17.8693   22.9871 C.ar    1  UNL1        0.2860
      9 O          -2.1879  -18.0992   23.1466 O.2     1  UNL1       -0.2650
     10 N          -4.3424  -16.7911   23.7771 N.ar    1  UNL1       -0.1749
     11 H          -5.3337  -21.0444   19.7533 H       1  UNL1        0.1871
     12 C          -7.8669  -19.5997   20.4117 C.3     1  UNL1        0.1046
     13 C          -9.0882  -19.4779   21.2740 C.3     1  UNL1        0.0243
     14 C         -10.2929  -19.6716   20.4014 C.3     1  UNL1        0.0021
     15 C          -9.8161  -19.9131   18.9999 C.3     1  UNL1        0.0021
     16 C          -8.3168  -19.8687   19.0063 C.3     1  UNL1        0.0243
     17 N          -6.4968  -15.4830   24.4076 N.pl3   1  UNL1       -0.2968
     18 H          -6.4447  -14.5464   24.1089 H       1  UNL1        0.1500
     19 C          -6.7132  -15.4457   26.9963 C.3     1  UNL1        0.0312
     20 C          -7.2569  -15.8319   25.6527 C.3     1  UNL1        0.1490
     21 C          -8.5608  -16.5671   25.5544 C.2     1  UNL1        0.2435
     22 O          -9.0460  -17.3912   26.7099 O.2     1  UNL1       -0.2731
     23 N          -9.3793  -16.4780   24.3006 N.am    1  UNL1       -0.2781
     24 C         -10.6885  -17.0517   23.8457 C.3     1  UNL1        0.0952
     25 C         -10.5368  -16.3521   22.5275 C.3     1  UNL1        0.0419
     26 C         -11.8460  -16.9257   22.0725 C.3     1  UNL1        0.0387
     27 C         -11.6945  -16.2262   20.7543 C.3     1  UNL1        0.1612
     28 F         -12.5130  -16.1371   19.5005 F       1  UNL1       -0.2373
     29 C         -10.3853  -15.6526   21.2092 C.3     1  UNL1        0.0387
     30 C          -9.2277  -15.7785   22.9824 C.3     1  UNL1        0.0952
@<TRIPOS>BOND
     1    20    19    1
     2    20    17    1
     3    17     1    1
     4     1     2   ar
     5     2     3   ar
     6     3     4    1
     7     4     5   ar
     8     5     6   ar
     9     6     7   ar
    10     7    12    1
    11    12    13    1
    12    13    14    1
    13    14    15    1
    14    15    16    1
    15     4     8   ar
    16     8     9    2
    17     8    10   ar
    18    20    21    1
    19    21    22    2
    20    21    23   am
    21    23    24    1
    22    24    25    1
    23    25    26    1
    24    26    27    1
    25    27    28    1
    26    27    29    1
    27    25    30    1
    28    10     1   ar
    29    30    23    1
    30     7     3   ar
    31    16    12    1
    32    29    25    1
    33    17    18    1
    34     6    11    1
@<TRIPOS>MOLECULE
*****
 30 34 0 0 0
SMALL
GASTEIGER

@<TRIPOS>ATOM
      1 C          -9.5181  -18.2931   20.2431 C.ar    1  UNL1        0.2212
      2 N          -8.2343  -18.1619   21.0077 N.ar    1  UNL1       -0.1948
      3 C          -7.1260  -19.1483   20.7873 C.ar    1  UNL1        0.1667
      4 C          -7.3014  -20.2658   19.8022 C.ar    1  UNL1        0.1117
      5 C          -6.0421  -21.0808   19.7967 C.ar    1  UNL1        0.0968
      6 N          -5.0884  -20.4669   20.7783 N.ar    1  UNL1       -0.2924
      7 N          -5.7583  -19.2726   21.3906 N.ar    1  UNL1       -0.2587
      8 C          -8.5851  -20.3970   19.0376 C.ar    1  UNL1        0.2860
      9 O          -8.7606  -21.5145   18.0524 O.2     1  UNL1       -0.2650
     10 N          -9.6935  -19.4106   19.2580 N.ar    1  UNL1       -0.1749
     11 H          -4.1819  -20.7910   20.9845 H       1  UNL1        0.1871
     12 C          -5.1646  -18.3624   22.4245 C.3     1  UNL1        0.1046
     13 C          -3.7540  -18.4066   22.9327 C.3     1  UNL1        0.0243
     14 C          -3.5950  -17.3197   23.9541 C.3     1  UNL1        0.0021
     15 C          -4.9073  -16.6036   24.0772 C.3     1  UNL1        0.0021
     16 C          -5.8774  -17.2481   23.1319 C.3     1  UNL1        0.0243
     17 N         -10.6265  -17.3067   20.4635 N.pl3   1  UNL1       -0.2968
     18 H         -10.7263  -16.5354   19.8599 H       1  UNL1        0.1500
     19 C         -12.9807  -16.9607   21.5065 C.3     1  UNL1        0.0312
     20 C         -11.5827  -17.4955   21.6037 C.3     1  UNL1        0.1490
     21 C         -11.1409  -18.2192   22.8411 C.2     1  UNL1        0.2435
     22 O         -11.5964  -19.6265   23.0897 O.2     1  UNL1       -0.2731
     23 N         -10.2438  -17.5355   23.8299 N.am    1  UNL1       -0.2781
     24 C          -9.6150  -17.9221   25.1357 C.3     1  UNL1        0.0952
     25 C          -8.9750  -16.5686   25.2282 C.3     1  UNL1        0.0419
     26 C          -8.3462  -16.9552   26.5340 C.3     1  UNL1        0.0387
     27 C          -7.7062  -15.6018   26.6266 C.3     1  UNL1        0.1612
     28 F          -6.8091  -14.9180   27.6153 F       1  UNL1       -0.2373
     29 C          -8.3350  -15.2152   25.3208 C.3     1  UNL1        0.0387
     30 C          -9.6038  -16.1820   23.9224 C.3     1  UNL1        0.0952
@<TRIPOS>BOND
     1    20    19    1
     2    20    17    1
     3    17     1    1
     4     1     2   ar
     5     2     3   ar
     6     3     4    1
     7     4     5   ar
     8     5     6   ar
     9     6     7   ar
    10     7    12    1
    11    12    13    1
    12    13    14    1
    13    14    15    1
    14    15    16    1
    15     4     8   ar
    16     8     9    2
    17     8    10   ar
    18    20    21    1
    19    21    22    2
    20    21    23   am
    21    23    24    1
    22    24    25    1
    23    25    26    1
    24    26    27    1
    25    27    28    1
    26    27    29    1
    27    25    30    1
    28    10     1   ar
    29    30    23    1
    30     7     3   ar
    31    16    12    1
    32    29    25    1
    33    17    18    1
    34     6    11    1
@<TRIPOS>MOLECULE
*****
 30 34 0 0 0
SMALL
GASTEIGER

@<TRIPOS>ATOM
      1 C          -7.3030  -19.0125   20.7050 C.ar    1  UNL1        0.2212
      2 N          -6.6796  -18.1980   21.7995 N.ar    1  UNL1       -0.1948
      3 C          -5.2430  -18.4164   22.1716 C.ar    1  UNL1        0.1667
      4 C          -4.4298  -19.4493   21.4492 C.ar    1  UNL1        0.1117
      5 C          -3.0473  -19.4412   22.0312 C.ar    1  UNL1        0.0968
      6 N          -3.0061  -18.4032   23.1133 N.ar    1  UNL1       -0.2924
      7 N          -4.3631  -17.7698   23.2001 N.ar    1  UNL1       -0.2587
      8 C          -5.0532  -20.2638   20.3547 C.ar    1  UNL1        0.2860
      9 O          -4.2401  -21.2968   19.6323 O.2     1  UNL1       -0.2650
     10 N          -6.4899  -20.0454   19.9827 N.ar    1  UNL1       -0.1749
     11 H          -2.2255  -18.1773   23.6690 H       1  UNL1        0.1871
     12 C          -4.7688  -16.6811   24.1487 C.3     1  UNL1        0.1046
     13 C          -5.3687  -15.3596   23.7696 C.3     1  UNL1        0.0243
     14 C          -5.6166  -14.5845   25.0297 C.3     1  UNL1        0.0021
     15 C          -5.1699  -15.4270   26.1876 C.3     1  UNL1        0.0021
     16 C          -4.6460  -16.7228   25.6431 C.3     1  UNL1        0.0243
     17 N          -8.7397  -18.7940   20.3330 N.pl3   1  UNL1       -0.2968
     18 H          -9.0329  -18.9269   19.4026 H       1  UNL1        0.1500
     19 C         -10.8419  -17.4320   21.0225 C.3     1  UNL1        0.0312
     20 C          -9.7294  -18.3731   21.3785 C.3     1  UNL1        0.1490
     21 C          -9.6068  -18.8932   22.7801 C.2     1  UNL1        0.2435
     22 O          -9.7544  -20.3611   23.0509 O.2     1  UNL1       -0.2731
     23 N          -9.3366  -17.9454   23.9109 N.am    1  UNL1       -0.2781
     24 C          -9.1557  -18.0869   25.3932 C.3     1  UNL1        0.0952
     25 C          -8.9545  -16.6051   25.5100 C.3     1  UNL1        0.0419
     26 C          -8.7736  -16.7465   26.9924 C.3     1  UNL1        0.0387
     27 C          -8.5723  -15.2647   27.1092 C.3     1  UNL1        0.1612
     28 F          -8.3021  -14.3169   28.2400 F       1  UNL1       -0.2373
     29 C          -8.7532  -15.1232   25.6270 C.3     1  UNL1        0.0387
     30 C          -9.1353  -16.4636   24.0277 C.3     1  UNL1        0.0952
@<TRIPOS>BOND
     1    20    19    1
     2    20    17    1
     3    17     1    1
     4     1     2   ar
     5     2     3   ar
     6     3     4    1
     7     4     5   ar
     8     5     6   ar
     9     6     7   ar
    10     7    12    1
    11    12    13    1
    12    13    14    1
    13    14    15    1
    14    15    16    1
    15     4     8   ar
    16     8     9    2
    17     8    10   ar
    18    20    21    1
    19    21    22    2
    20    21    23   am
    21    23    24    1
    22    24    25    1
    23    25    26    1
    24    26    27    1
    25    27    28    1
    26    27    29    1
    27    25    30    1
    28    10     1   ar
    29    30    23    1
    30     7     3   ar
    31    16    12    1
    32    29    25    1
    33    17    18    1
    34     6    11    1
@<TRIPOS>MOLECULE
*****
 30 34 0 0 0
SMALL
GASTEIGER

@<TRIPOS>ATOM
      1 C          -7.2145  -19.6137   21.3254 C.ar    1  UNL1        0.2212
      2 N          -6.7809  -18.5674   22.3088 N.ar    1  UNL1       -0.1948
      3 C          -5.3236  -18.2542   22.4769 C.ar    1  UNL1        0.1667
      4 C          -4.3000  -18.9873   21.6616 C.ar    1  UNL1        0.1117
      5 C          -2.9454  -18.4674   22.0419 C.ar    1  UNL1        0.0968
      6 N          -3.1318  -17.4129   23.0922 N.ar    1  UNL1       -0.2924
      7 N          -4.6016  -17.2811   23.3611 N.ar    1  UNL1       -0.2587
      8 C          -4.7337  -20.0337   20.6782 C.ar    1  UNL1        0.2860
      9 O          -3.7101  -20.7669   19.8628 O.2     1  UNL1       -0.2650
     10 N          -6.1910  -20.3469   20.5101 N.ar    1  UNL1       -0.1749
     11 H          -2.4152  -16.8977   23.5285 H       1  UNL1        0.1871
     12 C          -5.2377  -16.3413   24.3419 C.3     1  UNL1        0.1046
     13 C          -6.4539  -15.4989   24.0944 C.3     1  UNL1        0.0243
     14 C          -6.7371  -14.7158   25.3420 C.3     1  UNL1        0.0021
     15 C          -5.6959  -15.0741   26.3606 C.3     1  UNL1        0.0021
     16 C          -4.7692  -16.0787   25.7425 C.3     1  UNL1        0.0243
     17 N          -8.6719  -19.9269   21.1573 N.pl3   1  UNL1       -0.2968
     18 H          -9.1300  -20.5035   21.8107 H       1  UNL1        0.1500
     19 C          -9.1249  -19.8266   18.6011 C.3     1  UNL1        0.0312
     20 C          -9.4311  -19.3614   19.9938 C.3     1  UNL1        0.1490
     21 C         -10.4967  -18.3308   20.2230 C.2     1  UNL1        0.2435
     22 O         -10.7599  -17.2806   19.1848 O.2     1  UNL1       -0.2731
     23 N         -11.2989  -18.3502   21.4903 N.am    1  UNL1       -0.2781
     24 C         -12.4085  -17.5145   22.0560 C.3     1  UNL1        0.0952
     25 C         -12.4333  -18.3778   23.2825 C.3     1  UNL1        0.0419
     26 C         -13.5430  -17.5421   23.8483 C.3     1  UNL1        0.0387
     27 C         -13.5678  -18.4053   25.0748 C.3     1  UNL1        0.1612
     28 F         -14.3700  -18.4248   26.3421 F       1  UNL1       -0.2373
     29 C         -12.4581  -19.2410   24.5090 C.3     1  UNL1        0.0387
     30 C         -11.3236  -19.2135   22.7167 C.3     1  UNL1        0.0952
@<TRIPOS>BOND
     1    20    19    1
     2    20    17    1
     3    17     1    1
     4     1     2   ar
     5     2     3   ar
     6     3     4    1
     7     4     5   ar
     8     5     6   ar
     9     6     7   ar
    10     7    12    1
    11    12    13    1
    12    13    14    1
    13    14    15    1
    14    15    16    1
    15     4     8   ar
    16     8     9    2
    17     8    10   ar
    18    20    21    1
    19    21    22    2
    20    21    23   am
    21    23    24    1
    22    24    25    1
    23    25    26    1
    24    26    27    1
    25    27    28    1
    26    27    29    1
    27    25    30    1
    28    10     1   ar
    29    30    23    1
    30     7     3   ar
    31    16    12    1
    32    29    25    1
    33    17    18    1
    34     6    11    1
@<TRIPOS>MOLECULE
*****
 30 34 0 0 0
SMALL
GASTEIGER

@<TRIPOS>ATOM
      1 C          -4.8424  -19.4555   20.2609 C.ar    1  UNL1        0.2212
      2 N          -4.7899  -18.5202   21.4324 N.ar    1  UNL1       -0.1948
      3 C          -3.6165  -17.6023   21.6073 C.ar    1  UNL1        0.1667
      4 C          -2.4957  -17.6197   20.6106 C.ar    1  UNL1        0.1117
      5 C          -1.4761  -16.6075   21.0419 C.ar    1  UNL1        0.0968
      6 N          -1.9669  -15.9646   22.3051 N.ar    1  UNL1       -0.2924
      7 N          -3.2897  -16.5794   22.6546 N.ar    1  UNL1       -0.2587
      8 C          -2.5482  -18.5549   19.4391 C.ar    1  UNL1        0.2860
      9 O          -1.4273  -18.5724   18.4423 O.2     1  UNL1       -0.2650
     10 N          -3.7217  -19.4729   19.2643 N.ar    1  UNL1       -0.1749
     11 H          -1.5023  -15.2623   22.8153 H       1  UNL1        0.1871
     12 C          -4.1370  -16.2322   23.8427 C.3     1  UNL1        0.1046
     13 C          -5.2099  -15.1848   23.8847 C.3     1  UNL1        0.0243
     14 C          -5.7961  -15.1768   25.2654 C.3     1  UNL1        0.0021
     15 C          -5.0854  -16.2192   26.0768 C.3     1  UNL1        0.0021
     16 C          -4.0600  -16.8715   25.1975 C.3     1  UNL1        0.0243
     17 N          -6.0159  -20.3734   20.0861 N.pl3   1  UNL1       -0.2968
     18 H          -5.9588  -21.1319   19.4610 H       1  UNL1        0.1500
     19 C          -7.3591  -20.5501   22.3029 C.3     1  UNL1        0.0312
     20 C          -7.2764  -20.1357   20.8637 C.3     1  UNL1        0.1490
     21 C          -8.4541  -19.4834   20.2022 C.2     1  UNL1        0.2435
     22 O          -8.4392  -19.2315   18.7236 O.2     1  UNL1       -0.2731
     23 N          -9.6467  -19.0831   21.0192 N.am    1  UNL1       -0.2781
     24 C         -10.9646  -18.4310   20.7232 C.3     1  UNL1        0.0952
     25 C         -11.3332  -18.5171   22.1747 C.3     1  UNL1        0.0419
     26 C         -12.6512  -17.8650   21.8787 C.3     1  UNL1        0.0387
     27 C         -13.0198  -17.9510   23.3302 C.3     1  UNL1        0.1612
     28 F         -14.2123  -17.5508   24.1472 F       1  UNL1       -0.2373
     29 C         -11.7018  -18.6032   23.6262 C.3     1  UNL1        0.0387
     30 C         -10.0152  -19.1692   22.4707 C.3     1  UNL1        0.0952
@<TRIPOS>BOND
     1    20    19    1
     2    20    17    1
     3    17     1    1
     4     1     2   ar
     5     2     3   ar
     6     3     4    1
     7     4     5   ar
     8     5     6   ar
     9     6     7   ar
    10     7    12    1
    11    12    13    1
    12    13    14    1
    13    14    15    1
    14    15    16    1
    15     4     8   ar
    16     8     9    2
    17     8    10   ar
    18    20    21    1
    19    21    22    2
    20    21    23   am
    21    23    24    1
    22    24    25    1
    23    25    26    1
    24    26    27    1
    25    27    28    1
    26    27    29    1
    27    25    30    1
    28    10     1   ar
    29    30    23    1
    30     7     3   ar
    31    16    12    1
    32    29    25    1
    33    17    18    1
    34     6    11    1
@<TRIPOS>MOLECULE
*****
 30 34 0 0 0
SMALL
GASTEIGER

@<TRIPOS>ATOM
      1 C         -14.4168   -2.5965   19.6852 C.ar    1  UNL1        0.2212
      2 N         -13.3044   -3.5234   19.2935 N.ar    1  UNL1       -0.1948
      3 C         -12.1111   -2.9931   18.5555 C.ar    1  UNL1        0.1667
      4 C         -12.0300   -1.5359   18.2093 C.ar    1  UNL1        0.1117
      5 C         -10.7389   -1.3033   17.4819 C.ar    1  UNL1        0.0968
      6 N         -10.0220   -2.6169   17.3787 N.ar    1  UNL1       -0.2924
      7 N         -10.8700   -3.6612   18.0422 N.ar    1  UNL1       -0.2587
      8 C         -13.1423   -0.6089   18.6010 C.ar    1  UNL1        0.2860
      9 O         -13.0614    0.8483   18.2547 O.2     1  UNL1       -0.2650
     10 N         -14.3358   -1.1393   19.3390 N.ar    1  UNL1       -0.1749
     11 H          -9.1483   -2.7672   16.9506 H       1  UNL1        0.1871
     12 C         -10.5357   -5.1179   18.1700 C.3     1  UNL1        0.1046
     13 C          -9.5773   -5.7195   19.1546 C.3     1  UNL1        0.0243
     14 C          -9.5504   -7.2021   18.9286 C.3     1  UNL1        0.0021
     15 C         -10.4922   -7.5169   17.8044 C.3     1  UNL1        0.0021
     16 C         -11.1011   -6.2288   17.3355 C.3     1  UNL1        0.0243
     17 N         -15.6102   -3.1268   20.4232 N.pl3   1  UNL1       -0.2968
     18 H         -15.6040   -3.1641   21.4070 H       1  UNL1        0.1500
     19 C         -18.1888   -3.2153   20.1191 C.3     1  UNL1        0.0312
     20 C         -16.8130   -3.6003   19.6623 C.3     1  UNL1        0.1490
     21 C         -16.6400   -4.4589   18.4445 C.2     1  UNL1        0.2435
     22 O         -16.3928   -3.8239   17.1082 O.2     1  UNL1       -0.2731
     23 N         -16.7141   -5.9523   18.5629 N.am    1  UNL1       -0.2781
     24 C         -16.5951   -7.0996   17.6040 C.3     1  UNL1        0.0952
     25 C         -16.8191   -8.0643   18.7305 C.3     1  UNL1        0.0419
     26 C         -16.7000   -9.2117   17.7716 C.3     1  UNL1        0.0387
     27 C         -16.9240  -10.1765   18.8980 C.3     1  UNL1        0.1612
     28 F         -16.9982  -11.6699   19.0165 F       1  UNL1       -0.2373
     29 C         -17.0431   -9.0293   19.8569 C.3     1  UNL1        0.0387
     30 C         -16.9382   -6.9171   19.6894 C.3     1  UNL1        0.0952
@<TRIPOS>BOND
     1    20    19    1
     2    20    17    1
     3    17     1    1
     4     1     2   ar
     5     2     3   ar
     6     3     4    1
     7     4     5   ar
     8     5     6   ar
     9     6     7   ar
    10     7    12    1
    11    12    13    1
    12    13    14    1
    13    14    15    1
    14    15    16    1
    15     4     8   ar
    16     8     9    2
    17     8    10   ar
    18    20    21    1
    19    21    22    2
    20    21    23   am
    21    23    24    1
    22    24    25    1
    23    25    26    1
    24    26    27    1
    25    27    28    1
    26    27    29    1
    27    25    30    1
    28    10     1   ar
    29    30    23    1
    30     7     3   ar
    31    16    12    1
    32    29    25    1
    33    17    18    1
    34     6    11    1
@<TRIPOS>MOLECULE
*****
 30 34 0 0 0
SMALL
GASTEIGER

@<TRIPOS>ATOM
      1 C          -6.6929  -20.3136   20.2289 C.ar    1  UNL1        0.2212
      2 N          -7.4528  -19.4709   21.2099 N.ar    1  UNL1       -0.1948
      3 C          -8.8740  -19.0852   20.9244 C.ar    1  UNL1        0.1667
      4 C          -9.5352  -19.5421   19.6579 C.ar    1  UNL1        0.1117
      5 C         -10.9371  -19.0088   19.6483 C.ar    1  UNL1        0.0968
      6 N         -11.1424  -18.2223   20.9090 N.ar    1  UNL1       -0.2924
      7 N          -9.8673  -18.2695   21.6976 N.ar    1  UNL1       -0.2587
      8 C          -8.7752  -20.3847   18.6769 C.ar    1  UNL1        0.2860
      9 O          -9.4364  -20.8417   17.4103 O.2     1  UNL1       -0.2650
     10 N          -7.3540  -20.7705   18.9624 N.ar    1  UNL1       -0.1749
     11 H         -11.9689  -17.7568   21.1725 H       1  UNL1        0.1871
     12 C          -9.6276  -17.6158   23.0262 C.3     1  UNL1        0.1046
     13 C          -9.5103  -18.3184   24.3463 C.3     1  UNL1        0.0243
     14 C          -9.2734  -17.2815   25.4039 C.3     1  UNL1        0.0021
     15 C          -9.2443  -15.9379   24.7376 C.3     1  UNL1        0.0021
     16 C          -9.4632  -16.1445   23.2681 C.3     1  UNL1        0.0243
     17 N          -5.2717  -20.6993   20.5145 N.pl3   1  UNL1       -0.2968
     18 H          -5.0461  -21.6373   20.7108 H       1  UNL1        0.1500
     19 C          -3.8958  -18.9024   19.2387 C.3     1  UNL1        0.0312
     20 C          -4.1942  -19.6559   20.5009 C.3     1  UNL1        0.1490
     21 C          -3.4151  -19.3658   21.7495 C.2     1  UNL1        0.2435
     22 O          -2.1157  -20.0709   22.0034 O.2     1  UNL1       -0.2731
     23 N          -3.9353  -18.3708   22.7441 N.am    1  UNL1       -0.2781
     24 C          -3.4546  -17.8367   24.0607 C.3     1  UNL1        0.0952
     25 C          -4.6710  -16.9636   24.1506 C.3     1  UNL1        0.0419
     26 C          -4.1903  -16.4294   25.4672 C.3     1  UNL1        0.0387
     27 C          -5.4067  -15.5564   25.5572 C.3     1  UNL1        0.1612
     28 F          -5.9270  -14.5613   26.5517 F       1  UNL1       -0.2373
     29 C          -5.8874  -16.0905   24.2405 C.3     1  UNL1        0.0387
     30 C          -5.1517  -17.4977   22.8339 C.3     1  UNL1        0.0952
@<TRIPOS>BOND
     1    20    19    1
     2    20    17    1
     3    17     1    1
     4     1     2   ar
     5     2     3   ar
     6     3     4    1
     7     4     5   ar
     8     5     6   ar
     9     6     7   ar
    10     7    12    1
    11    12    13    1
    12    13    14    1
    13    14    15    1
    14    15    16    1
    15     4     8   ar
    16     8     9    2
    17     8    10   ar
    18    20    21    1
    19    21    22    2
    20    21    23   am
    21    23    24    1
    22    24    25    1
    23    25    26    1
    24    26    27    1
    25    27    28    1
    26    27    29    1
    27    25    30    1
    28    10     1   ar
    29    30    23    1
    30     7     3   ar
    31    16    12    1
    32    29    25    1
    33    17    18    1
    34     6    11    1
