@<TRIPOS>MOLECULE
*****
 29 31 0 0 0
SMALL
GASTEIGER

@<TRIPOS>ATOM
      1 O          -8.1266  -19.8306   22.4820 O.2     1  UNL1       -0.2732
      2 C          -7.7184  -18.7807   21.4915 C.2     1  UNL1        0.2430
      3 N          -8.0258  -17.3371   21.7592 N.am    1  UNL1       -0.2972
      4 H          -7.7578  -16.6480   21.1092 H       1  UNL1        0.1500
      5 C          -7.0028  -19.1742   20.2334 C.3     1  UNL1        0.1759
      6 N          -5.6322  -18.6346   19.9499 N.am    1  UNL1       -0.2931
      7 C          -4.5163  -18.8724   20.9237 C.2     1  UNL1        0.2462
      8 O          -4.7711  -19.6498   22.1810 O.2     1  UNL1       -0.2701
      9 H          -5.4650  -18.1244   19.1247 H       1  UNL1        0.1502
     10 C          -3.1457  -18.3328   20.6403 C.ar    1  UNL1        0.0535
     11 C          -2.4891  -17.4027   21.6169 C.ar    1  UNL1        0.0068
     12 C          -1.1185  -16.8632   21.3335 C.ar    1  UNL1        0.0298
     13 C          -0.4046  -17.2536   20.0734 C.ar    1  UNL1        0.1401
     14 F           0.9660  -16.7140   19.7899 F       1  UNL1       -0.2042
     15 C          -1.0612  -18.1837   19.0968 C.ar    1  UNL1        0.0298
     16 C          -2.4318  -18.7232   19.3802 C.ar    1  UNL1        0.0068
     17 C          -8.7414  -16.9435   23.0174 C.3     1  UNL1        0.1169
     18 C         -10.2273  -17.1195   23.1215 C.ar    1  UNL1       -0.0003
     19 C         -11.1468  -16.1553   22.4325 C.ar    1  UNL1       -0.0024
     20 C         -12.6329  -16.3312   22.5365 C.ar    1  UNL1       -0.0003
     21 C         -13.1994  -17.4715   23.3296 C.ar    1  UNL1       -0.0000
     22 C         -12.2798  -18.4358   24.0186 C.ar    1  UNL1       -0.0003
     23 C         -10.7938  -18.2598   23.9145 C.ar    1  UNL1       -0.0024
     24 C          -7.9709  -16.3739   24.1715 C.ar    1  UNL1       -0.0003
     25 C          -6.5285  -16.0001   23.9989 C.ar    1  UNL1       -0.0024
     26 C          -5.7581  -15.4305   25.1530 C.ar    1  UNL1       -0.0003
     27 C          -6.4301  -15.2346   26.4798 C.ar    1  UNL1       -0.0000
     28 C          -7.8724  -15.6084   26.6523 C.ar    1  UNL1       -0.0003
     29 C          -8.6429  -16.1780   25.4982 C.ar    1  UNL1       -0.0024
@<TRIPOS>BOND
     1     1     2    2
     2     2     5    1
     3     5     6    1
     4     6     7   am
     5     7     8    2
     6     7    10    1
     7    10    11   ar
     8    11    12   ar
     9    12    13   ar
    10    13    14    1
    11    13    15   ar
    12    15    16   ar
    13     2     3   am
    14     3    17    1
    15    17    18    1
    16    18    19   ar
    17    19    20   ar
    18    20    21   ar
    19    21    22   ar
    20    22    23   ar
    21    17    24    1
    22    24    25   ar
    23    25    26   ar
    24    26    27   ar
    25    27    28   ar
    26    28    29   ar
    27    16    10   ar
    28    23    18   ar
    29    29    24   ar
    30     6     9    1
    31     3     4    1
@<TRIPOS>MOLECULE
*****
 29 31 0 0 0
SMALL
GASTEIGER

@<TRIPOS>ATOM
      1 O          -8.1278  -19.8330   22.5351 O.2     1  UNL1       -0.2732
      2 C          -7.7703  -18.7648   21.5445 C.2     1  UNL1        0.2430
      3 N          -8.1252  -17.3343   21.8232 N.am    1  UNL1       -0.2972
      4 H          -7.8905  -16.6333   21.1731 H       1  UNL1        0.1500
      5 C          -7.0580  -19.1271   20.2752 C.3     1  UNL1        0.1759
      6 N          -5.6902  -18.5764   19.9992 N.am    1  UNL1       -0.2931
      7 C          -4.5538  -18.8918   20.9260 C.2     1  UNL1        0.2462
      8 O          -4.7849  -19.7578   22.1287 O.2     1  UNL1       -0.2701
      9 H          -5.5385  -18.0080   19.2098 H       1  UNL1        0.1502
     10 C          -3.1860  -18.3411   20.6500 C.ar    1  UNL1        0.0535
     11 C          -2.4508  -18.7469   19.4071 C.ar    1  UNL1        0.0068
     12 C          -1.0832  -18.1962   19.1312 C.ar    1  UNL1        0.0298
     13 C          -0.4507  -17.2397   20.0982 C.ar    1  UNL1        0.1401
     14 F           0.9171  -16.6890   19.8223 F       1  UNL1       -0.2042
     15 C          -1.1858  -16.8339   21.3411 C.ar    1  UNL1        0.0298
     16 C          -2.5535  -17.3846   21.6170 C.ar    1  UNL1        0.0068
     17 C          -8.8376  -16.9719   23.0926 C.3     1  UNL1        0.1169
     18 C          -8.0681  -16.4060   24.2492 C.ar    1  UNL1       -0.0003
     19 C          -6.6206  -16.0489   24.0841 C.ar    1  UNL1       -0.0024
     20 C          -5.8511  -15.4830   25.2406 C.ar    1  UNL1       -0.0003
     21 C          -6.5291  -15.2741   26.5623 C.ar    1  UNL1       -0.0000
     22 C          -7.9767  -15.6312   26.7273 C.ar    1  UNL1       -0.0003
     23 C          -8.7461  -16.1971   25.5708 C.ar    1  UNL1       -0.0024
     24 C         -10.3194  -17.1755   23.2054 C.ar    1  UNL1       -0.0003
     25 C         -10.8606  -18.3051   24.0308 C.ar    1  UNL1       -0.0024
     26 C         -12.3424  -18.5087   24.1436 C.ar    1  UNL1       -0.0003
     27 C         -13.2831  -17.5827   23.4309 C.ar    1  UNL1       -0.0000
     28 C         -12.7419  -16.4532   22.6056 C.ar    1  UNL1       -0.0003
     29 C         -11.2600  -16.2496   22.4928 C.ar    1  UNL1       -0.0024
@<TRIPOS>BOND
     1     1     2    2
     2     2     5    1
     3     5     6    1
     4     6     7   am
     5     7     8    2
     6     7    10    1
     7    10    11   ar
     8    11    12   ar
     9    12    13   ar
    10    13    14    1
    11    13    15   ar
    12    15    16   ar
    13     2     3   am
    14     3    17    1
    15    17    18    1
    16    18    19   ar
    17    19    20   ar
    18    20    21   ar
    19    21    22   ar
    20    22    23   ar
    21    17    24    1
    22    24    25   ar
    23    25    26   ar
    24    26    27   ar
    25    27    28   ar
    26    28    29   ar
    27    16    10   ar
    28    23    18   ar
    29    29    24   ar
    30     6     9    1
    31     3     4    1
@<TRIPOS>MOLECULE
*****
 29 31 0 0 0
SMALL
GASTEIGER

@<TRIPOS>ATOM
      1 O          -9.5155  -17.1353   20.8283 O.2     1  UNL1       -0.2732
      2 C          -8.6590  -18.2808   21.2805 C.2     1  UNL1        0.2430
      3 N          -8.5496  -18.6046   22.7410 N.am    1  UNL1       -0.2972
      4 H          -7.9875  -19.3564   23.0377 H       1  UNL1        0.1500
      5 C          -7.9119  -19.1023   20.2721 C.3     1  UNL1        0.1759
      6 N          -6.4705  -18.8049   19.9820 N.am    1  UNL1       -0.2931
      7 C          -5.4051  -19.2524   20.9384 C.2     1  UNL1        0.2462
      8 O          -5.7810  -19.9974   22.1849 O.2     1  UNL1       -0.2701
      9 H          -6.2238  -18.3159   19.1639 H       1  UNL1        0.1502
     10 C          -3.9638  -18.9549   20.6483 C.ar    1  UNL1        0.0535
     11 C          -3.5372  -18.5987   19.2551 C.ar    1  UNL1        0.0068
     12 C          -2.0959  -18.3012   18.9651 C.ar    1  UNL1        0.0298
     13 C          -1.0812  -18.3601   20.0682 C.ar    1  UNL1        0.1401
     14 F           0.3602  -18.0626   19.7781 F       1  UNL1       -0.2042
     15 C          -1.5078  -18.7163   21.4614 C.ar    1  UNL1        0.0298
     16 C          -2.9491  -19.0137   21.7514 C.ar    1  UNL1        0.0068
     17 C          -9.2968  -17.7830   23.7494 C.3     1  UNL1        0.1169
     18 C         -10.7966  -17.8000   23.7677 C.ar    1  UNL1       -0.0003
     19 C         -11.5249  -18.7988   24.6173 C.ar    1  UNL1       -0.0024
     20 C         -13.0248  -18.8158   24.6356 C.ar    1  UNL1       -0.0003
     21 C         -13.7962  -17.8341   23.8043 C.ar    1  UNL1       -0.0000
     22 C         -13.0677  -16.8353   22.9546 C.ar    1  UNL1       -0.0003
     23 C         -11.5680  -16.8183   22.9364 C.ar    1  UNL1       -0.0024
     24 C          -8.5441  -16.9445   24.7395 C.ar    1  UNL1       -0.0003
     25 C          -8.9018  -17.0007   26.1952 C.ar    1  UNL1       -0.0024
     26 C          -8.1491  -16.1621   27.1853 C.ar    1  UNL1       -0.0003
     27 C          -7.0387  -15.2674   26.7197 C.ar    1  UNL1       -0.0000
     28 C          -6.6812  -15.2113   25.2641 C.ar    1  UNL1       -0.0003
     29 C          -7.4338  -16.0498   24.2740 C.ar    1  UNL1       -0.0024
@<TRIPOS>BOND
     1     1     2    2
     2     2     5    1
     3     5     6    1
     4     6     7   am
     5     7     8    2
     6     7    10    1
     7    10    11   ar
     8    11    12   ar
     9    12    13   ar
    10    13    14    1
    11    13    15   ar
    12    15    16   ar
    13     2     3   am
    14     3    17    1
    15    17    18    1
    16    18    19   ar
    17    19    20   ar
    18    20    21   ar
    19    21    22   ar
    20    22    23   ar
    21    17    24    1
    22    24    25   ar
    23    25    26   ar
    24    26    27   ar
    25    27    28   ar
    26    28    29   ar
    27    16    10   ar
    28    23    18   ar
    29    29    24   ar
    30     6     9    1
    31     3     4    1
@<TRIPOS>MOLECULE
*****
 29 31 0 0 0
SMALL
GASTEIGER

@<TRIPOS>ATOM
      1 O          -5.6222  -18.2847   19.6736 O.2     1  UNL1       -0.2732
      2 C          -6.4916  -18.9833   20.6766 C.2     1  UNL1        0.2430
      3 N          -6.1912  -18.8646   22.1413 N.am    1  UNL1       -0.2972
      4 H          -6.7618  -19.3232   22.7996 H       1  UNL1        0.1500
      5 C          -7.6615  -19.8007   20.2148 C.3     1  UNL1        0.1759
      6 N          -8.9718  -19.7112   20.9395 N.am    1  UNL1       -0.2931
      7 C          -9.4463  -18.3912   21.4709 C.2     1  UNL1        0.2462
      8 O          -8.6106  -17.1606   21.2776 O.2     1  UNL1       -0.2701
      9 H          -9.5203  -20.5188   21.0665 H       1  UNL1        0.1502
     10 C         -10.7566  -18.3017   22.1957 C.ar    1  UNL1        0.0535
     11 C         -10.8332  -18.6502   23.6526 C.ar    1  UNL1        0.0068
     12 C         -12.1434  -18.5606   24.3773 C.ar    1  UNL1        0.0298
     13 C         -13.3771  -18.1227   23.6450 C.ar    1  UNL1        0.1401
     14 F         -14.6874  -18.0332   24.3698 F       1  UNL1       -0.2042
     15 C         -13.3006  -17.7742   22.1881 C.ar    1  UNL1        0.0298
     16 C         -11.9903  -17.8637   21.4634 C.ar    1  UNL1        0.0068
     17 C          -5.0213  -18.0472   22.6032 C.3     1  UNL1        0.1169
     18 C          -3.6852  -18.2090   21.9409 C.ar    1  UNL1       -0.0003
     19 C          -2.8827  -16.9986   21.5657 C.ar    1  UNL1       -0.0024
     20 C          -1.5465  -17.1603   20.9034 C.ar    1  UNL1       -0.0003
     21 C          -1.0129  -18.5325   20.6164 C.ar    1  UNL1       -0.0000
     22 C          -1.8155  -19.7429   20.9916 C.ar    1  UNL1       -0.0003
     23 C          -3.1516  -19.5812   21.6539 C.ar    1  UNL1       -0.0024
     24 C          -5.1876  -17.0681   23.7273 C.ar    1  UNL1       -0.0003
     25 C          -4.2941  -17.1477   24.9296 C.ar    1  UNL1       -0.0024
     26 C          -4.4604  -16.1686   26.0537 C.ar    1  UNL1       -0.0003
     27 C          -5.5201  -15.1098   25.9755 C.ar    1  UNL1       -0.0000
     28 C          -6.4135  -15.0301   24.7732 C.ar    1  UNL1       -0.0003
     29 C          -6.2472  -16.0093   23.6491 C.ar    1  UNL1       -0.0024
@<TRIPOS>BOND
     1     1     2    2
     2     2     5    1
     3     5     6    1
     4     6     7   am
     5     7     8    2
     6     7    10    1
     7    10    11   ar
     8    11    12   ar
     9    12    13   ar
    10    13    14    1
    11    13    15   ar
    12    15    16   ar
    13     2     3   am
    14     3    17    1
    15    17    18    1
    16    18    19   ar
    17    19    20   ar
    18    20    21   ar
    19    21    22   ar
    20    22    23   ar
    21    17    24    1
    22    24    25   ar
    23    25    26   ar
    24    26    27   ar
    25    27    28   ar
    26    28    29   ar
    27    16    10   ar
    28    23    18   ar
    29    29    24   ar
    30     6     9    1
    31     3     4    1
@<TRIPOS>MOLECULE
*****
 29 31 0 0 0
SMALL
GASTEIGER

@<TRIPOS>ATOM
      1 O          -5.6409  -18.2026   19.6700 O.2     1  UNL1       -0.2732
      2 C          -6.4995  -18.9353   20.6579 C.2     1  UNL1        0.2430
      3 N          -6.1886  -18.8593   22.1233 N.am    1  UNL1       -0.2972
      4 H          -6.7522  -19.3402   22.7717 H       1  UNL1        0.1500
      5 C          -7.6691  -19.7440   20.1803 C.3     1  UNL1        0.1759
      6 N          -8.9831  -19.6593   20.8990 N.am    1  UNL1       -0.2931
      7 C          -9.4557  -18.3447   21.4453 C.2     1  UNL1        0.2462
      8 O          -8.6144  -17.1148   21.2731 O.2     1  UNL1       -0.2701
      9 H          -9.5352  -20.4665   21.0121 H       1  UNL1        0.1502
     10 C         -10.7696  -18.2600   22.1640 C.ar    1  UNL1        0.0535
     11 C         -11.9972  -17.8056   21.4315 C.ar    1  UNL1        0.0068
     12 C         -13.3111  -17.7209   22.1502 C.ar    1  UNL1        0.0298
     13 C         -13.3974  -18.0906   23.6013 C.ar    1  UNL1        0.1401
     14 F         -14.7113  -18.0059   24.3200 F       1  UNL1       -0.2042
     15 C         -12.1698  -18.5450   24.3338 C.ar    1  UNL1        0.0298
     16 C         -10.8560  -18.6297   23.6152 C.ar    1  UNL1        0.0068
     17 C          -5.0190  -18.0506   22.6009 C.3     1  UNL1        0.1169
     18 C          -5.1913  -17.0759   23.7280 C.ar    1  UNL1       -0.0003
     19 C          -4.2966  -17.1529   24.9294 C.ar    1  UNL1       -0.0024
     20 C          -4.4689  -16.1782   26.0566 C.ar    1  UNL1       -0.0003
     21 C          -5.5359  -15.1266   25.9822 C.ar    1  UNL1       -0.0000
     22 C          -6.4306  -15.0496   24.7807 C.ar    1  UNL1       -0.0003
     23 C          -6.2583  -16.0243   23.6536 C.ar    1  UNL1       -0.0024
     24 C          -3.6771  -18.2165   21.9514 C.ar    1  UNL1       -0.0003
     25 C          -3.1546  -19.5899   21.6499 C.ar    1  UNL1       -0.0024
     26 C          -1.8127  -19.7559   21.0004 C.ar    1  UNL1       -0.0003
     27 C          -0.9934  -18.5485   20.6524 C.ar    1  UNL1       -0.0000
     28 C          -1.5160  -17.1752   20.9539 C.ar    1  UNL1       -0.0003
     29 C          -2.8578  -17.0092   21.6035 C.ar    1  UNL1       -0.0024
@<TRIPOS>BOND
     1     1     2    2
     2     2     5    1
     3     5     6    1
     4     6     7   am
     5     7     8    2
     6     7    10    1
     7    10    11   ar
     8    11    12   ar
     9    12    13   ar
    10    13    14    1
    11    13    15   ar
    12    15    16   ar
    13     2     3   am
    14     3    17    1
    15    17    18    1
    16    18    19   ar
    17    19    20   ar
    18    20    21   ar
    19    21    22   ar
    20    22    23   ar
    21    17    24    1
    22    24    25   ar
    23    25    26   ar
    24    26    27   ar
    25    27    28   ar
    26    28    29   ar
    27    16    10   ar
    28    23    18   ar
    29    29    24   ar
    30     6     9    1
    31     3     4    1
