@<TRIPOS>MOLECULE
*****
 31 35 0 0 0
SMALL
GASTEIGER

@<TRIPOS>ATOM
      1 C           5.9381   -3.8621   23.8616 C.ar    1  UNL1        0.0989
      2 C           5.4297   -2.6181   24.5278 C.ar    1  UNL1        0.0207
      3 C           4.5132   -1.6911   23.7858 C.ar    1  UNL1        0.0031
      4 C           4.1051   -2.0081   22.3777 C.ar    1  UNL1        0.0174
      5 C           3.1885   -1.0811   21.6357 C.ar    1  UNL1       -0.0027
      6 C           2.7804   -1.3981   20.2275 C.ar    1  UNL1       -0.0207
      7 C           3.2889   -2.6422   19.5613 C.ar    1  UNL1       -0.0027
      8 C           4.2054   -3.5692   20.3033 C.ar    1  UNL1        0.0188
      9 C           4.6135   -3.2522   21.7115 C.ar    1  UNL1        0.0813
     10 N           5.5300   -4.1792   22.4535 N.ar    1  UNL1       -0.2438
     11 C           9.5359   -7.6113   23.8306 C.3     1  UNL1        0.0522
     12 C           8.6536   -6.6638   24.5881 C.ar    1  UNL1        0.0626
     13 C           7.7370   -5.7367   23.8461 C.ar    1  UNL1        0.0354
     14 C           6.8547   -4.7892   24.6036 C.ar    1  UNL1        0.1017
     15 N           6.8890   -4.7688   26.1031 N.ar    1  UNL1       -0.2251
     16 C           7.8055   -5.6958   26.8451 C.ar    1  UNL1        0.1619
     17 N           8.6878   -6.6433   26.0876 N.ar    1  UNL1       -0.2309
     18 C           7.8397   -5.6753   28.3445 C.ar    1  UNL1        0.0358
     19 C           8.8794   -6.4663   29.0818 C.ar    1  UNL1        0.0030
     20 C           8.9136   -6.4459   30.5813 C.ar    1  UNL1        0.0001
     21 C           7.9082   -5.6344   31.3435 C.ar    1  UNL1        0.0000
     22 C           6.8687   -4.8435   30.6061 C.ar    1  UNL1        0.0001
     23 C           6.8344   -4.8640   29.1067 C.ar    1  UNL1        0.0030
     24 C           1.8638   -0.4711   19.4855 C.3     1  UNL1        0.0437
     25 C           2.3925    0.3592   18.3535 C.3     1  UNL1        0.0768
     26 N           3.8713    0.4592   18.1237 N.3     1  UNL1       -0.2737
     27 C           4.6488   -0.2578   17.0599 C.3     1  UNL1        0.0721
     28 C           6.0904    0.1337   17.1960 C.3     1  UNL1        0.0187
     29 C           6.2039    1.0926   18.3439 C.3     1  UNL1        0.0174
     30 C           4.8325    1.2937   18.9172 C.3     1  UNL1        0.0576
     31 C           4.4835    2.1747   20.0800 C.3     1  UNL1        0.0173
@<TRIPOS>BOND
     1    11    12    1
     2    12    13   ar
     3    13    14   ar
     4    14     1    1
     5     1     2   ar
     6     2     3   ar
     7     3     4   ar
     8     4     5   ar
     9     5     6   ar
    10     6    24    1
    11    24    25    1
    12    25    26    1
    13    26    27    1
    14    27    28    1
    15    28    29    1
    16    29    30    1
    17    30    31    1
    18     6     7   ar
    19     7     8   ar
    20     8     9   ar
    21     9    10   ar
    22    14    15   ar
    23    15    16   ar
    24    16    18    1
    25    18    19   ar
    26    19    20   ar
    27    20    21   ar
    28    21    22   ar
    29    22    23   ar
    30    16    17   ar
    31    17    12   ar
    32    10     1   ar
    33    23    18   ar
    34     9     4   ar
    35    30    26    1
@<TRIPOS>MOLECULE
*****
 31 35 0 0 0
SMALL
GASTEIGER

@<TRIPOS>ATOM
      1 C           0.5011    1.3345   19.7211 C.ar    1  UNL1        0.0989
      2 C           0.5376    0.3597   20.8606 C.ar    1  UNL1        0.0207
      3 C           1.5524   -0.7447   20.8705 C.ar    1  UNL1        0.0031
      4 C           2.5309   -0.8744   19.7409 C.ar    1  UNL1        0.0174
      5 C           3.5458   -1.9790   19.7509 C.ar    1  UNL1       -0.0027
      6 C           4.5242   -2.1086   18.6214 C.ar    1  UNL1       -0.0207
      7 C           4.4877   -1.1337   17.4819 C.ar    1  UNL1       -0.0027
      8 C           3.4728   -0.0293   17.4720 C.ar    1  UNL1        0.0188
      9 C           2.4944    0.1004   18.6015 C.ar    1  UNL1        0.0813
     10 N           1.4795    1.2048   18.5916 N.ar    1  UNL1       -0.2438
     11 C          -1.5280    5.5613   17.4813 C.3     1  UNL1        0.0522
     12 C          -1.5284    4.5525   18.5913 C.ar    1  UNL1        0.0626
     13 C          -0.5134    3.4479   18.6012 C.ar    1  UNL1        0.0354
     14 C          -0.5138    2.4391   19.7112 C.ar    1  UNL1        0.1017
     15 N          -1.5290    2.5346   20.8113 N.ar    1  UNL1       -0.2251
     16 C          -2.5439    3.6391   20.8014 C.ar    1  UNL1        0.1619
     17 N          -2.5436    4.6481   19.6913 N.ar    1  UNL1       -0.2309
     18 C          -3.5591    3.7347   21.9015 C.ar    1  UNL1        0.0358
     19 C          -5.0145    3.8795   21.5684 C.ar    1  UNL1        0.0030
     20 C          -6.0298    3.9751   22.6685 C.ar    1  UNL1        0.0001
     21 C          -5.5896    3.9259   24.1016 C.ar    1  UNL1        0.0000
     22 C          -4.1342    3.7811   24.4346 C.ar    1  UNL1        0.0001
     23 C          -3.1190    3.6855   23.3346 C.ar    1  UNL1        0.0030
     24 C           5.5391   -3.2131   18.6313 C.3     1  UNL1        0.0437
     25 C           5.4923   -4.2651   19.6996 C.3     1  UNL1        0.0768
     26 N           6.4152   -4.1780   20.8788 N.3     1  UNL1       -0.2737
     27 C           7.8908   -4.4472   20.8654 C.3     1  UNL1        0.0721
     28 C           8.4122   -4.2420   22.2568 C.3     1  UNL1        0.0187
     29 C           7.2587   -3.8459   23.1302 C.3     1  UNL1        0.0174
     30 C           6.0246   -3.8064   22.2785 C.3     1  UNL1        0.0576
     31 C           4.6425   -3.4566   22.7448 C.3     1  UNL1        0.0173
@<TRIPOS>BOND
     1    11    12    1
     2    12    13   ar
     3    13    14   ar
     4    14     1    1
     5     1     2   ar
     6     2     3   ar
     7     3     4   ar
     8     4     5   ar
     9     5     6   ar
    10     6    24    1
    11    24    25    1
    12    25    26    1
    13    26    27    1
    14    27    28    1
    15    28    29    1
    16    29    30    1
    17    30    31    1
    18     6     7   ar
    19     7     8   ar
    20     8     9   ar
    21     9    10   ar
    22    14    15   ar
    23    15    16   ar
    24    16    18    1
    25    18    19   ar
    26    19    20   ar
    27    20    21   ar
    28    21    22   ar
    29    22    23   ar
    30    16    17   ar
    31    17    12   ar
    32    10     1   ar
    33    23    18   ar
    34     9     4   ar
    35    30    26    1
@<TRIPOS>MOLECULE
*****
 31 35 0 0 0
SMALL
GASTEIGER

@<TRIPOS>ATOM
      1 C          -1.1323    2.6079   19.9246 C.ar    1  UNL1        0.0989
      2 C          -0.4263    3.3076   18.8014 C.ar    1  UNL1        0.0207
      3 C           0.8278    2.7219   18.2233 C.ar    1  UNL1        0.0031
      4 C           1.3758    1.4364   18.7685 C.ar    1  UNL1        0.0174
      5 C           2.6300    0.8507   18.1904 C.ar    1  UNL1       -0.0027
      6 C           3.1780   -0.4348   18.7357 C.ar    1  UNL1       -0.0207
      7 C           2.4718   -1.1345   19.8590 C.ar    1  UNL1       -0.0027
      8 C           1.2177   -0.5488   20.4370 C.ar    1  UNL1        0.0188
      9 C           0.6697    0.7367   19.8918 C.ar    1  UNL1        0.0813
     10 N          -0.5843    1.3224   20.4698 N.ar    1  UNL1       -0.2438
     11 C          -5.8412    4.7030   19.2632 C.3     1  UNL1        0.0522
     12 C          -4.7409    4.2412   20.1720 C.ar    1  UNL1        0.0626
     13 C          -3.4868    3.6554   19.5939 C.ar    1  UNL1        0.0354
     14 C          -2.3865    3.1936   20.5027 C.ar    1  UNL1        0.1017
     15 N          -2.5402    3.3174   21.9897 N.ar    1  UNL1       -0.2251
     16 C          -3.7943    3.9031   22.5678 C.ar    1  UNL1        0.1619
     17 N          -4.8947    4.3650   21.6590 N.ar    1  UNL1       -0.2309
     18 C          -3.9481    4.0269   24.0548 C.ar    1  UNL1        0.0358
     19 C          -5.2062    4.6038   24.6332 C.ar    1  UNL1        0.0030
     20 C          -5.3599    4.7276   26.1201 C.ar    1  UNL1        0.0001
     21 C          -4.2556    4.2745   27.0287 C.ar    1  UNL1        0.0000
     22 C          -2.9976    3.6977   26.4502 C.ar    1  UNL1        0.0001
     23 C          -2.8439    3.5739   24.9633 C.ar    1  UNL1        0.0030
     24 C           4.4320   -1.0205   18.1576 C.3     1  UNL1        0.0437
     25 C           4.7797   -2.4559   18.4201 C.3     1  UNL1        0.0768
     26 N           5.9128   -2.7967   19.3420 N.3     1  UNL1       -0.2737
     27 C           7.3663   -2.5239   19.0909 C.3     1  UNL1        0.0721
     28 C           8.1432   -3.0286   20.2705 C.3     1  UNL1        0.0187
     29 C           7.1699   -3.6134   21.2507 C.3     1  UNL1        0.0174
     30 C           5.7914   -3.4700   20.6768 C.3     1  UNL1        0.0576
     31 C           4.5156   -3.9209   21.3241 C.3     1  UNL1        0.0173
@<TRIPOS>BOND
     1    11    12    1
     2    12    13   ar
     3    13    14   ar
     4    14     1    1
     5     1     2   ar
     6     2     3   ar
     7     3     4   ar
     8     4     5   ar
     9     5     6   ar
    10     6    24    1
    11    24    25    1
    12    25    26    1
    13    26    27    1
    14    27    28    1
    15    28    29    1
    16    29    30    1
    17    30    31    1
    18     6     7   ar
    19     7     8   ar
    20     8     9   ar
    21     9    10   ar
    22    14    15   ar
    23    15    16   ar
    24    16    18    1
    25    18    19   ar
    26    19    20   ar
    27    20    21   ar
    28    21    22   ar
    29    22    23   ar
    30    16    17   ar
    31    17    12   ar
    32    10     1   ar
    33    23    18   ar
    34     9     4   ar
    35    30    26    1
@<TRIPOS>MOLECULE
*****
 31 35 0 0 0
SMALL
GASTEIGER

@<TRIPOS>ATOM
      1 C           5.8245   -3.6728   23.8078 C.ar    1  UNL1        0.0989
      2 C           5.3127   -2.4558   24.5197 C.ar    1  UNL1        0.0207
      3 C           4.3657   -1.5231   23.8246 C.ar    1  UNL1        0.0031
      4 C           3.9304   -1.8075   22.4175 C.ar    1  UNL1        0.0174
      5 C           2.9834   -0.8748   21.7224 C.ar    1  UNL1       -0.0027
      6 C           2.5481   -1.1592   20.3154 C.ar    1  UNL1       -0.0207
      7 C           3.0599   -2.3764   19.6035 C.ar    1  UNL1       -0.0027
      8 C           4.0070   -3.3090   20.2987 C.ar    1  UNL1        0.0188
      9 C           4.4422   -3.0246   21.7057 C.ar    1  UNL1        0.0813
     10 N           5.3892   -3.9573   22.4008 N.ar    1  UNL1       -0.2438
     11 C           9.5359   -7.3031   23.5911 C.3     1  UNL1        0.0522
     12 C           8.6273   -6.4207   24.3946 C.ar    1  UNL1        0.0626
     13 C           7.6802   -5.4880   23.6995 C.ar    1  UNL1        0.0354
     14 C           6.7716   -4.6056   24.5030 C.ar    1  UNL1        0.1017
     15 N           6.8100   -4.6558   26.0016 N.ar    1  UNL1       -0.2251
     16 C           7.7570   -5.5884   26.6968 C.ar    1  UNL1        0.1619
     17 N           8.6657   -6.4709   25.8933 N.ar    1  UNL1       -0.2309
     18 C           7.7953   -5.6387   28.1955 C.ar    1  UNL1        0.0358
     19 C           6.8395   -4.8070   28.9985 C.ar    1  UNL1        0.0030
     20 C           6.8779   -4.8572   30.4972 C.ar    1  UNL1        0.0001
     21 C           7.8721   -5.7392   31.1928 C.ar    1  UNL1        0.0000
     22 C           8.8279   -6.5708   30.3898 C.ar    1  UNL1        0.0001
     23 C           8.7895   -6.5205   28.8911 C.ar    1  UNL1        0.0030
     24 C           1.6011   -0.2266   19.6203 C.3     1  UNL1        0.0437
     25 C           1.9948    0.4108   18.3207 C.3     1  UNL1        0.0768
     26 N           3.1099    1.4134   18.2846 N.3     1  UNL1       -0.2737
     27 C           2.9828    2.8836   18.5538 C.3     1  UNL1        0.0721
     28 C           4.3423    3.5007   18.4085 C.3     1  UNL1        0.0187
     29 C           5.3096    2.4118   18.0495 C.3     1  UNL1        0.0174
     30 C           4.5479    1.1218   17.9730 C.3     1  UNL1        0.0576
     31 C           5.1232   -0.2235   17.6427 C.3     1  UNL1        0.0173
@<TRIPOS>BOND
     1    11    12    1
     2    12    13   ar
     3    13    14   ar
     4    14     1    1
     5     1     2   ar
     6     2     3   ar
     7     3     4   ar
     8     4     5   ar
     9     5     6   ar
    10     6    24    1
    11    24    25    1
    12    25    26    1
    13    26    27    1
    14    27    28    1
    15    28    29    1
    16    29    30    1
    17    30    31    1
    18     6     7   ar
    19     7     8   ar
    20     8     9   ar
    21     9    10   ar
    22    14    15   ar
    23    15    16   ar
    24    16    18    1
    25    18    19   ar
    26    19    20   ar
    27    20    21   ar
    28    21    22   ar
    29    22    23   ar
    30    16    17   ar
    31    17    12   ar
    32    10     1   ar
    33    23    18   ar
    34     9     4   ar
    35    30    26    1
@<TRIPOS>MOLECULE
*****
 31 35 0 0 0
SMALL
GASTEIGER

@<TRIPOS>ATOM
      1 C           1.3142    0.9604   23.2647 C.ar    1  UNL1        0.0989
      2 C           0.6921    1.0069   21.9006 C.ar    1  UNL1        0.0207
      3 C           1.1863    0.0920   20.8195 C.ar    1  UNL1        0.0031
      4 C           2.3024   -0.8693   21.1025 C.ar    1  UNL1        0.0174
      5 C           2.7965   -1.7842   20.0213 C.ar    1  UNL1       -0.0027
      6 C           3.9127   -2.7455   20.3043 C.ar    1  UNL1       -0.0207
      7 C           4.5347   -2.7919   21.6686 C.ar    1  UNL1       -0.0027
      8 C           4.0406   -1.8771   22.7497 C.ar    1  UNL1        0.0188
      9 C           2.9244   -0.9158   22.4666 C.ar    1  UNL1        0.0813
     10 N           2.4303   -0.0009   23.5477 N.ar    1  UNL1       -0.2438
     11 C           2.2243    3.8062   27.5161 C.3     1  UNL1        0.0522
     12 C           1.2751    3.2982   26.4716 C.ar    1  UNL1        0.0626
     13 C           1.7692    2.3833   25.3904 C.ar    1  UNL1        0.0354
     14 C           0.8201    1.8753   24.3459 C.ar    1  UNL1        0.1017
     15 N          -0.6232    2.2822   24.3826 N.ar    1  UNL1       -0.2251
     16 C          -1.1174    3.1970   25.4637 C.ar    1  UNL1        0.1619
     17 N          -0.1682    3.7050   26.5082 N.ar    1  UNL1       -0.2309
     18 C          -2.5607    3.6038   25.5003 C.ar    1  UNL1        0.0358
     19 C          -3.3874    3.5490   24.2498 C.ar    1  UNL1        0.0030
     20 C          -4.8307    3.9558   24.2864 C.ar    1  UNL1        0.0001
     21 C          -5.4473    4.4176   25.5736 C.ar    1  UNL1        0.0000
     22 C          -4.6206    4.4724   26.8240 C.ar    1  UNL1        0.0001
     23 C          -3.1773    4.0655   26.7874 C.ar    1  UNL1        0.0030
     24 C           4.4068   -3.6604   19.2232 C.3     1  UNL1        0.0437
     25 C           5.4505   -3.1842   18.2567 C.3     1  UNL1        0.0768
     26 N           5.8371   -1.7353   18.2240 N.3     1  UNL1       -0.2737
     27 C           7.0241   -1.1239   18.9077 C.3     1  UNL1        0.0721
     28 C           7.0253    0.3459   18.6081 C.3     1  UNL1        0.0187
     29 C           5.8391    0.6428   17.7393 C.3     1  UNL1        0.0174
     30 C           5.1048   -0.6434   17.5019 C.3     1  UNL1        0.0576
     31 C           3.8572   -0.8087   16.6858 C.3     1  UNL1        0.0173
@<TRIPOS>BOND
     1    11    12    1
     2    12    13   ar
     3    13    14   ar
     4    14     1    1
     5     1     2   ar
     6     2     3   ar
     7     3     4   ar
     8     4     5   ar
     9     5     6   ar
    10     6    24    1
    11    24    25    1
    12    25    26    1
    13    26    27    1
    14    27    28    1
    15    28    29    1
    16    29    30    1
    17    30    31    1
    18     6     7   ar
    19     7     8   ar
    20     8     9   ar
    21     9    10   ar
    22    14    15   ar
    23    15    16   ar
    24    16    18    1
    25    18    19   ar
    26    19    20   ar
    27    20    21   ar
    28    21    22   ar
    29    22    23   ar
    30    16    17   ar
    31    17    12   ar
    32    10     1   ar
    33    23    18   ar
    34     9     4   ar
    35    30    26    1
@<TRIPOS>MOLECULE
*****
 31 35 0 0 0
SMALL
GASTEIGER

@<TRIPOS>ATOM
      1 C           6.1595   -3.9481   23.6927 C.ar    1  UNL1        0.0989
      2 C           5.2327   -2.8337   24.0785 C.ar    1  UNL1        0.0207
      3 C           4.5301   -2.0409   23.0166 C.ar    1  UNL1        0.0031
      4 C           4.7544   -2.3626   21.5687 C.ar    1  UNL1        0.0174
      5 C           4.0517   -1.5697   20.5067 C.ar    1  UNL1       -0.0027
      6 C           4.2760   -1.8914   19.0589 C.ar    1  UNL1       -0.0207
      7 C           5.2029   -3.0059   18.6730 C.ar    1  UNL1       -0.0027
      8 C           5.9055   -3.7987   19.7350 C.ar    1  UNL1        0.0188
      9 C           5.6812   -3.4770   21.1829 C.ar    1  UNL1        0.0813
     10 N           6.3838   -4.2698   22.2448 N.ar    1  UNL1       -0.2438
     11 C           9.3827   -7.7924   25.0464 C.3     1  UNL1        0.0522
     12 C           8.4737   -6.6631   25.4316 C.ar    1  UNL1        0.0626
     13 C           7.7711   -5.8703   24.3696 C.ar    1  UNL1        0.0354
     14 C           6.8621   -4.7410   24.7547 C.ar    1  UNL1        0.1017
     15 N           6.6557   -4.4044   26.2018 N.ar    1  UNL1       -0.2251
     16 C           7.3583   -5.1972   27.2638 C.ar    1  UNL1        0.1619
     17 N           8.2673   -6.3266   26.8787 N.ar    1  UNL1       -0.2309
     18 C           7.1519   -4.8607   28.7109 C.ar    1  UNL1        0.0358
     19 C           7.2967   -5.9262   29.7568 C.ar    1  UNL1        0.0030
     20 C           7.0903   -5.5897   31.2039 C.ar    1  UNL1        0.0001
     21 C           6.7391   -4.1876   31.6051 C.ar    1  UNL1        0.0000
     22 C           6.5943   -3.1221   30.5593 C.ar    1  UNL1        0.0001
     23 C           6.8007   -3.4587   29.1122 C.ar    1  UNL1        0.0030
     24 C           3.5734   -1.0986   17.9969 C.3     1  UNL1        0.0437
     25 C           3.5760    0.4003   18.0548 C.3     1  UNL1        0.0768
     26 N           2.4969    1.1238   18.8044 N.3     1  UNL1       -0.2737
     27 C           1.0400    1.1481   18.4479 C.3     1  UNL1        0.0721
     28 C           0.3279    1.9894   19.4653 C.3     1  UNL1        0.0187
     29 C           1.3446    2.4850   20.4506 C.3     1  UNL1        0.0174
     30 C           2.6851    1.9500   20.0421 C.3     1  UNL1        0.0576
     31 C           3.9855    2.1978   20.7475 C.3     1  UNL1        0.0173
@<TRIPOS>BOND
     1    11    12    1
     2    12    13   ar
     3    13    14   ar
     4    14     1    1
     5     1     2   ar
     6     2     3   ar
     7     3     4   ar
     8     4     5   ar
     9     5     6   ar
    10     6    24    1
    11    24    25    1
    12    25    26    1
    13    26    27    1
    14    27    28    1
    15    28    29    1
    16    29    30    1
    17    30    31    1
    18     6     7   ar
    19     7     8   ar
    20     8     9   ar
    21     9    10   ar
    22    14    15   ar
    23    15    16   ar
    24    16    18    1
    25    18    19   ar
    26    19    20   ar
    27    20    21   ar
    28    21    22   ar
    29    22    23   ar
    30    16    17   ar
    31    17    12   ar
    32    10     1   ar
    33    23    18   ar
    34     9     4   ar
    35    30    26    1
@<TRIPOS>MOLECULE
*****
 31 35 0 0 0
SMALL
GASTEIGER

@<TRIPOS>ATOM
      1 C           1.0055    1.5417   23.7408 C.ar    1  UNL1        0.0989
      2 C           2.4930    1.4280   23.8964 C.ar    1  UNL1        0.0207
      3 C           3.3487    1.1033   22.7081 C.ar    1  UNL1        0.0031
      4 C           2.7169    0.8923   21.3641 C.ar    1  UNL1        0.0174
      5 C           3.5728    0.5676   20.1757 C.ar    1  UNL1       -0.0027
      6 C           2.9410    0.3566   18.8317 C.ar    1  UNL1       -0.0207
      7 C           1.4533    0.4703   18.6761 C.ar    1  UNL1       -0.0027
      8 C           0.5976    0.7950   19.8644 C.ar    1  UNL1        0.0188
      9 C           1.2294    1.0060   21.2084 C.ar    1  UNL1        0.0813
     10 N           0.3737    1.3307   22.3968 N.ar    1  UNL1       -0.2438
     11 C           0.1782    1.3841   28.8683 C.3     1  UNL1        0.0522
     12 C          -0.2640    1.7876   27.4929 C.ar    1  UNL1        0.0626
     13 C           0.5918    1.4629   26.3045 C.ar    1  UNL1        0.0354
     14 C           0.1496    1.8664   24.9292 C.ar    1  UNL1        0.1017
     15 N          -1.1483    2.5946   24.7421 N.ar    1  UNL1       -0.2251
     16 C          -2.0041    2.9193   25.9304 C.ar    1  UNL1        0.1619
     17 N          -1.5620    2.5158   27.3059 N.ar    1  UNL1       -0.2309
     18 C          -3.3021    3.6475   25.7434 C.ar    1  UNL1        0.0358
     19 C          -3.9998    3.6079   24.4160 C.ar    1  UNL1        0.0030
     20 C          -5.2977    4.3361   24.2290 C.ar    1  UNL1        0.0001
     21 C          -5.8981    5.1039   25.3693 C.ar    1  UNL1        0.0000
     22 C          -5.2004    5.1434   26.6965 C.ar    1  UNL1        0.0001
     23 C          -3.9024    4.4152   26.8836 C.ar    1  UNL1        0.0030
     24 C           3.7967    0.0319   17.6433 C.3     1  UNL1        0.0437
     25 C           4.0678   -1.3987   17.2827 C.3     1  UNL1        0.0768
     26 N           4.4504   -2.3815   18.3494 N.3     1  UNL1       -0.2737
     27 C           3.5033   -3.2138   19.1621 C.3     1  UNL1        0.0721
     28 C           4.3148   -4.0512   20.1057 C.3     1  UNL1        0.0187
     29 C           5.7633   -3.7364   19.8762 C.3     1  UNL1        0.0174
     30 C           5.8471   -2.7044   18.7908 C.3     1  UNL1        0.0576
     31 C           7.1065   -2.1014   18.2429 C.3     1  UNL1        0.0173
@<TRIPOS>BOND
     1    11    12    1
     2    12    13   ar
     3    13    14   ar
     4    14     1    1
     5     1     2   ar
     6     2     3   ar
     7     3     4   ar
     8     4     5   ar
     9     5     6   ar
    10     6    24    1
    11    24    25    1
    12    25    26    1
    13    26    27    1
    14    27    28    1
    15    28    29    1
    16    29    30    1
    17    30    31    1
    18     6     7   ar
    19     7     8   ar
    20     8     9   ar
    21     9    10   ar
    22    14    15   ar
    23    15    16   ar
    24    16    18    1
    25    18    19   ar
    26    19    20   ar
    27    20    21   ar
    28    21    22   ar
    29    22    23   ar
    30    16    17   ar
    31    17    12   ar
    32    10     1   ar
    33    23    18   ar
    34     9     4   ar
    35    30    26    1
@<TRIPOS>MOLECULE
*****
 31 35 0 0 0
SMALL
GASTEIGER

@<TRIPOS>ATOM
      1 C          -1.0503    2.5725   19.9168 C.ar    1  UNL1        0.0989
      2 C          -0.3258    3.2437   18.7878 C.ar    1  UNL1        0.0207
      3 C           0.9143    2.6218   18.2175 C.ar    1  UNL1        0.0031
      4 C           1.4299    1.3286   18.7761 C.ar    1  UNL1        0.0174
      5 C           2.6700    0.7067   18.2057 C.ar    1  UNL1       -0.0027
      6 C           3.1856   -0.5864   18.7642 C.ar    1  UNL1       -0.0207
      7 C           2.4610   -1.2576   19.8932 C.ar    1  UNL1       -0.0027
      8 C           1.2209   -0.6357   20.4635 C.ar    1  UNL1        0.0188
      9 C           0.7053    0.6574   19.9050 C.ar    1  UNL1        0.0813
     10 N          -0.5347    1.2794   20.4753 N.ar    1  UNL1       -0.2438
     11 C          -5.6708    4.8470   19.2254 C.3     1  UNL1        0.0522
     12 C          -4.6007    4.3317   20.1415 C.ar    1  UNL1        0.0626
     13 C          -3.3606    3.7097   19.5711 C.ar    1  UNL1        0.0354
     14 C          -2.2905    3.1944   20.4872 C.ar    1  UNL1        0.1017
     15 N          -2.4604    3.3010   21.9737 N.ar    1  UNL1       -0.2251
     16 C          -3.7005    3.9229   22.5441 C.ar    1  UNL1        0.1619
     17 N          -4.7707    4.4382   21.6280 N.ar    1  UNL1       -0.2309
     18 C          -3.8705    4.0294   24.0306 C.ar    1  UNL1        0.0358
     19 C          -2.7826    3.5514   24.9461 C.ar    1  UNL1        0.0030
     20 C          -2.9525    3.6580   26.4326 C.ar    1  UNL1        0.0001
     21 C          -4.2104    4.2426   27.0037 C.ar    1  UNL1        0.0000
     22 C          -5.2983    4.7206   26.0882 C.ar    1  UNL1        0.0001
     23 C          -5.1283    4.6140   24.6017 C.ar    1  UNL1        0.0030
     24 C           4.4257   -1.2084   18.1939 C.3     1  UNL1        0.0437
     25 C           5.7716   -0.8360   18.7416 C.3     1  UNL1        0.0768
     26 N           6.1670    0.6074   18.8426 N.3     1  UNL1       -0.2737
     27 C           6.2398    1.4155   20.1043 C.3     1  UNL1        0.0721
     28 C           6.6768    2.8037   19.7411 C.3     1  UNL1        0.0187
     29 C           6.8742    2.8535   18.2549 C.3     1  UNL1        0.0174
     30 C           6.5591    1.4962   17.6997 C.3     1  UNL1        0.0576
     31 C           6.6247    1.0976   16.2551 C.3     1  UNL1        0.0173
@<TRIPOS>BOND
     1    11    12    1
     2    12    13   ar
     3    13    14   ar
     4    14     1    1
     5     1     2   ar
     6     2     3   ar
     7     3     4   ar
     8     4     5   ar
     9     5     6   ar
    10     6    24    1
    11    24    25    1
    12    25    26    1
    13    26    27    1
    14    27    28    1
    15    28    29    1
    16    29    30    1
    17    30    31    1
    18     6     7   ar
    19     7     8   ar
    20     8     9   ar
    21     9    10   ar
    22    14    15   ar
    23    15    16   ar
    24    16    18    1
    25    18    19   ar
    26    19    20   ar
    27    20    21   ar
    28    21    22   ar
    29    22    23   ar
    30    16    17   ar
    31    17    12   ar
    32    10     1   ar
    33    23    18   ar
    34     9     4   ar
    35    30    26    1
@<TRIPOS>MOLECULE
*****
 31 35 0 0 0
SMALL
GASTEIGER

@<TRIPOS>ATOM
      1 C           5.8116   -0.5119   34.2918 C.ar    1  UNL1        0.0989
      2 C           4.6748   -1.3663   33.8147 C.ar    1  UNL1        0.0207
      3 C           4.9389   -2.5191   32.8921 C.ar    1  UNL1        0.0031
      4 C           6.3397   -2.8175   32.4466 C.ar    1  UNL1        0.0174
      5 C           6.6038   -3.9704   31.5239 C.ar    1  UNL1       -0.0027
      6 C           8.0046   -4.2688   31.0783 C.ar    1  UNL1       -0.0207
      7 C           9.1415   -3.4143   31.5554 C.ar    1  UNL1       -0.0027
      8 C           8.8774   -2.2615   32.4780 C.ar    1  UNL1        0.0188
      9 C           7.4765   -1.9631   32.9236 C.ar    1  UNL1        0.0813
     10 N           7.2125   -0.8103   33.8462 N.ar    1  UNL1       -0.2438
     11 C           7.2175    4.0835   36.2683 C.3     1  UNL1        0.0522
     12 C           6.2505    2.9387   36.2027 C.ar    1  UNL1        0.0626
     13 C           6.5146    1.7858   35.2800 C.ar    1  UNL1        0.0354
     14 C           5.5476    0.6410   35.2144 C.ar    1  UNL1        0.1017
     15 N           4.3166    0.6490   36.0715 N.ar    1  UNL1       -0.2251
     16 C           4.0525    1.8018   36.9941 C.ar    1  UNL1        0.1619
     17 N           5.0195    2.9467   37.0597 N.ar    1  UNL1       -0.2309
     18 C           2.8215    1.8098   37.8511 C.ar    1  UNL1        0.0358
     19 C           2.4660    0.6006   38.6645 C.ar    1  UNL1        0.0030
     20 C           1.2349    0.6086   39.5215 C.ar    1  UNL1        0.0001
     21 C           0.3594    1.8258   39.5652 C.ar    1  UNL1        0.0000
     22 C           0.7149    3.0350   38.7519 C.ar    1  UNL1        0.0001
     23 C           1.9459    3.0270   37.8948 C.ar    1  UNL1        0.0030
     24 C           8.2687   -5.4216   30.1557 C.3     1  UNL1        0.0437
     25 C           7.1775   -5.9322   29.2620 C.3     1  UNL1        0.0768
     26 N           7.1008   -5.4749   27.8355 N.3     1  UNL1       -0.2737
     27 C           6.7986   -4.0808   27.3716 C.3     1  UNL1        0.0721
     28 C           6.8239   -4.0756   25.8719 C.3     1  UNL1        0.0187
     29 C           7.1417   -5.4665   25.4089 C.3     1  UNL1        0.0174
     30 C           7.3128   -6.3313   26.6225 C.3     1  UNL1        0.0576
     31 C           7.6387   -7.7955   26.6229 C.3     1  UNL1        0.0173
@<TRIPOS>BOND
     1    11    12    1
     2    12    13   ar
     3    13    14   ar
     4    14     1    1
     5     1     2   ar
     6     2     3   ar
     7     3     4   ar
     8     4     5   ar
     9     5     6   ar
    10     6    24    1
    11    24    25    1
    12    25    26    1
    13    26    27    1
    14    27    28    1
    15    28    29    1
    16    29    30    1
    17    30    31    1
    18     6     7   ar
    19     7     8   ar
    20     8     9   ar
    21     9    10   ar
    22    14    15   ar
    23    15    16   ar
    24    16    18    1
    25    18    19   ar
    26    19    20   ar
    27    20    21   ar
    28    21    22   ar
    29    22    23   ar
    30    16    17   ar
    31    17    12   ar
    32    10     1   ar
    33    23    18   ar
    34     9     4   ar
    35    30    26    1
