@<TRIPOS>MOLECULE
*****
 29 32 0 0 0
SMALL
GASTEIGER

@<TRIPOS>ATOM
      1 C          -1.8152    3.8806   20.3576 C.2     1  UNL1        0.2525
      2 O          -1.9836    5.0856   19.4803 O.2     1  UNL1       -0.2698
      3 N          -0.7587    2.8640   20.0408 N.am    1  UNL1       -0.2660
      4 C          -0.4739    1.6156   20.8221 C.3     1  UNL1        0.1236
      5 C           0.6593    0.8975   20.1513 C.ar    1  UNL1        0.0338
      6 C           1.5357   -0.3180   20.2195 C.ar    1  UNL1        0.0991
      7 N           2.4930   -0.2647   19.0659 N.ar    1  UNL1       -0.2271
      8 N           2.2081    0.9838   18.2846 N.ar    1  UNL1       -0.1680
      9 C           1.0749    1.7020   18.9554 C.ar    1  UNL1        0.0981
     10 C           0.1985    2.9174   18.8871 C.3     1  UNL1        0.1414
     11 C           3.5494   -1.2812   18.7491 C.ar    1  UNL1        0.1042
     12 C           4.7224   -0.9024   17.8943 C.ar    1  UNL1        0.1181
     13 N           5.7790   -1.9190   17.5775 N.ar    1  UNL1       -0.2384
     14 C           5.6625   -3.3143   18.1155 C.ar    1  UNL1        0.1285
     15 C           4.4895   -3.6931   18.9703 C.ar    1  UNL1        0.1607
     16 F           4.3731   -5.0885   19.5084 F       1  UNL1       -0.2025
     17 C           3.4330   -2.6766   19.2871 C.ar    1  UNL1        0.0520
     18 C          -4.1497    3.3418   21.3628 C.ar    1  UNL1        0.1427
     19 C          -5.0377    3.1534   22.5568 C.ar    1  UNL1        0.0377
     20 C          -4.4797    3.3153   23.9397 C.ar    1  UNL1        0.0134
     21 C          -3.0334    3.6657   24.1285 C.ar    1  UNL1        0.0688
     22 C          -2.1453    3.8541   22.9344 C.ar    1  UNL1        0.0178
     23 C          -2.7034    3.6922   21.5516 C.ar    1  UNL1        0.0881
     24 C          -2.4753    3.8276   25.5114 C.1     1  UNL1        0.1004
     25 N          -1.9173    3.9895   26.8943 N.1     1  UNL1       -0.1908
     26 O          -4.7078    3.1799   19.9799 O.3     1  UNL1       -0.4790
     27 C          -6.9356    3.6825   18.7413 C.3     1  UNL1        0.0472
     28 C          -5.7080    4.1666   19.4545 C.3     1  UNL1        0.1661
     29 C          -5.4806    5.6372   19.6424 C.3     1  UNL1        0.0472
@<TRIPOS>BOND
     1    27    28    1
     2    28    29    1
     3    28    26    1
     4    26    18    1
     5    18    19   ar
     6    19    20   ar
     7    20    21   ar
     8    21    24    1
     9    24    25    3
    10    21    22   ar
    11    22    23   ar
    12    23     1    1
    13     1     2    2
    14     1     3   am
    15     3     4    1
    16     4     5    1
    17     5     6   ar
    18     6     7   ar
    19     7    11    1
    20    11    12   ar
    21    12    13   ar
    22    13    14   ar
    23    14    15   ar
    24    15    16    1
    25    15    17   ar
    26     7     8   ar
    27     8     9   ar
    28     9    10    1
    29    23    18   ar
    30    10     3    1
    31     9     5   ar
    32    17    11   ar
@<TRIPOS>MOLECULE
*****
 29 32 0 0 0
SMALL
GASTEIGER

@<TRIPOS>ATOM
      1 C           4.4611   -0.4530   17.7009 C.2     1  UNL1        0.2525
      2 O           4.1330   -1.0734   16.3753 O.2     1  UNL1       -0.2698
      3 N           5.0139   -1.2997   18.8090 N.am    1  UNL1       -0.2660
      4 C           5.3871   -0.8223   20.1811 C.3     1  UNL1        0.1236
      5 C           5.8943   -2.0000   20.9595 C.ar    1  UNL1        0.0338
      6 C           6.4385   -2.4328   22.2886 C.ar    1  UNL1        0.0991
      7 N           6.7151   -3.9054   22.2190 N.ar    1  UNL1       -0.2271
      8 N           6.3418   -4.3828   20.8468 N.ar    1  UNL1       -0.1680
      9 C           5.8345   -3.2051   20.0684 C.ar    1  UNL1        0.0981
     10 C           5.2904   -2.7723   18.7393 C.3     1  UNL1        0.1414
     11 C           7.2678   -4.7520   23.3269 C.ar    1  UNL1        0.1042
     12 C           6.9641   -4.4097   24.7554 C.ar    1  UNL1        0.1181
     13 N           7.5168   -5.2564   25.8635 N.ar    1  UNL1       -0.2384
     14 C           8.3733   -6.4454   25.5430 C.ar    1  UNL1        0.1285
     15 C           8.6770   -6.7877   24.1144 C.ar    1  UNL1        0.1607
     16 F           9.5335   -7.9768   23.7940 F       1  UNL1       -0.2025
     17 C           8.1243   -5.9411   23.0065 C.ar    1  UNL1        0.0520
     18 C           2.8620    1.5233   18.2370 C.ar    1  UNL1        0.1427
     19 C           2.6375    2.9903   18.4546 C.ar    1  UNL1        0.0377
     20 C           3.7874    3.9481   18.3539 C.ar    1  UNL1        0.0134
     21 C           5.1620    3.4389   18.0356 C.ar    1  UNL1        0.0688
     22 C           5.3865    1.9718   17.8179 C.ar    1  UNL1        0.0178
     23 C           4.2365    1.0140   17.9186 C.ar    1  UNL1        0.0881
     24 C           6.3119    4.3967   17.9349 C.1     1  UNL1        0.1004
     25 N           7.4619    5.3546   17.8342 N.1     1  UNL1       -0.1908
     26 O           1.7120    0.5654   18.3377 O.3     1  UNL1       -0.4790
     27 C           0.1247    0.9462   20.3589 C.3     1  UNL1        0.0472
     28 C           1.1999    0.1472   19.6841 C.3     1  UNL1        0.1661
     29 C           1.7632   -1.0701   20.3556 C.3     1  UNL1        0.0472
@<TRIPOS>BOND
     1    27    28    1
     2    28    29    1
     3    28    26    1
     4    26    18    1
     5    18    19   ar
     6    19    20   ar
     7    20    21   ar
     8    21    24    1
     9    24    25    3
    10    21    22   ar
    11    22    23   ar
    12    23     1    1
    13     1     2    2
    14     1     3   am
    15     3     4    1
    16     4     5    1
    17     5     6   ar
    18     6     7   ar
    19     7    11    1
    20    11    12   ar
    21    12    13   ar
    22    13    14   ar
    23    14    15   ar
    24    15    16    1
    25    15    17   ar
    26     7     8   ar
    27     8     9   ar
    28     9    10    1
    29    23    18   ar
    30    10     3    1
    31     9     5   ar
    32    17    11   ar
@<TRIPOS>MOLECULE
*****
 29 32 0 0 0
SMALL
GASTEIGER

@<TRIPOS>ATOM
      1 C           2.0975    0.4425   19.1742 C.2     1  UNL1        0.2525
      2 O           0.9370    0.5756   18.2332 O.2     1  UNL1       -0.2698
      3 N           1.8895    0.6115   20.6501 N.am    1  UNL1       -0.2660
      4 C           2.9486    0.5077   21.7073 C.3     1  UNL1        0.1236
      5 C           2.2996    0.7460   23.0384 C.ar    1  UNL1        0.0338
      6 C           2.5530    0.8291   24.5145 C.ar    1  UNL1        0.0991
      7 N           1.2495    1.1316   25.1924 N.ar    1  UNL1       -0.2271
      8 N           0.1904    1.2355   24.1351 N.ar    1  UNL1       -0.1680
      9 C           0.8394    0.9972   22.8039 C.ar    1  UNL1        0.0981
     10 C           0.5860    0.9141   21.3278 C.3     1  UNL1        0.1414
     11 C           1.0415    1.3006   26.6682 C.ar    1  UNL1        0.1042
     12 C           2.0983    1.9599   27.5039 C.ar    1  UNL1        0.1181
     13 N           1.8904    2.1290   28.9798 N.ar    1  UNL1       -0.2384
     14 C           0.6256    1.6386   29.6199 C.ar    1  UNL1        0.1285
     15 C          -0.4313    0.9792   28.7842 C.ar    1  UNL1        0.1607
     16 F          -1.6962    0.4889   29.4244 F       1  UNL1       -0.2025
     17 C          -0.2234    0.8103   27.3084 C.ar    1  UNL1        0.0520
     18 C           4.0147   -1.2528   18.7264 C.ar    1  UNL1        0.1427
     19 C           5.3831   -1.5547   18.1915 C.ar    1  UNL1        0.0377
     20 C           6.2029   -0.4633   17.5695 C.ar    1  UNL1        0.0134
     21 C           5.6543    0.9300   17.4825 C.ar    1  UNL1        0.0688
     22 C           4.2858    1.2319   18.0174 C.ar    1  UNL1        0.0178
     23 C           3.4660    0.1405   18.6393 C.ar    1  UNL1        0.0881
     24 C           6.4741    2.0214   16.8606 C.1     1  UNL1        0.1004
     25 N           7.2940    3.1127   16.2386 N.1     1  UNL1       -0.1908
     26 O           3.1948   -2.3442   19.3483 O.3     1  UNL1       -0.4790
     27 C           3.9262   -4.8261   19.1138 C.3     1  UNL1        0.0472
     28 C           3.8689   -3.5588   19.9142 C.3     1  UNL1        0.1661
     29 C           4.4855   -3.5061   21.2805 C.3     1  UNL1        0.0472
@<TRIPOS>BOND
     1    27    28    1
     2    28    29    1
     3    28    26    1
     4    26    18    1
     5    18    19   ar
     6    19    20   ar
     7    20    21   ar
     8    21    24    1
     9    24    25    3
    10    21    22   ar
    11    22    23   ar
    12    23     1    1
    13     1     2    2
    14     1     3   am
    15     3     4    1
    16     4     5    1
    17     5     6   ar
    18     6     7   ar
    19     7    11    1
    20    11    12   ar
    21    12    13   ar
    22    13    14   ar
    23    14    15   ar
    24    15    16    1
    25    15    17   ar
    26     7     8   ar
    27     8     9   ar
    28     9    10    1
    29    23    18   ar
    30    10     3    1
    31     9     5   ar
    32    17    11   ar
@<TRIPOS>MOLECULE
*****
 29 32 0 0 0
SMALL
GASTEIGER

@<TRIPOS>ATOM
      1 C           1.9458    0.1012   19.4504 C.2     1  UNL1        0.2525
      2 O           0.9158    0.5538   18.4583 O.2     1  UNL1       -0.2698
      3 N           1.7492    0.3726   20.9124 N.am    1  UNL1       -0.2660
      4 C           2.6877   -0.0174   22.0156 C.3     1  UNL1        0.1236
      5 C           2.0980    0.4507   23.3130 C.ar    1  UNL1        0.0338
      6 C           2.3136    0.4990   24.7966 C.ar    1  UNL1        0.0991
      7 N           1.1439    1.2082   25.4122 N.ar    1  UNL1       -0.2271
      8 N           0.2054    1.5983   24.3089 N.ar    1  UNL1       -0.1680
      9 C           0.7951    1.1301   23.0116 C.ar    1  UNL1        0.0981
     10 C           0.5795    1.0819   21.5279 C.3     1  UNL1        0.1414
     11 C           0.9472    1.4797   26.8742 C.ar    1  UNL1        0.1042
     12 C           1.8862    2.3973   27.5996 C.ar    1  UNL1        0.1181
     13 N           1.6896    2.6688   29.0617 N.ar    1  UNL1       -0.2384
     14 C           0.5539    2.0227   29.7984 C.ar    1  UNL1        0.1285
     15 C          -0.3852    1.1050   29.0729 C.ar    1  UNL1        0.1607
     16 F          -1.5209    0.4589   29.8097 F       1  UNL1       -0.2025
     17 C          -0.1885    0.8335   27.6109 C.ar    1  UNL1        0.0520
     18 C           4.2849    0.1363   18.3200 C.ar    1  UNL1        0.1427
     19 C           5.5115   -0.5878   17.8500 C.ar    1  UNL1        0.0377
     20 C           5.6258   -2.0713   18.0403 C.ar    1  UNL1        0.0134
     21 C           4.5134   -2.8307   18.7006 C.ar    1  UNL1        0.0688
     22 C           3.2867   -2.1064   19.1706 C.ar    1  UNL1        0.0178
     23 C           3.1725   -0.6229   18.9803 C.ar    1  UNL1        0.0881
     24 C           4.6277   -4.3141   18.8909 C.1     1  UNL1        0.1004
     25 N           4.7420   -5.7976   19.0812 N.1     1  UNL1       -0.1908
     26 O           4.1706    1.6198   18.1297 O.3     1  UNL1       -0.4790
     27 C           3.7321    3.3115   20.0522 C.3     1  UNL1        0.0472
     28 C           4.6906    2.5533   19.1824 C.3     1  UNL1        0.1661
     29 C           6.1690    2.7285   19.3653 C.3     1  UNL1        0.0472
@<TRIPOS>BOND
     1    27    28    1
     2    28    29    1
     3    28    26    1
     4    26    18    1
     5    18    19   ar
     6    19    20   ar
     7    20    21   ar
     8    21    24    1
     9    24    25    3
    10    21    22   ar
    11    22    23   ar
    12    23     1    1
    13     1     2    2
    14     1     3   am
    15     3     4    1
    16     4     5    1
    17     5     6   ar
    18     6     7   ar
    19     7    11    1
    20    11    12   ar
    21    12    13   ar
    22    13    14   ar
    23    14    15   ar
    24    15    16    1
    25    15    17   ar
    26     7     8   ar
    27     8     9   ar
    28     9    10    1
    29    23    18   ar
    30    10     3    1
    31     9     5   ar
    32    17    11   ar
@<TRIPOS>MOLECULE
*****
 29 32 0 0 0
SMALL
GASTEIGER

@<TRIPOS>ATOM
      1 C           3.4728    1.6950   35.2619 C.2     1  UNL1        0.2525
      2 O           2.2216    2.4096   34.8451 O.2     1  UNL1       -0.2698
      3 N           4.0706    0.6472   34.3703 N.am    1  UNL1       -0.2660
      4 C           5.3116   -0.1468   34.6521 C.3     1  UNL1        0.1236
      5 C           5.5402   -1.0752   33.4964 C.ar    1  UNL1        0.0338
      6 C           6.4485   -2.1397   32.9562 C.ar    1  UNL1        0.0991
      7 N           5.9102   -2.5774   31.6262 N.ar    1  UNL1       -0.2271
      8 N           4.6691   -1.7833   31.3445 N.ar    1  UNL1       -0.1680
      9 C           4.4405   -0.8550   32.5003 C.ar    1  UNL1        0.0981
     10 C           3.5322    0.2096   33.0404 C.3     1  UNL1        0.1414
     11 C           6.5079   -3.6251   30.7347 C.ar    1  UNL1        0.1042
     12 C           6.9945   -4.9182   31.3187 C.ar    1  UNL1        0.1181
     13 N           7.5923   -5.9660   30.4271 N.ar    1  UNL1       -0.2384
     14 C           7.7034   -5.7206   28.9515 C.ar    1  UNL1        0.1285
     15 C           7.2168   -4.4274   28.3675 C.ar    1  UNL1        0.1607
     16 F           7.3281   -4.1820   26.8918 F       1  UNL1       -0.2025
     17 C           6.6191   -3.3797   29.2590 C.ar    1  UNL1        0.0520
     18 C           3.3608    1.8759   37.8513 C.ar    1  UNL1        0.1427
     19 C           4.0143    2.2090   39.1597 C.ar    1  UNL1        0.0377
     20 C           5.4333    2.6945   39.1872 C.ar    1  UNL1        0.0134
     21 C           6.1988    2.8467   37.9063 C.ar    1  UNL1        0.0688
     22 C           5.5453    2.5135   36.5978 C.ar    1  UNL1        0.0178
     23 C           4.1262    2.0281   36.5703 C.ar    1  UNL1        0.0881
     24 C           7.6179    3.3321   37.9337 C.1     1  UNL1        0.1004
     25 N           9.0369    3.8175   37.9612 N.1     1  UNL1       -0.1908
     26 O           1.9417    1.3905   37.8238 O.3     1  UNL1       -0.4790
     27 C           0.4061    2.2233   39.7469 C.3     1  UNL1        0.0472
     28 C           1.2127    1.1314   39.1089 C.3     1  UNL1        0.1661
     29 C           1.2901   -0.2197   39.7558 C.3     1  UNL1        0.0472
@<TRIPOS>BOND
     1    27    28    1
     2    28    29    1
     3    28    26    1
     4    26    18    1
     5    18    19   ar
     6    19    20   ar
     7    20    21   ar
     8    21    24    1
     9    24    25    3
    10    21    22   ar
    11    22    23   ar
    12    23     1    1
    13     1     2    2
    14     1     3   am
    15     3     4    1
    16     4     5    1
    17     5     6   ar
    18     6     7   ar
    19     7    11    1
    20    11    12   ar
    21    12    13   ar
    22    13    14   ar
    23    14    15   ar
    24    15    16    1
    25    15    17   ar
    26     7     8   ar
    27     8     9   ar
    28     9    10    1
    29    23    18   ar
    30    10     3    1
    31     9     5   ar
    32    17    11   ar
@<TRIPOS>MOLECULE
*****
 29 32 0 0 0
SMALL
GASTEIGER

@<TRIPOS>ATOM
      1 C          -0.9827    4.2192   21.4877 C.2     1  UNL1        0.2525
      2 O          -0.4455    5.6100   21.6525 O.2     1  UNL1       -0.2698
      3 N          -0.0782    3.1158   21.0247 N.am    1  UNL1       -0.2660
      4 C          -0.4709    1.6834   20.8149 C.3     1  UNL1        0.1236
      5 C           0.7424    0.9334   20.3508 C.ar    1  UNL1        0.0338
      6 C           1.2496   -0.4154   19.9343 C.ar    1  UNL1        0.0991
      7 N           2.7057   -0.2802   19.6000 N.ar    1  UNL1       -0.2271
      8 N           3.0983    1.1523   19.8099 N.ar    1  UNL1       -0.1680
      9 C           1.8850    1.9023   20.2739 C.ar    1  UNL1        0.0981
     10 C           1.3778    3.2511   20.6904 C.3     1  UNL1        0.1414
     11 C           3.6101   -1.3835   19.1371 C.ar    1  UNL1        0.1042
     12 C           4.7753   -1.0736   18.2447 C.ar    1  UNL1        0.1181
     13 N           5.6799   -2.1770   17.7817 N.ar    1  UNL1       -0.2384
     14 C           5.4193   -3.5903   18.2112 C.ar    1  UNL1        0.1285
     15 C           4.2540   -3.9003   19.1036 C.ar    1  UNL1        0.1607
     16 F           3.9935   -5.3138   19.5331 F       1  UNL1       -0.2025
     17 C           3.3496   -2.7970   19.5665 C.ar    1  UNL1        0.0520
     18 C          -2.8710    3.7272   23.2031 C.ar    1  UNL1        0.1427
     19 C          -4.3127    3.4399   23.5011 C.ar    1  UNL1        0.0377
     20 C          -5.3080    3.3573   22.3818 C.ar    1  UNL1        0.0134
     21 C          -4.8615    3.5620   20.9645 C.ar    1  UNL1        0.0688
     22 C          -3.4197    3.8493   20.6665 C.ar    1  UNL1        0.0178
     23 C          -2.4244    3.9319   21.7858 C.ar    1  UNL1        0.0881
     24 C          -5.8567    3.4793   19.8453 C.1     1  UNL1        0.1004
     25 N          -6.8520    3.3967   18.7261 N.1     1  UNL1       -0.1908
     26 O          -1.8758    3.8098   24.3223 O.3     1  UNL1       -0.4790
     27 C          -1.9466    6.3634   24.7959 C.3     1  UNL1        0.0472
     28 C          -1.9350    4.9493   25.2960 C.3     1  UNL1        0.1661
     29 C          -1.9828    4.6745   26.7699 C.3     1  UNL1        0.0472
@<TRIPOS>BOND
     1    27    28    1
     2    28    29    1
     3    28    26    1
     4    26    18    1
     5    18    19   ar
     6    19    20   ar
     7    20    21   ar
     8    21    24    1
     9    24    25    3
    10    21    22   ar
    11    22    23   ar
    12    23     1    1
    13     1     2    2
    14     1     3   am
    15     3     4    1
    16     4     5    1
    17     5     6   ar
    18     6     7   ar
    19     7    11    1
    20    11    12   ar
    21    12    13   ar
    22    13    14   ar
    23    14    15   ar
    24    15    16    1
    25    15    17   ar
    26     7     8   ar
    27     8     9   ar
    28     9    10    1
    29    23    18   ar
    30    10     3    1
    31     9     5   ar
    32    17    11   ar
@<TRIPOS>MOLECULE
*****
 29 32 0 0 0
SMALL
GASTEIGER

@<TRIPOS>ATOM
      1 C           4.4699   -1.8226   18.9293 C.2     1  UNL1        0.2525
      2 O           3.9366   -2.0790   17.5509 O.2     1  UNL1       -0.2698
      3 N           3.6273   -1.0978   19.9366 N.am    1  UNL1       -0.2660
      4 C           4.0237   -0.7708   21.3458 C.3     1  UNL1        0.1236
      5 C           2.8817   -0.0437   21.9917 C.ar    1  UNL1        0.0338
      6 C           2.4209    0.6077   23.2618 C.ar    1  UNL1        0.0991
      7 N           1.0339    1.1327   23.0369 N.ar    1  UNL1       -0.2271
      8 N           0.6374    0.8056   21.6276 N.ar    1  UNL1       -0.1680
      9 C           1.7795    0.0786   20.9817 C.ar    1  UNL1        0.0981
     10 C           2.2402   -0.5729   19.7116 C.3     1  UNL1        0.1414
     11 C           0.1913    1.8574   24.0441 C.ar    1  UNL1        0.1042
     12 C          -0.4482    3.1658   23.6847 C.ar    1  UNL1        0.1181
     13 N          -1.2909    3.8906   24.6920 N.ar    1  UNL1       -0.2384
     14 C          -1.4941    3.3069   26.0588 C.ar    1  UNL1        0.1285
     15 C          -0.8546    1.9984   26.4182 C.ar    1  UNL1        0.1607
     16 F          -1.0578    1.4148   27.7851 F       1  UNL1       -0.2025
     17 C          -0.0120    1.2737   25.4110 C.ar    1  UNL1        0.0520
     18 C           7.0283   -1.8700   18.4789 C.ar    1  UNL1        0.1427
     19 C           8.4041   -2.3384   18.8499 C.ar    1  UNL1        0.0377
     20 C           8.5975   -3.2275   20.0424 C.ar    1  UNL1        0.0134
     21 C           7.4151   -3.6484   20.8639 C.ar    1  UNL1        0.0688
     22 C           6.0392   -3.1800   20.4927 C.ar    1  UNL1        0.0178
     23 C           5.8458   -2.2909   19.3003 C.ar    1  UNL1        0.0881
     24 C           7.6086   -4.5375   22.0563 C.1     1  UNL1        0.1004
     25 N           7.8020   -5.4267   23.2488 N.1     1  UNL1       -0.1908
     26 O           6.8348   -0.9809   17.2864 O.3     1  UNL1       -0.4790
     27 C           6.9788    1.1475   18.7694 C.3     1  UNL1        0.0472
     28 C           7.0271    0.5010   17.4167 C.3     1  UNL1        0.1661
     29 C           7.2678    1.3363   16.1943 C.3     1  UNL1        0.0472
@<TRIPOS>BOND
     1    27    28    1
     2    28    29    1
     3    28    26    1
     4    26    18    1
     5    18    19   ar
     6    19    20   ar
     7    20    21   ar
     8    21    24    1
     9    24    25    3
    10    21    22   ar
    11    22    23   ar
    12    23     1    1
    13     1     2    2
    14     1     3   am
    15     3     4    1
    16     4     5    1
    17     5     6   ar
    18     6     7   ar
    19     7    11    1
    20    11    12   ar
    21    12    13   ar
    22    13    14   ar
    23    14    15   ar
    24    15    16    1
    25    15    17   ar
    26     7     8   ar
    27     8     9   ar
    28     9    10    1
    29    23    18   ar
    30    10     3    1
    31     9     5   ar
    32    17    11   ar
@<TRIPOS>MOLECULE
*****
 29 32 0 0 0
SMALL
GASTEIGER

@<TRIPOS>ATOM
      1 C           3.7064   -0.3295   18.2853 C.2     1  UNL1        0.2525
      2 O           3.0286   -0.5908   16.9730 O.2     1  UNL1       -0.2698
      3 N           2.9152    0.1947   19.4469 N.am    1  UNL1       -0.2660
      4 C           3.4528    0.5021   20.8130 C.3     1  UNL1        0.1236
      5 C           2.3172    1.0008   21.6566 C.ar    1  UNL1        0.0338
      6 C           1.9477    1.4991   23.0223 C.ar    1  UNL1        0.0991
      7 N           0.4798    1.8079   23.0217 N.ar    1  UNL1       -0.2271
      8 N          -0.0579    1.5004   21.6554 N.ar    1  UNL1       -0.1680
      9 C           1.0777    1.0017   20.8118 C.ar    1  UNL1        0.0981
     10 C           1.4473    0.5034   19.4461 C.3     1  UNL1        0.1414
     11 C          -0.3114    2.3320   24.1831 C.ar    1  UNL1        0.1042
     12 C          -1.1254    3.5829   24.0327 C.ar    1  UNL1        0.1181
     13 N          -1.9167    4.1071   25.1942 N.ar    1  UNL1       -0.2384
     14 C          -1.8941    3.3803   26.5062 C.ar    1  UNL1        0.1285
     15 C          -1.0801    2.1293   26.6566 C.ar    1  UNL1        0.1607
     16 F          -1.0575    1.4025   27.9686 F       1  UNL1       -0.2025
     17 C          -0.2888    1.6052   25.4952 C.ar    1  UNL1        0.0520
     18 C           5.6811   -2.0024   18.5147 C.ar    1  UNL1        0.1427
     19 C           7.1501   -2.2651   18.6655 C.ar    1  UNL1        0.0377
     20 C           8.1137   -1.1178   18.7378 C.ar    1  UNL1        0.0134
     21 C           7.6082    0.2923   18.6592 C.ar    1  UNL1        0.0688
     22 C           6.1391    0.5550   18.5084 C.ar    1  UNL1        0.0178
     23 C           5.1755   -0.5923   18.4361 C.ar    1  UNL1        0.0881
     24 C           8.5718    1.4396   18.7315 C.1     1  UNL1        0.1004
     25 N           9.5354    2.5868   18.8038 N.1     1  UNL1       -0.1908
     26 O           4.7175   -3.1496   18.4424 O.3     1  UNL1       -0.4790
     27 C           4.3760   -3.0935   21.0173 C.3     1  UNL1        0.0472
     28 C           4.2317   -3.8016   19.7029 C.3     1  UNL1        0.1661
     29 C           3.6015   -5.1617   19.6489 C.3     1  UNL1        0.0472
@<TRIPOS>BOND
     1    27    28    1
     2    28    29    1
     3    28    26    1
     4    26    18    1
     5    18    19   ar
     6    19    20   ar
     7    20    21   ar
     8    21    24    1
     9    24    25    3
    10    21    22   ar
    11    22    23   ar
    12    23     1    1
    13     1     2    2
    14     1     3   am
    15     3     4    1
    16     4     5    1
    17     5     6   ar
    18     6     7   ar
    19     7    11    1
    20    11    12   ar
    21    12    13   ar
    22    13    14   ar
    23    14    15   ar
    24    15    16    1
    25    15    17   ar
    26     7     8   ar
    27     8     9   ar
    28     9    10    1
    29    23    18   ar
    30    10     3    1
    31     9     5   ar
    32    17    11   ar
@<TRIPOS>MOLECULE
*****
 29 32 0 0 0
SMALL
GASTEIGER

@<TRIPOS>ATOM
      1 C           3.5540    0.2922   29.2179 C.2     1  UNL1        0.2525
      2 O           4.2152   -0.5853   30.2391 O.2     1  UNL1       -0.2698
      3 N           3.5828   -0.0914   27.7680 N.am    1  UNL1       -0.2660
      4 C           2.9687    0.6820   26.6390 C.3     1  UNL1        0.1236
      5 C           3.2372   -0.0644   25.3659 C.ar    1  UNL1        0.0338
      6 C           3.0236   -0.0476   23.8813 C.ar    1  UNL1        0.0991
      7 N           3.6716   -1.2720   23.3058 N.ar    1  UNL1       -0.2271
      8 N           4.2858   -2.0454   24.4349 N.ar    1  UNL1       -0.1680
      9 C           4.0173   -1.2990   25.7080 C.ar    1  UNL1        0.0981
     10 C           4.2309   -1.3157   27.1927 C.3     1  UNL1        0.1414
     11 C           3.7004   -1.6556   21.8561 C.ar    1  UNL1        0.1042
     12 C           3.0697   -0.7606   20.8308 C.ar    1  UNL1        0.1181
     13 N           3.0985   -1.1442   19.3809 N.ar    1  UNL1       -0.2384
     14 C           3.7581   -2.4227   18.9564 C.ar    1  UNL1        0.1285
     15 C           4.3889   -3.3177   19.9817 C.ar    1  UNL1        0.1607
     16 F           5.0485   -4.5963   19.5571 F       1  UNL1       -0.2025
     17 C           4.3601   -2.9342   21.4315 C.ar    1  UNL1        0.0520
     18 C           1.3884    1.5465   29.9157 C.ar    1  UNL1        0.1427
     19 C           0.6985    2.8076   30.3443 C.ar    1  UNL1        0.0377
     20 C           1.4842    4.0754   30.5037 C.ar    1  UNL1        0.0134
     21 C           2.9598    4.0822   30.2345 C.ar    1  UNL1        0.0688
     22 C           3.6497    2.8210   29.8058 C.ar    1  UNL1        0.0178
     23 C           2.8640    1.5532   29.6465 C.ar    1  UNL1        0.0881
     24 C           3.7454    5.3500   30.3938 C.1     1  UNL1        0.1004
     25 N           4.5311    6.6178   30.5532 N.1     1  UNL1       -0.1908
     26 O           0.6027    0.2787   29.7564 O.3     1  UNL1       -0.4790
     27 C          -0.4008    1.0173   27.4766 C.3     1  UNL1        0.0472
     28 C          -0.4866    0.1956   28.7286 C.3     1  UNL1        0.1661
     29 C          -1.6617   -0.7092   28.9528 C.3     1  UNL1        0.0472
@<TRIPOS>BOND
     1    27    28    1
     2    28    29    1
     3    28    26    1
     4    26    18    1
     5    18    19   ar
     6    19    20   ar
     7    20    21   ar
     8    21    24    1
     9    24    25    3
    10    21    22   ar
    11    22    23   ar
    12    23     1    1
    13     1     2    2
    14     1     3   am
    15     3     4    1
    16     4     5    1
    17     5     6   ar
    18     6     7   ar
    19     7    11    1
    20    11    12   ar
    21    12    13   ar
    22    13    14   ar
    23    14    15   ar
    24    15    16    1
    25    15    17   ar
    26     7     8   ar
    27     8     9   ar
    28     9    10    1
    29    23    18   ar
    30    10     3    1
    31     9     5   ar
    32    17    11   ar
