@<TRIPOS>MOLECULE
*****
 34 37 0 0 0
SMALL
GASTEIGER

@<TRIPOS>ATOM
      1 C           3.9766   -2.1077   20.6049 C.2     1  UNL1        0.2383
      2 O           2.7233   -1.3053   20.7928 O.2     1  UNL1       -0.2735
      3 N           4.8197   -2.4706   21.7912 N.am    1  UNL1       -0.2695
      4 C           6.0730   -3.2730   21.6033 C.3     1  UNL1        0.1184
      5 C           6.9162   -3.6358   22.7897 C.3     1  UNL1        0.1299
      6 N           6.5061   -3.1963   24.1639 N.ar    1  UNL1       -0.3005
      7 C           5.2528   -2.3939   24.3518 C.ar    1  UNL1        0.1416
      8 N           5.1032   -2.1037   25.8159 N.ar    1  UNL1       -0.2279
      9 C           6.2641   -2.7269   26.5328 C.ar    1  UNL1        0.1125
     10 C           7.1311   -3.4021   25.5118 C.ar    1  UNL1        0.1318
     11 C           4.4096   -2.0310   23.1654 C.3     1  UNL1        0.1578
     12 C           6.5142   -2.6826   28.0112 C.ar    1  UNL1        0.0205
     13 C           6.9624   -1.4056   28.6581 C.ar    1  UNL1        0.0039
     14 C           7.2125   -1.3613   30.1364 C.ar    1  UNL1        0.0297
     15 C           7.0143   -2.5939   30.9678 C.ar    1  UNL1        0.1401
     16 F           7.2643   -2.5496   32.4463 F       1  UNL1       -0.2042
     17 C           6.5660   -3.8709   30.3210 C.ar    1  UNL1        0.0297
     18 C           6.3160   -3.9152   28.8426 C.ar    1  UNL1        0.0039
     19 C           5.2378   -1.3200   19.0921 C.3     1  UNL1        0.0249
     20 C           4.3867   -2.5473   19.2307 C.3     1  UNL1        0.1089
     21 C           3.5356   -3.7746   19.3692 C.3     1  UNL1        0.0249
     22 N           4.7968   -2.9868   17.8563 N.3     1  UNL1       -0.3164
     23 H           4.3441   -3.8733   17.6337 H       1  UNL1        0.1192
     24 H           5.8095   -3.1049   17.8252 H       1  UNL1        0.1192
     25 N           8.4004   -4.1515   25.7899 N.pl3   1  UNL1       -0.2980
     26 H           9.2708   -3.7085   25.6664 H       1  UNL1        0.1536
     27 C           8.3435   -5.5760   26.2563 C.ar    1  UNL1        0.0518
     28 C           7.6619   -6.6141   25.4149 C.ar    1  UNL1        0.0171
     29 C           7.6050   -8.0386   25.8814 C.ar    1  UNL1        0.0332
     30 C           8.2297   -8.4251   27.1892 C.ar    1  UNL1        0.1675
     31 F           8.1728   -9.8496   27.6556 F       1  UNL1       -0.2018
     32 C           8.9113   -7.3871   28.0306 C.ar    1  UNL1        0.1686
     33 F           9.5360   -7.7735   29.3384 F       1  UNL1       -0.2018
     34 C           8.9681   -5.9626   27.5641 C.ar    1  UNL1        0.0466
@<TRIPOS>BOND
     1    19    20    1
     2    20    21    1
     3    20    22    1
     4    20     1    1
     5     1     2    2
     6     1     3   am
     7     3     4    1
     8     4     5    1
     9     5     6    1
    10     6     7   ar
    11     7     8   ar
    12     8     9   ar
    13     9    12    1
    14    12    13   ar
    15    13    14   ar
    16    14    15   ar
    17    15    16    1
    18    15    17   ar
    19    17    18   ar
    20     9    10   ar
    21    10    25    1
    22    25    27    1
    23    27    28   ar
    24    28    29   ar
    25    29    30   ar
    26    30    31    1
    27    30    32   ar
    28    32    33    1
    29    32    34   ar
    30     7    11    1
    31    11     3    1
    32    10     6   ar
    33    34    27   ar
    34    18    12   ar
    35    22    23    1
    36    22    24    1
    37    25    26    1
@<TRIPOS>MOLECULE
*****
 34 37 0 0 0
SMALL
GASTEIGER

@<TRIPOS>ATOM
      1 C           6.3856   -3.0079   27.8157 C.2     1  UNL1        0.2383
      2 O           5.8038   -2.1054   28.8631 O.2     1  UNL1       -0.2735
      3 N           5.9966   -2.8358   26.3773 N.am    1  UNL1       -0.2695
      4 C           6.5783   -3.7383   25.3299 C.3     1  UNL1        0.1184
      5 C           6.1893   -3.5663   23.8915 C.3     1  UNL1        0.1299
      6 N           5.2185   -2.4918   23.5004 N.ar    1  UNL1       -0.3005
      7 C           4.6367   -1.5893   24.5478 C.ar    1  UNL1        0.1416
      8 N           3.7102   -0.6259   23.8669 N.ar    1  UNL1       -0.2279
      9 C           3.7194   -0.9331   22.3988 C.ar    1  UNL1        0.1125
     10 C           4.6516   -2.0862   22.1722 C.ar    1  UNL1        0.1318
     11 C           5.0257   -1.7614   25.9862 C.3     1  UNL1        0.1578
     12 C           2.9342   -0.2134   21.3425 C.ar    1  UNL1        0.0205
     13 C           1.6263   -0.7737   20.8678 C.ar    1  UNL1        0.0039
     14 C           0.8412   -0.0541   19.8116 C.ar    1  UNL1        0.0297
     15 C           1.3640    1.2259   19.2300 C.ar    1  UNL1        0.1401
     16 F           0.5788    1.9455   18.1737 F       1  UNL1       -0.2042
     17 C           2.6719    1.7862   19.7046 C.ar    1  UNL1        0.0297
     18 C           3.4571    1.0666   20.7608 C.ar    1  UNL1        0.0039
     19 C           6.2294   -5.0680   28.2963 C.3     1  UNL1        0.0249
     20 C           7.3564   -4.0823   28.2067 C.3     1  UNL1        0.1089
     21 C           8.4835   -3.0966   28.1171 C.3     1  UNL1        0.0249
     22 N           8.3272   -5.1569   28.5978 N.3     1  UNL1       -0.3164
     23 H           9.2699   -4.7685   28.6290 H       1  UNL1        0.1192
     24 H           8.2930   -5.9118   27.9127 H       1  UNL1        0.1192
     25 N           4.9623   -2.7221   20.8497 N.pl3   1  UNL1       -0.2980
     26 H           4.9805   -3.7030   20.7674 H       1  UNL1        0.1536
     27 C           5.2452   -1.8637   19.6527 C.ar    1  UNL1        0.0518
     28 C           6.4895   -1.0273   19.6067 C.ar    1  UNL1        0.0171
     29 C           6.7724   -0.1688   18.4095 C.ar    1  UNL1        0.0332
     30 C           5.8109   -0.1467   17.2584 C.ar    1  UNL1        0.1675
     31 F           6.0938    0.7118   16.0614 F       1  UNL1       -0.2018
     32 C           4.5665   -0.9830   17.3045 C.ar    1  UNL1        0.1686
     33 F           3.6050   -0.9609   16.1534 F       1  UNL1       -0.2018
     34 C           4.2837   -1.8415   18.5016 C.ar    1  UNL1        0.0466
@<TRIPOS>BOND
     1    19    20    1
     2    20    21    1
     3    20    22    1
     4    20     1    1
     5     1     2    2
     6     1     3   am
     7     3     4    1
     8     4     5    1
     9     5     6    1
    10     6     7   ar
    11     7     8   ar
    12     8     9   ar
    13     9    12    1
    14    12    13   ar
    15    13    14   ar
    16    14    15   ar
    17    15    16    1
    18    15    17   ar
    19    17    18   ar
    20     9    10   ar
    21    10    25    1
    22    25    27    1
    23    27    28   ar
    24    28    29   ar
    25    29    30   ar
    26    30    31    1
    27    30    32   ar
    28    32    33    1
    29    32    34   ar
    30     7    11    1
    31    11     3    1
    32    10     6   ar
    33    34    27   ar
    34    18    12   ar
    35    22    23    1
    36    22    24    1
    37    25    26    1
@<TRIPOS>MOLECULE
*****
 34 37 0 0 0
SMALL
GASTEIGER

@<TRIPOS>ATOM
      1 C          -0.3779    1.8087   27.6631 C.2     1  UNL1        0.2383
      2 O          -1.6781    2.4187   27.2302 O.2     1  UNL1       -0.2735
      3 N           0.6044    1.3292   26.6359 N.am    1  UNL1       -0.2695
      4 C           1.9045    0.7192   27.0688 C.3     1  UNL1        0.1184
      5 C           2.8868    0.2397   26.0416 C.3     1  UNL1        0.1299
      6 N           2.5690    0.3703   24.5815 N.ar    1  UNL1       -0.3005
      7 C           1.2688    0.9803   24.1486 C.ar    1  UNL1        0.1416
      8 N           1.2318    0.9772   22.6490 N.ar    1  UNL1       -0.2279
      9 C           2.5092    0.3653   22.1551 C.ar    1  UNL1        0.1125
     10 C           3.3356   -0.0098   23.3495 C.ar    1  UNL1        0.1318
     11 C           0.2865    1.4598   25.1758 C.3     1  UNL1        0.1578
     12 C           2.8928    0.1638   20.7190 C.ar    1  UNL1        0.0205
     13 C           3.6796    1.2179   19.9980 C.ar    1  UNL1        0.0039
     14 C           4.0633    1.0165   18.5620 C.ar    1  UNL1        0.0297
     15 C           3.6602   -0.2390   17.8470 C.ar    1  UNL1        0.1401
     16 F           4.0438   -0.4405   16.4109 F       1  UNL1       -0.2042
     17 C           2.8734   -1.2931   18.5681 C.ar    1  UNL1        0.0297
     18 C           2.4897   -1.0917   20.0041 C.ar    1  UNL1        0.0039
     19 C           0.6279    3.0107   29.0925 C.3     1  UNL1        0.0249
     20 C          -0.0601    1.6782   29.1232 C.3     1  UNL1        0.1089
     21 C          -0.7481    0.3457   29.1538 C.3     1  UNL1        0.0249
     22 N           0.2578    1.5477   30.5834 N.3     1  UNL1       -0.3164
     23 H          -0.1112    0.6638   30.9340 H       1  UNL1        0.1192
     24 H          -0.1683    2.3207   31.0945 H       1  UNL1        0.1192
     25 N           4.6907   -0.6522   23.3174 N.pl3   1  UNL1       -0.2980
     26 H           5.3889   -0.3602   23.9471 H       1  UNL1        0.1536
     27 C           4.9820   -1.7396   22.3261 C.ar    1  UNL1        0.0518
     28 C           4.2863   -3.0637   22.4391 C.ar    1  UNL1        0.0171
     29 C           4.5777   -4.1511   21.4477 C.ar    1  UNL1        0.0332
     30 C           5.5648   -3.9143   20.3433 C.ar    1  UNL1        0.1675
     31 F           5.8561   -5.0016   19.3520 F       1  UNL1       -0.2018
     32 C           6.2605   -2.5902   20.2303 C.ar    1  UNL1        0.1686
     33 F           7.2475   -2.3534   19.1259 F       1  UNL1       -0.2018
     34 C           5.9691   -1.5029   21.2217 C.ar    1  UNL1        0.0466
@<TRIPOS>BOND
     1    19    20    1
     2    20    21    1
     3    20    22    1
     4    20     1    1
     5     1     2    2
     6     1     3   am
     7     3     4    1
     8     4     5    1
     9     5     6    1
    10     6     7   ar
    11     7     8   ar
    12     8     9   ar
    13     9    12    1
    14    12    13   ar
    15    13    14   ar
    16    14    15   ar
    17    15    16    1
    18    15    17   ar
    19    17    18   ar
    20     9    10   ar
    21    10    25    1
    22    25    27    1
    23    27    28   ar
    24    28    29   ar
    25    29    30   ar
    26    30    31    1
    27    30    32   ar
    28    32    33    1
    29    32    34   ar
    30     7    11    1
    31    11     3    1
    32    10     6   ar
    33    34    27   ar
    34    18    12   ar
    35    22    23    1
    36    22    24    1
    37    25    26    1
@<TRIPOS>MOLECULE
*****
 34 37 0 0 0
SMALL
GASTEIGER

@<TRIPOS>ATOM
      1 C           3.8615   -0.5862   31.2283 C.2     1  UNL1        0.2383
      2 O           2.4096   -0.2503   31.3989 O.2     1  UNL1       -0.2735
      3 N           4.4023   -0.9061   29.8662 N.am    1  UNL1       -0.2695
      4 C           5.8542   -1.2420   29.6956 C.3     1  UNL1        0.1184
      5 C           6.3950   -1.5619   28.3335 C.3     1  UNL1        0.1299
      6 N           5.4839   -1.5458   27.1420 N.ar    1  UNL1       -0.3005
      7 C           4.0320   -1.2098   27.3127 C.ar    1  UNL1        0.1416
      8 N           3.3799   -1.2728   25.9632 N.ar    1  UNL1       -0.2279
      9 C           4.4288   -1.6476   24.9586 C.ar    1  UNL1        0.1125
     10 C           5.7292   -1.8164   25.6872 C.ar    1  UNL1        0.1318
     11 C           3.4912   -0.8900   28.6747 C.3     1  UNL1        0.1578
     12 C           4.2151   -1.8230   23.4843 C.ar    1  UNL1        0.0205
     13 C           4.5916   -3.1142   22.8202 C.ar    1  UNL1        0.0039
     14 C           4.3779   -3.2896   21.3460 C.ar    1  UNL1        0.0297
     15 C           3.7875   -2.1739   20.5358 C.ar    1  UNL1        0.1401
     16 F           3.5738   -2.3492   19.0614 F       1  UNL1       -0.2042
     17 C           3.4110   -0.8826   21.1998 C.ar    1  UNL1        0.0297
     18 C           3.6247   -0.7072   22.6741 C.ar    1  UNL1        0.0039
     19 C           5.0948    0.8450   32.1929 C.3     1  UNL1        0.0249
     20 C           4.7726   -0.6023   32.4197 C.3     1  UNL1        0.1089
     21 C           4.4504   -2.0496   32.6465 C.3     1  UNL1        0.0249
     22 N           5.6837   -0.6184   33.6112 N.3     1  UNL1       -0.3164
     23 H           5.6837   -1.5499   34.0267 H       1  UNL1        0.1192
     24 H           5.3566    0.0605   34.2986 H       1  UNL1        0.1192
     25 N           7.0439   -2.1901   25.0694 N.pl3   1  UNL1       -0.2980
     26 H           7.6846   -1.4879   24.8131 H       1  UNL1        0.1536
     27 C           7.3825   -3.6335   24.8420 C.ar    1  UNL1        0.0518
     28 C           8.1549   -4.0396   23.6220 C.ar    1  UNL1        0.0171
     29 C           8.4935   -5.4832   23.3947 C.ar    1  UNL1        0.0332
     30 C           8.0597   -6.5206   24.3875 C.ar    1  UNL1        0.1675
     31 F           8.3983   -7.9640   24.1601 F       1  UNL1       -0.2018
     32 C           7.2874   -6.1145   25.6075 C.ar    1  UNL1        0.1686
     33 F           6.8536   -7.1519   26.6004 F       1  UNL1       -0.2018
     34 C           6.9488   -4.6710   25.8348 C.ar    1  UNL1        0.0466
@<TRIPOS>BOND
     1    19    20    1
     2    20    21    1
     3    20    22    1
     4    20     1    1
     5     1     2    2
     6     1     3   am
     7     3     4    1
     8     4     5    1
     9     5     6    1
    10     6     7   ar
    11     7     8   ar
    12     8     9   ar
    13     9    12    1
    14    12    13   ar
    15    13    14   ar
    16    14    15   ar
    17    15    16    1
    18    15    17   ar
    19    17    18   ar
    20     9    10   ar
    21    10    25    1
    22    25    27    1
    23    27    28   ar
    24    28    29   ar
    25    29    30   ar
    26    30    31    1
    27    30    32   ar
    28    32    33    1
    29    32    34   ar
    30     7    11    1
    31    11     3    1
    32    10     6   ar
    33    34    27   ar
    34    18    12   ar
    35    22    23    1
    36    22    24    1
    37    25    26    1
@<TRIPOS>MOLECULE
*****
 34 37 0 0 0
SMALL
GASTEIGER

@<TRIPOS>ATOM
      1 C           3.2772   -1.4547   19.9154 C.2     1  UNL1        0.2383
      2 O           1.9287   -0.8114   19.7820 O.2     1  UNL1       -0.2735
      3 N           3.8991   -1.6188   21.2705 N.am    1  UNL1       -0.2695
      4 C           5.2476   -2.2621   21.4038 C.3     1  UNL1        0.1184
      5 C           5.8695   -2.4262   22.7589 C.3     1  UNL1        0.1299
      6 N           5.1430   -1.9471   23.9806 N.ar    1  UNL1       -0.3005
      7 C           3.7946   -1.3038   23.8472 C.ar    1  UNL1        0.1416
      8 N           3.3204   -0.9320   25.2210 N.ar    1  UNL1       -0.2279
      9 C           4.3759   -1.3456   26.2033 C.ar    1  UNL1        0.1125
     10 C           5.5023   -1.9729   25.4367 C.ar    1  UNL1        0.1318
     11 C           3.1726   -1.1397   22.4922 C.3     1  UNL1        0.1578
     12 C           4.3155   -1.1637   27.6911 C.ar    1  UNL1        0.0205
     13 C           3.0262   -0.7660   28.3463 C.ar    1  UNL1        0.0039
     14 C           2.9658   -0.5841   29.8340 C.ar    1  UNL1        0.0297
     15 C           4.1948   -0.8000   30.6664 C.ar    1  UNL1        0.1401
     16 F           4.1344   -0.6181   32.1542 F       1  UNL1       -0.2042
     17 C           5.4841   -1.1977   30.0111 C.ar    1  UNL1        0.0297
     18 C           5.5445   -1.3796   28.5235 C.ar    1  UNL1        0.0039
     19 C           3.5490   -3.3356   18.9731 C.3     1  UNL1        0.0249
     20 C           4.0036   -1.9338   18.6937 C.3     1  UNL1        0.1089
     21 C           4.4583   -0.5320   18.4143 C.3     1  UNL1        0.0249
     22 N           4.7302   -2.4130   17.4719 N.3     1  UNL1       -0.3164
     23 H           5.1863   -1.6229   17.0158 H       1  UNL1        0.1192
     24 H           4.0656   -2.8405   16.8270 H       1  UNL1        0.1192
     25 N           6.7661   -2.5285   26.0232 N.pl3   1  UNL1       -0.2980
     26 H           7.4747   -1.9191   26.3326 H       1  UNL1        0.1536
     27 C           6.9504   -4.0127   26.1385 C.ar    1  UNL1        0.0518
     28 C           6.6671   -4.7049   27.4387 C.ar    1  UNL1        0.0171
     29 C           6.8513   -6.1892   27.5539 C.ar    1  UNL1        0.0332
     30 C           7.3189   -6.9811   26.3689 C.ar    1  UNL1        0.1675
     31 F           7.5032   -8.4652   26.4842 F       1  UNL1       -0.2018
     32 C           7.6022   -6.2888   25.0687 C.ar    1  UNL1        0.1686
     33 F           8.0698   -7.0807   23.8837 F       1  UNL1       -0.2018
     34 C           7.4179   -4.8047   24.9535 C.ar    1  UNL1        0.0466
@<TRIPOS>BOND
     1    19    20    1
     2    20    21    1
     3    20    22    1
     4    20     1    1
     5     1     2    2
     6     1     3   am
     7     3     4    1
     8     4     5    1
     9     5     6    1
    10     6     7   ar
    11     7     8   ar
    12     8     9   ar
    13     9    12    1
    14    12    13   ar
    15    13    14   ar
    16    14    15   ar
    17    15    16    1
    18    15    17   ar
    19    17    18   ar
    20     9    10   ar
    21    10    25    1
    22    25    27    1
    23    27    28   ar
    24    28    29   ar
    25    29    30   ar
    26    30    31    1
    27    30    32   ar
    28    32    33    1
    29    32    34   ar
    30     7    11    1
    31    11     3    1
    32    10     6   ar
    33    34    27   ar
    34    18    12   ar
    35    22    23    1
    36    22    24    1
    37    25    26    1
@<TRIPOS>MOLECULE
*****
 34 37 0 0 0
SMALL
GASTEIGER

@<TRIPOS>ATOM
      1 C           7.8283   -4.7199   30.1228 C.2     1  UNL1        0.2383
      2 O           7.9177   -6.2157   30.1909 O.2     1  UNL1       -0.2735
      3 N           7.4938   -4.0470   28.8246 N.am    1  UNL1       -0.2695
      4 C           7.4044   -2.5512   28.7564 C.3     1  UNL1        0.1184
      5 C           7.0699   -1.8782   27.4583 C.3     1  UNL1        0.1299
      6 N           6.8247   -2.7010   26.2283 N.ar    1  UNL1       -0.3005
      7 C           6.9141   -4.1968   26.2965 C.ar    1  UNL1        0.1416
      8 N           6.6234   -4.7413   24.9293 N.ar    1  UNL1       -0.2279
      9 C           6.3544   -3.5821   24.0162 C.ar    1  UNL1        0.1125
     10 C           6.4788   -2.3211   24.8191 C.ar    1  UNL1        0.1318
     11 C           7.2486   -4.8697   27.5946 C.3     1  UNL1        0.1578
     12 C           6.0197   -3.6686   22.5566 C.ar    1  UNL1        0.0205
     13 C           4.6011   -3.8941   22.1245 C.ar    1  UNL1        0.0039
     14 C           4.2663   -3.9806   20.6649 C.ar    1  UNL1        0.0297
     15 C           5.3502   -3.8415   19.6374 C.ar    1  UNL1        0.1401
     16 F           5.0155   -3.9280   18.1777 F       1  UNL1       -0.2042
     17 C           6.7688   -3.6160   20.0695 C.ar    1  UNL1        0.0297
     18 C           7.1035   -3.5295   21.5291 C.ar    1  UNL1        0.0039
     19 C           9.5358   -3.8407   31.0234 C.3     1  UNL1        0.0249
     20 C           8.0735   -3.8972   31.3527 C.3     1  UNL1        0.1089
     21 C           6.6112   -3.9537   31.6820 C.3     1  UNL1        0.0249
     22 N           8.3187   -3.0743   32.5828 N.3     1  UNL1       -0.3164
     23 H           7.4368   -2.9241   33.0727 H       1  UNL1        0.1192
     24 H           8.7170   -2.1741   32.3158 H       1  UNL1        0.1192
     25 N           6.2904   -0.9253   24.3032 N.pl3   1  UNL1       -0.2980
     26 H           6.9093   -0.2109   24.5788 H       1  UNL1        0.1536
     27 C           5.1591   -0.6178   23.3675 C.ar    1  UNL1        0.0518
     28 C           3.7411   -0.7225   23.8452 C.ar    1  UNL1        0.0171
     29 C           2.6097   -0.4150   22.9094 C.ar    1  UNL1        0.0332
     30 C           2.8965   -0.0026   21.4960 C.ar    1  UNL1        0.1675
     31 F           1.7652    0.3049   20.5603 F       1  UNL1       -0.2018
     32 C           4.3145    0.1021   21.0183 C.ar    1  UNL1        0.1686
     33 F           4.6013    0.5144   19.6049 F       1  UNL1       -0.2018
     34 C           5.4458   -0.2054   21.9541 C.ar    1  UNL1        0.0466
@<TRIPOS>BOND
     1    19    20    1
     2    20    21    1
     3    20    22    1
     4    20     1    1
     5     1     2    2
     6     1     3   am
     7     3     4    1
     8     4     5    1
     9     5     6    1
    10     6     7   ar
    11     7     8   ar
    12     8     9   ar
    13     9    12    1
    14    12    13   ar
    15    13    14   ar
    16    14    15   ar
    17    15    16    1
    18    15    17   ar
    19    17    18   ar
    20     9    10   ar
    21    10    25    1
    22    25    27    1
    23    27    28   ar
    24    28    29   ar
    25    29    30   ar
    26    30    31    1
    27    30    32   ar
    28    32    33    1
    29    32    34   ar
    30     7    11    1
    31    11     3    1
    32    10     6   ar
    33    34    27   ar
    34    18    12   ar
    35    22    23    1
    36    22    24    1
    37    25    26    1
@<TRIPOS>MOLECULE
*****
 34 37 0 0 0
SMALL
GASTEIGER

@<TRIPOS>ATOM
      1 C           3.0897    0.5347   29.5859 C.2     1  UNL1        0.2383
      2 O           1.7295    1.1206   29.3486 O.2     1  UNL1       -0.2735
      3 N           3.8196   -0.1446   28.4653 N.am    1  UNL1       -0.2695
      4 C           5.1799   -0.7306   28.7026 C.3     1  UNL1        0.1184
      5 C           5.9098   -1.4098   27.5820 C.3     1  UNL1        0.1299
      6 N           5.2796   -1.5031   26.2241 N.ar    1  UNL1       -0.3005
      7 C           3.9193   -0.9172   25.9868 C.ar    1  UNL1        0.1416
      8 N           3.5536   -1.1603   24.5524 N.ar    1  UNL1       -0.2279
      9 C           4.6879   -1.8965   23.9033 C.ar    1  UNL1        0.1125
     10 C           5.7546   -2.1084   24.9365 C.ar    1  UNL1        0.1318
     11 C           3.1894   -0.2379   27.1074 C.3     1  UNL1        0.1578
     12 C           4.7455   -2.3426   22.4723 C.ar    1  UNL1        0.0205
     13 C           4.4174   -3.7621   22.1154 C.ar    1  UNL1        0.0039
     14 C           4.4749   -4.2082   20.6845 C.ar    1  UNL1        0.0297
     15 C           4.8606   -3.2348   19.6104 C.ar    1  UNL1        0.1401
     16 F           4.9181   -3.6809   18.1794 F       1  UNL1       -0.2042
     17 C           5.1887   -1.8153   19.9673 C.ar    1  UNL1        0.0297
     18 C           5.1311   -1.3692   21.3982 C.ar    1  UNL1        0.0039
     19 C           4.2737    1.9774   30.5941 C.3     1  UNL1        0.0249
     20 C           3.7200    0.6280   30.9438 C.3     1  UNL1        0.1089
     21 C           3.1663   -0.7215   31.2935 C.3     1  UNL1        0.0249
     22 N           4.3503    0.7213   32.3018 N.3     1  UNL1       -0.3164
     23 H           4.1382   -0.1227   32.8339 H       1  UNL1        0.1192
     24 H           3.9803    1.5350   32.7932 H       1  UNL1        0.1192
     25 N           7.0660   -2.8035   24.7200 N.pl3   1  UNL1       -0.2980
     26 H           7.8254   -2.3121   24.3313 H       1  UNL1        0.1536
     27 C           7.2206   -4.2474   25.0959 C.ar    1  UNL1        0.0518
     28 C           6.8149   -4.7144   26.4623 C.ar    1  UNL1        0.0171
     29 C           6.9695   -6.1584   26.8381 C.ar    1  UNL1        0.0332
     30 C           7.5299   -7.1353   25.8474 C.ar    1  UNL1        0.1675
     31 F           7.6845   -8.5792   26.2232 F       1  UNL1       -0.2018
     32 C           7.9357   -6.6683   24.4809 C.ar    1  UNL1        0.1686
     33 F           8.4961   -7.6453   23.4902 F       1  UNL1       -0.2018
     34 C           7.7810   -5.2244   24.1052 C.ar    1  UNL1        0.0466
@<TRIPOS>BOND
     1    19    20    1
     2    20    21    1
     3    20    22    1
     4    20     1    1
     5     1     2    2
     6     1     3   am
     7     3     4    1
     8     4     5    1
     9     5     6    1
    10     6     7   ar
    11     7     8   ar
    12     8     9   ar
    13     9    12    1
    14    12    13   ar
    15    13    14   ar
    16    14    15   ar
    17    15    16    1
    18    15    17   ar
    19    17    18   ar
    20     9    10   ar
    21    10    25    1
    22    25    27    1
    23    27    28   ar
    24    28    29   ar
    25    29    30   ar
    26    30    31    1
    27    30    32   ar
    28    32    33    1
    29    32    34   ar
    30     7    11    1
    31    11     3    1
    32    10     6   ar
    33    34    27   ar
    34    18    12   ar
    35    22    23    1
    36    22    24    1
    37    25    26    1
@<TRIPOS>MOLECULE
*****
 34 37 0 0 0
SMALL
GASTEIGER

@<TRIPOS>ATOM
      1 C           3.3790   -1.8313   20.0642 C.2     1  UNL1        0.2383
      2 O           2.0071   -1.2942   19.7826 O.2     1  UNL1       -0.2735
      3 N           3.9483   -1.7457   21.4493 N.am    1  UNL1       -0.2695
      4 C           5.3202   -2.2829   21.7309 C.3     1  UNL1        0.1184
      5 C           5.8895   -2.1972   23.1160 C.3     1  UNL1        0.1299
      6 N           5.0869   -1.5744   24.2195 N.ar    1  UNL1       -0.3005
      7 C           3.7150   -1.0372   23.9380 C.ar    1  UNL1        0.1416
      8 N           3.1629   -0.4822   25.2176 N.ar    1  UNL1       -0.2279
      9 C           4.1936   -0.6764   26.2899 C.ar    1  UNL1        0.1125
     10 C           5.3827   -1.3514   25.6731 C.ar    1  UNL1        0.1318
     11 C           3.1457   -1.1229   22.5529 C.3     1  UNL1        0.1578
     12 C           4.0589   -0.2673   27.7268 C.ar    1  UNL1        0.0205
     13 C           4.9611    0.7884   28.2938 C.ar    1  UNL1        0.0039
     14 C           4.8265    1.1974   29.7306 C.ar    1  UNL1        0.0297
     15 C           3.7896    0.5508   30.6004 C.ar    1  UNL1        0.1401
     16 F           3.6549    0.9598   32.0373 F       1  UNL1       -0.2042
     17 C           2.8874   -0.5050   30.0335 C.ar    1  UNL1        0.0297
     18 C           3.0220   -0.9140   28.5966 C.ar    1  UNL1        0.0039
     19 C           3.5826   -3.7917   19.2799 C.3     1  UNL1        0.0249
     20 C           4.1816   -2.4541   18.9606 C.3     1  UNL1        0.1089
     21 C           4.7806   -1.1165   18.6414 C.3     1  UNL1        0.0249
     22 N           4.9842   -3.0770   17.8570 N.3     1  UNL1       -0.3164
     23 H           5.5501   -2.3607   17.4022 H       1  UNL1        0.1192
     24 H           4.3541   -3.4971   17.1737 H       1  UNL1        0.1192
     25 N           6.6458   -1.7359   26.3848 N.pl3   1  UNL1       -0.2980
     26 H           7.4857   -1.2617   26.1877 H       1  UNL1        0.1536
     27 C           6.6293   -2.8429   27.3968 C.ar    1  UNL1        0.0518
     28 C           6.5482   -4.2710   26.9451 C.ar    1  UNL1        0.0171
     29 C           6.5317   -5.3780   27.9573 C.ar    1  UNL1        0.0332
     30 C           6.5962   -5.0569   29.4211 C.ar    1  UNL1        0.1675
     31 F           6.5797   -6.1639   30.4331 F       1  UNL1       -0.2018
     32 C           6.6773   -3.6288   29.8728 C.ar    1  UNL1        0.1686
     33 F           6.7418   -3.3077   31.3366 F       1  UNL1       -0.2018
     34 C           6.6938   -2.5219   28.8607 C.ar    1  UNL1        0.0466
@<TRIPOS>BOND
     1    19    20    1
     2    20    21    1
     3    20    22    1
     4    20     1    1
     5     1     2    2
     6     1     3   am
     7     3     4    1
     8     4     5    1
     9     5     6    1
    10     6     7   ar
    11     7     8   ar
    12     8     9   ar
    13     9    12    1
    14    12    13   ar
    15    13    14   ar
    16    14    15   ar
    17    15    16    1
    18    15    17   ar
    19    17    18   ar
    20     9    10   ar
    21    10    25    1
    22    25    27    1
    23    27    28   ar
    24    28    29   ar
    25    29    30   ar
    26    30    31    1
    27    30    32   ar
    28    32    33    1
    29    32    34   ar
    30     7    11    1
    31    11     3    1
    32    10     6   ar
    33    34    27   ar
    34    18    12   ar
    35    22    23    1
    36    22    24    1
    37    25    26    1
@<TRIPOS>MOLECULE
*****
 34 37 0 0 0
SMALL
GASTEIGER

@<TRIPOS>ATOM
      1 C           8.2258   -6.8798   27.7085 C.2     1  UNL1        0.2383
      2 O           8.6881   -8.0203   28.5661 O.2     1  UNL1       -0.2735
      3 N           7.7467   -5.6089   28.3451 N.am    1  UNL1       -0.2695
      4 C           7.2844   -4.4684   27.4875 C.3     1  UNL1        0.1184
      5 C           6.8053   -3.1975   28.1241 C.3     1  UNL1        0.1299
      6 N           6.7885   -3.0671   29.6183 N.ar    1  UNL1       -0.3005
      7 C           7.2508   -4.2075   30.4759 C.ar    1  UNL1        0.1416
      8 N           7.1214   -3.7905   31.9110 N.ar    1  UNL1       -0.2279
      9 C           6.5791   -2.3923   31.9402 C.ar    1  UNL1        0.1125
     10 C           6.3734   -1.9452   30.5233 C.ar    1  UNL1        0.1318
     11 C           7.7299   -5.4785   29.8393 C.3     1  UNL1        0.1578
     12 C           6.2928   -1.5832   33.1705 C.ar    1  UNL1        0.0205
     13 C           7.3645   -0.7190   33.7659 C.ar    1  UNL1        0.0039
     14 C           7.0782    0.0901   34.9961 C.ar    1  UNL1        0.0297
     15 C           5.7203    0.0350   35.6308 C.ar    1  UNL1        0.1401
     16 F           5.4340    0.8441   36.8611 F       1  UNL1       -0.2042
     17 C           4.6486   -0.8292   35.0354 C.ar    1  UNL1        0.0297
     18 C           4.9348   -1.6383   33.8052 C.ar    1  UNL1        0.0039
     19 C           9.5331   -6.2475   26.1622 C.3     1  UNL1        0.0249
     20 C           8.2426   -7.0103   26.2143 C.3     1  UNL1        0.1089
     21 C           6.9520   -7.7730   26.2664 C.3     1  UNL1        0.0249
     22 N           8.2594   -7.1407   24.7200 N.3     1  UNL1       -0.3164
     23 H           7.4358   -7.6592   24.4147 H       1  UNL1        0.1192
     24 H           9.1013   -7.6392   24.4317 H       1  UNL1        0.1192
     25 N           5.8452   -0.6105   30.0877 N.pl3   1  UNL1       -0.2980
     26 H           6.4354    0.1774   30.0915 H       1  UNL1        0.1536
     27 C           4.4179   -0.4764   29.6465 C.ar    1  UNL1        0.0518
     28 C           3.3104   -0.5566   30.6550 C.ar    1  UNL1        0.0171
     29 C           1.8830   -0.4224   30.2137 C.ar    1  UNL1        0.0332
     30 C           1.5632   -0.2080   28.7639 C.ar    1  UNL1        0.1675
     31 F           0.1359   -0.0738   28.3227 F       1  UNL1       -0.2018
     32 C           2.6707   -0.1277   27.7555 C.ar    1  UNL1        0.1686
     33 F           2.3509    0.0867   26.3057 F       1  UNL1       -0.2018
     34 C           4.0980   -0.2619   28.1968 C.ar    1  UNL1        0.0466
@<TRIPOS>BOND
     1    19    20    1
     2    20    21    1
     3    20    22    1
     4    20     1    1
     5     1     2    2
     6     1     3   am
     7     3     4    1
     8     4     5    1
     9     5     6    1
    10     6     7   ar
    11     7     8   ar
    12     8     9   ar
    13     9    12    1
    14    12    13   ar
    15    13    14   ar
    16    14    15   ar
    17    15    16    1
    18    15    17   ar
    19    17    18   ar
    20     9    10   ar
    21    10    25    1
    22    25    27    1
    23    27    28   ar
    24    28    29   ar
    25    29    30   ar
    26    30    31    1
    27    30    32   ar
    28    32    33    1
    29    32    34   ar
    30     7    11    1
    31    11     3    1
    32    10     6   ar
    33    34    27   ar
    34    18    12   ar
    35    22    23    1
    36    22    24    1
    37    25    26    1
