@<TRIPOS>MOLECULE
*****
 50 53 0 0 0
SMALL
GASTEIGER

@<TRIPOS>ATOM
      1 C           7.9478   -2.5381   29.1502 C.2     1  UNL1        0.2438
      2 O           8.8557   -1.3460   29.0832 O.2     1  UNL1       -0.2731
      3 N           7.6966   -3.3597   27.9206 N.am    1  UNL1       -0.2741
      4 C           8.3533   -2.9892   26.6240 C.3     1  UNL1        0.0938
      5 C           7.5554   -2.9837   25.3538 C.3     1  UNL1        0.0233
      6 C           7.2959   -1.6920   24.6367 C.3     1  UNL1        0.0234
      7 C           6.8886   -1.7044   23.1931 C.3     1  UNL1        0.0971
      8 N           5.7609   -2.5834   22.7394 N.am    1  UNL1       -0.2419
      9 C           5.9817   -3.5784   21.6389 C.2     1  UNL1        0.4055
     10 O           4.8541   -4.4574   21.1852 O.2     1  UNL1       -0.2262
     11 C           4.4126   -2.4674   23.3863 C.3     1  UNL1        0.1234
     12 C           3.4718   -1.3762   22.9688 C.ar    1  UNL1       -0.0022
     13 C           2.8858   -0.4564   23.9987 C.ar    1  UNL1       -0.0026
     14 C           1.9451    0.6347   23.5812 C.ar    1  UNL1       -0.0003
     15 C           1.5903    0.8061   22.1338 C.ar    1  UNL1       -0.0000
     16 C           2.1763   -0.1136   21.1040 C.ar    1  UNL1       -0.0003
     17 C           3.1171   -1.2047   21.5215 C.ar    1  UNL1       -0.0026
     18 O           7.3301   -3.6943   20.9920 O.3     1  UNL1       -0.4289
     19 C           7.6706   -2.8374   19.8089 C.3     1  UNL1        0.2447
     20 C           6.5830   -2.1239   19.0619 C.ar    1  UNL1        0.0714
     21 C           5.6718   -2.7320   18.0372 C.ar    1  UNL1        0.1053
     22 N           4.7413   -1.6609   17.5504 N.ar    1  UNL1       -0.2350
     23 C           5.0774   -0.3908   18.2743 C.ar    1  UNL1        0.1343
     24 S           6.2157   -0.6769   19.2084 S.2     1  UNL1       -0.0652
     25 C           6.7886   -4.5518   27.9877 C.3     1  UNL1        0.1202
     26 C           7.3222   -5.9192   27.6790 C.ar    1  UNL1       -0.0023
     27 C           8.2815   -6.5808   28.6235 C.ar    1  UNL1       -0.0026
     28 C           8.8151   -7.9483   28.3148 C.ar    1  UNL1       -0.0003
     29 C           8.3893   -8.6542   27.0616 C.ar    1  UNL1       -0.0000
     30 C           7.4300   -7.9926   26.1172 C.ar    1  UNL1       -0.0003
     31 C           6.8964   -6.6252   26.4259 C.ar    1  UNL1       -0.0026
     32 C           7.2910   -2.9086   30.4469 C.3     1  UNL1        0.1499
     33 N           4.8478   -0.1913   31.9954 N.am    1  UNL1       -0.2567
     34 C           4.9223    1.1375   32.6872 C.3     1  UNL1        0.1168
     35 C           6.1066   -0.8855   31.5670 C.2     1  UNL1        0.3046
     36 O           7.4400   -0.2508   31.8304 O.2     1  UNL1       -0.2526
     37 N           6.0321   -2.2144   30.8753 N.am    1  UNL1       -0.2824
     38 H           5.1570   -2.6309   30.7024 H       1  UNL1        0.1514
     39 C           3.5145   -0.8260   31.7320 C.3     1  UNL1        0.1413
     40 C           1.0464   -0.0265   28.8451 C.ar    1  UNL1        0.0875
     41 N           1.3368   -0.2253   30.3032 N.ar    1  UNL1       -0.2453
     42 C           2.7940   -0.5511   30.4454 C.ar    1  UNL1        0.0858
     43 C           3.4043   -0.5537   29.0752 C.ar    1  UNL1        0.0530
     44 S           2.3242   -0.2294   28.0861 S.2     1  UNL1       -0.0705
     45 C          -0.3630    1.1610   27.0138 C.3     1  UNL1        0.0069
     46 C          -0.2876    0.3153   28.2503 C.3     1  UNL1        0.0465
     47 C          -1.5462   -0.1886   28.8921 C.3     1  UNL1        0.0069
     48 C           7.8930   -3.9733   31.3152 C.3     1  UNL1        0.0270
     49 C           9.3251   -3.8666   31.7487 C.3     1  UNL1        0.0022
     50 C           7.0631   -5.1445   31.7501 C.3     1  UNL1        0.0022
@<TRIPOS>BOND
     1    45    46    1
     2    46    47    1
     3    46    40    1
     4    40    41   ar
     5    41    42   ar
     6    42    39    1
     7    39    33    1
     8    33    34    1
     9    33    35   am
    10    35    36    2
    11    35    37   am
    12    32    37    1
    13    32     1    1
    14     1     2    2
    15     1     3   am
    16     3     4    1
    17     4     5    1
    18     5     6    1
    19     6     7    1
    20     7     8    1
    21     8    11    1
    22    11    12    1
    23    12    13   ar
    24    13    14   ar
    25    14    15   ar
    26    15    16   ar
    27    16    17   ar
    28     8     9   am
    29     9    10    2
    30     9    18    1
    31    18    19    1
    32    19    20    1
    33    20    21   ar
    34    21    22   ar
    35    22    23   ar
    36    23    24   ar
    37     3    25    1
    38    25    26    1
    39    26    27   ar
    40    27    28   ar
    41    28    29   ar
    42    29    30   ar
    43    30    31   ar
    44    32    48    1
    45    48    49    1
    46    48    50    1
    47    42    43   ar
    48    43    44   ar
    49    44    40   ar
    50    17    12   ar
    51    24    20   ar
    52    31    26   ar
    53    37    38    1
@<TRIPOS>MOLECULE
*****
 50 53 0 0 0
SMALL
GASTEIGER

@<TRIPOS>ATOM
      1 C           0.2292    1.8121   21.0288 C.2     1  UNL1        0.2438
      2 O          -0.5473    0.5836   20.6578 O.2     1  UNL1       -0.2731
      3 N           1.5328    1.6831   21.7597 N.am    1  UNL1       -0.2741
      4 C           2.0597    0.3256   22.1196 C.3     1  UNL1        0.0938
      5 C           2.9385   -0.4171   21.1571 C.3     1  UNL1        0.0233
      6 C           2.3286   -1.3342   20.1389 C.3     1  UNL1        0.0234
      7 C           3.1603   -2.4087   19.5037 C.3     1  UNL1        0.0971
      8 N           4.2126   -2.0465   18.4978 N.am    1  UNL1       -0.2419
      9 C           5.5232   -2.7760   18.4878 C.2     1  UNL1        0.4055
     10 O           6.5754   -2.4139   17.4820 O.2     1  UNL1       -0.2262
     11 C           3.9542   -0.9548   17.5021 C.3     1  UNL1        0.1234
     12 C           4.3268    0.4612   17.8281 C.ar    1  UNL1       -0.0022
     13 C           5.7600    0.8966   17.7499 C.ar    1  UNL1       -0.0026
     14 C           6.1325    2.3126   18.0758 C.ar    1  UNL1       -0.0003
     15 C           5.0718    3.2931   18.4800 C.ar    1  UNL1       -0.0000
     16 C           3.6386    2.8577   18.5583 C.ar    1  UNL1       -0.0003
     17 C           3.2661    1.4417   18.2323 C.ar    1  UNL1       -0.0026
     18 O           5.7815   -3.8678   19.4835 O.3     1  UNL1       -0.4289
     19 C           6.6204   -3.5935   20.6964 C.3     1  UNL1        0.2447
     20 C           6.0176   -2.9058   21.8853 C.ar    1  UNL1        0.0714
     21 C           4.8787   -3.4178   22.7164 C.ar    1  UNL1        0.1053
     22 N           4.6051   -2.4137   23.7966 N.ar    1  UNL1       -0.2350
     23 C           5.5750   -1.2811   23.6333 C.ar    1  UNL1        0.1343
     24 S           6.4479   -1.5853   22.4520 S.2     1  UNL1       -0.0652
     25 C           2.3093    2.9116   22.1308 C.3     1  UNL1        0.1202
     26 C           2.2298    3.4561   23.5263 C.ar    1  UNL1       -0.0023
     27 C           1.3952    4.6695   23.8114 C.ar    1  UNL1       -0.0026
     28 C           1.3157    5.2140   25.2068 C.ar    1  UNL1       -0.0003
     29 C           2.0707    4.5451   26.3171 C.ar    1  UNL1       -0.0000
     30 C           2.9052    3.3318   26.0319 C.ar    1  UNL1       -0.0003
     31 C           2.9847    2.7873   24.6365 C.ar    1  UNL1       -0.0026
     32 C          -0.2977    3.1695   20.6690 C.3     1  UNL1        0.1499
     33 N          -3.7519    4.3652   22.2149 N.am    1  UNL1       -0.2567
     34 C          -5.2223    4.1986   21.9693 C.3     1  UNL1        0.1168
     35 C          -2.7600    3.6840   21.3192 C.2     1  UNL1        0.3046
     36 O          -3.2385    2.8364   20.1779 O.2     1  UNL1       -0.2526
     37 N          -1.2897    3.8506   21.5648 N.am    1  UNL1       -0.2824
     38 H          -0.9757    4.4070   22.3138 H       1  UNL1        0.1514
     39 C          -3.2735    5.2128   23.3562 C.3     1  UNL1        0.1413
     40 C          -1.4220    3.0404   25.9863 C.ar    1  UNL1        0.0875
     41 N          -1.8239    3.3227   24.5690 N.ar    1  UNL1       -0.2453
     42 C          -2.6599    4.5681   24.5635 C.ar    1  UNL1        0.0858
     43 C          -2.7747    5.0555   25.9775 C.ar    1  UNL1        0.0530
     44 S          -2.0096    4.1114   26.8568 S.2     1  UNL1       -0.0705
     45 C          -0.3591    1.6663   27.9182 C.3     1  UNL1        0.0069
     46 C          -0.5802    1.8893   26.4514 C.3     1  UNL1        0.0465
     47 C           0.0405    0.9611   25.4498 C.3     1  UNL1        0.0069
     48 C           0.1672    3.8460   19.4135 C.3     1  UNL1        0.0270
     49 C           0.8915    5.1572   19.4922 C.3     1  UNL1        0.0022
     50 C          -0.0922    3.2113   18.0795 C.3     1  UNL1        0.0022
@<TRIPOS>BOND
     1    45    46    1
     2    46    47    1
     3    46    40    1
     4    40    41   ar
     5    41    42   ar
     6    42    39    1
     7    39    33    1
     8    33    34    1
     9    33    35   am
    10    35    36    2
    11    35    37   am
    12    32    37    1
    13    32     1    1
    14     1     2    2
    15     1     3   am
    16     3     4    1
    17     4     5    1
    18     5     6    1
    19     6     7    1
    20     7     8    1
    21     8    11    1
    22    11    12    1
    23    12    13   ar
    24    13    14   ar
    25    14    15   ar
    26    15    16   ar
    27    16    17   ar
    28     8     9   am
    29     9    10    2
    30     9    18    1
    31    18    19    1
    32    19    20    1
    33    20    21   ar
    34    21    22   ar
    35    22    23   ar
    36    23    24   ar
    37     3    25    1
    38    25    26    1
    39    26    27   ar
    40    27    28   ar
    41    28    29   ar
    42    29    30   ar
    43    30    31   ar
    44    32    48    1
    45    48    49    1
    46    48    50    1
    47    42    43   ar
    48    43    44   ar
    49    44    40   ar
    50    17    12   ar
    51    24    20   ar
    52    31    26   ar
    53    37    38    1
@<TRIPOS>MOLECULE
*****
 50 53 0 0 0
SMALL
GASTEIGER

@<TRIPOS>ATOM
      1 C           0.3632    2.0280   20.8715 C.2     1  UNL1        0.2438
      2 O          -0.1237    1.6235   22.2314 O.2     1  UNL1       -0.2731
      3 N           0.8919    0.9912   19.9252 N.am    1  UNL1       -0.2741
      4 C           0.9336   -0.4500   20.3386 C.3     1  UNL1        0.0938
      5 C           2.2106   -1.0463   20.8524 C.3     1  UNL1        0.0233
      6 C           3.1746   -0.1993   21.6290 C.3     1  UNL1        0.0234
      7 C           3.4490   -0.5062   23.0714 C.3     1  UNL1        0.0971
      8 N           4.6090   -1.3810   23.4446 N.am    1  UNL1       -0.2419
      9 C           4.7444   -1.8880   24.8499 C.2     1  UNL1        0.4055
     10 O           5.9043   -2.7627   25.2231 O.2     1  UNL1       -0.2262
     11 C           5.6336   -1.7487   22.4127 C.3     1  UNL1        0.1234
     12 C           5.2638   -2.6605   21.2804 C.ar    1  UNL1       -0.0022
     13 C           4.4035   -3.8624   21.5355 C.ar    1  UNL1       -0.0026
     14 C           4.0338   -4.7741   20.4033 C.ar    1  UNL1       -0.0003
     15 C           4.5245   -4.4839   19.0158 C.ar    1  UNL1       -0.0000
     16 C           5.3848   -3.2820   18.7606 C.ar    1  UNL1       -0.0003
     17 C           5.7545   -2.3703   19.8929 C.ar    1  UNL1       -0.0026
     18 O           3.7197   -1.5201   25.8819 O.3     1  UNL1       -0.4289
     19 C           4.0357   -0.4794   26.9148 C.3     1  UNL1        0.2447
     20 C           3.3063   -0.4778   28.2254 C.ar    1  UNL1        0.0714
     21 C           1.8249   -0.3320   28.4098 C.ar    1  UNL1        0.1053
     22 N           1.5332   -0.3858   29.8802 N.ar    1  UNL1       -0.2350
     23 C           2.8345   -0.5648   30.6046 C.ar    1  UNL1        0.1343
     24 S           3.9303   -0.6216   29.5819 S.2     1  UNL1       -0.0652
     25 C           1.3789    1.3957   18.5653 C.3     1  UNL1        0.1202
     26 C           2.7805    1.0686   18.1426 C.ar    1  UNL1       -0.0023
     27 C           3.0616   -0.2023   17.3970 C.ar    1  UNL1       -0.0026
     28 C           4.4631   -0.5295   16.9743 C.ar    1  UNL1       -0.0003
     29 C           5.5835    0.4142   17.2972 C.ar    1  UNL1       -0.0000
     30 C           5.3023    1.6850   18.0429 C.ar    1  UNL1       -0.0003
     31 C           3.9008    2.0122   18.4656 C.ar    1  UNL1       -0.0026
     32 C           0.3216    3.4693   20.4581 C.3     1  UNL1        0.1499
     33 N          -2.9507    4.8089   18.6557 N.am    1  UNL1       -0.2567
     34 C          -3.5846    4.7908   17.2964 C.3     1  UNL1        0.1168
     35 C          -1.6315    4.1300   18.8772 C.2     1  UNL1        0.3046
     36 O          -0.9464    3.4330   17.7394 O.2     1  UNL1       -0.2526
     37 N          -0.9976    4.1481   20.2366 N.am    1  UNL1       -0.2824
     38 H          -1.4473    4.6056   20.9834 H       1  UNL1        0.1514
     39 C          -3.6359    5.5059   19.7936 C.3     1  UNL1        0.1413
     40 C          -3.8847    3.9157   23.3255 C.ar    1  UNL1        0.0875
     41 N          -3.2162    4.8350   22.3467 N.ar    1  UNL1       -0.2453
     42 C          -3.9622    4.7512   21.0481 C.ar    1  UNL1        0.0858
     43 C          -5.0917    3.7800   21.2243 C.ar    1  UNL1        0.0530
     44 S          -5.0439    3.2637   22.6318 S.2     1  UNL1       -0.0705
     45 C          -4.4491    3.9046   25.8616 C.3     1  UNL1        0.0069
     46 C          -3.4673    3.6884   24.7483 C.3     1  UNL1        0.0465
     47 C          -2.0683    3.2448   25.0577 C.3     1  UNL1        0.0069
     48 C           1.5990    4.2317   20.2661 C.3     1  UNL1        0.0270
     49 C           1.7647    5.1300   19.0762 C.3     1  UNL1        0.0022
     50 C           2.7107    4.0959   21.2639 C.3     1  UNL1        0.0022
@<TRIPOS>BOND
     1    45    46    1
     2    46    47    1
     3    46    40    1
     4    40    41   ar
     5    41    42   ar
     6    42    39    1
     7    39    33    1
     8    33    34    1
     9    33    35   am
    10    35    36    2
    11    35    37   am
    12    32    37    1
    13    32     1    1
    14     1     2    2
    15     1     3   am
    16     3     4    1
    17     4     5    1
    18     5     6    1
    19     6     7    1
    20     7     8    1
    21     8    11    1
    22    11    12    1
    23    12    13   ar
    24    13    14   ar
    25    14    15   ar
    26    15    16   ar
    27    16    17   ar
    28     8     9   am
    29     9    10    2
    30     9    18    1
    31    18    19    1
    32    19    20    1
    33    20    21   ar
    34    21    22   ar
    35    22    23   ar
    36    23    24   ar
    37     3    25    1
    38    25    26    1
    39    26    27   ar
    40    27    28   ar
    41    28    29   ar
    42    29    30   ar
    43    30    31   ar
    44    32    48    1
    45    48    49    1
    46    48    50    1
    47    42    43   ar
    48    43    44   ar
    49    44    40   ar
    50    17    12   ar
    51    24    20   ar
    52    31    26   ar
    53    37    38    1
@<TRIPOS>MOLECULE
*****
 50 53 0 0 0
SMALL
GASTEIGER

@<TRIPOS>ATOM
      1 C           6.2254   -1.2666   23.8141 C.2     1  UNL1        0.2438
      2 O           7.4702   -0.6225   23.2798 O.2     1  UNL1       -0.2731
      3 N           5.0782   -0.4158   24.2725 N.am    1  UNL1       -0.2741
      4 C           5.1758    1.0791   24.1964 C.3     1  UNL1        0.0938
      5 C           4.8249    1.7898   22.9229 C.3     1  UNL1        0.0233
      6 C           3.4003    1.8314   22.4553 C.3     1  UNL1        0.0234
      7 C           2.7597    0.5979   21.8914 C.3     1  UNL1        0.0971
      8 N           2.4621    0.5112   20.4238 N.am    1  UNL1       -0.2419
      9 C           1.0601    0.7113   19.9296 C.2     1  UNL1        0.4055
     10 O           0.7625    0.6247   18.4620 O.2     1  UNL1       -0.2262
     11 C           3.5667    0.2244   19.4503 C.3     1  UNL1        0.1234
     12 C           3.9798   -1.1922   19.1806 C.ar    1  UNL1       -0.0022
     13 C           5.3562   -1.4863   18.6621 C.ar    1  UNL1       -0.0026
     14 C           5.7693   -2.9028   18.3925 C.ar    1  UNL1       -0.0003
     15 C           4.8059   -4.0253   18.6414 C.ar    1  UNL1       -0.0000
     16 C           3.4295   -3.7312   19.1600 C.ar    1  UNL1       -0.0003
     17 C           3.0164   -2.3147   19.4296 C.ar    1  UNL1       -0.0026
     18 O          -0.0445    0.9981   20.9032 O.3     1  UNL1       -0.4289
     19 C          -0.4521    2.4151   21.1789 C.3     1  UNL1        0.2447
     20 C          -1.4390    3.0999   20.2806 C.ar    1  UNL1        0.0714
     21 C          -2.9214    3.1771   20.4960 C.ar    1  UNL1        0.1053
     22 N          -3.5154    3.9527   19.3577 N.ar    1  UNL1       -0.2350
     23 C          -2.4000    4.3549   18.4388 C.ar    1  UNL1        0.1343
     24 S          -1.1167    3.8278   19.0093 S.2     1  UNL1       -0.0652
     25 C           3.8334   -1.0599   24.8069 C.3     1  UNL1        0.1202
     26 C           3.2176   -0.5601   26.0800 C.ar    1  UNL1       -0.0023
     27 C           2.3028    0.6285   26.0546 C.ar    1  UNL1       -0.0026
     28 C           1.6870    1.1283   27.3278 C.ar    1  UNL1       -0.0003
     29 C           1.9860    0.4395   28.6264 C.ar    1  UNL1       -0.0000
     30 C           2.9007   -0.7490   28.6517 C.ar    1  UNL1       -0.0003
     31 C           3.5165   -1.2488   27.3786 C.ar    1  UNL1       -0.0026
     32 C           6.1279   -2.7614   23.8902 C.3     1  UNL1        0.1499
     33 N           7.8686   -4.4997   27.0045 N.am    1  UNL1       -0.2567
     34 C           9.2465   -4.8428   27.4877 C.3     1  UNL1        0.1168
     35 C           7.6872   -3.8021   25.6889 C.2     1  UNL1        0.3046
     36 O           8.8838   -3.4478   24.8566 O.2     1  UNL1       -0.2526
     37 N           6.3093   -3.4589   25.2057 N.am    1  UNL1       -0.2824
     38 H           5.5240   -3.6915   25.7520 H       1  UNL1        0.1514
     39 C           6.6720   -4.8540   27.8368 C.3     1  UNL1        0.1413
     40 C           6.5065   -3.4897   31.4667 C.ar    1  UNL1        0.0875
     41 N           6.3743   -3.2924   29.9856 N.ar    1  UNL1       -0.2453
     42 C           6.6839   -4.5977   29.3146 C.ar    1  UNL1        0.0858
     43 C           7.0075   -5.6018   30.3810 C.ar    1  UNL1        0.0530
     44 S           6.8979   -4.9170   31.7111 S.2     1  UNL1       -0.0705
     45 C           7.4015   -1.5152   32.8987 C.3     1  UNL1        0.0069
     46 C           6.2861   -2.4434   32.5187 C.3     1  UNL1        0.0465
     47 C           4.9503   -2.3253   33.1907 C.3     1  UNL1        0.0069
     48 C           5.8489   -3.5588   22.6507 C.3     1  UNL1        0.0270
     49 C           4.4440   -3.9713   22.3246 C.3     1  UNL1        0.0022
     50 C           6.9747   -3.9437   21.7373 C.3     1  UNL1        0.0022
@<TRIPOS>BOND
     1    45    46    1
     2    46    47    1
     3    46    40    1
     4    40    41   ar
     5    41    42   ar
     6    42    39    1
     7    39    33    1
     8    33    34    1
     9    33    35   am
    10    35    36    2
    11    35    37   am
    12    32    37    1
    13    32     1    1
    14     1     2    2
    15     1     3   am
    16     3     4    1
    17     4     5    1
    18     5     6    1
    19     6     7    1
    20     7     8    1
    21     8    11    1
    22    11    12    1
    23    12    13   ar
    24    13    14   ar
    25    14    15   ar
    26    15    16   ar
    27    16    17   ar
    28     8     9   am
    29     9    10    2
    30     9    18    1
    31    18    19    1
    32    19    20    1
    33    20    21   ar
    34    21    22   ar
    35    22    23   ar
    36    23    24   ar
    37     3    25    1
    38    25    26    1
    39    26    27   ar
    40    27    28   ar
    41    28    29   ar
    42    29    30   ar
    43    30    31   ar
    44    32    48    1
    45    48    49    1
    46    48    50    1
    47    42    43   ar
    48    43    44   ar
    49    44    40   ar
    50    17    12   ar
    51    24    20   ar
    52    31    26   ar
    53    37    38    1
@<TRIPOS>MOLECULE
*****
 50 53 0 0 0
SMALL
GASTEIGER

@<TRIPOS>ATOM
      1 C           5.3546    1.1095   19.7882 C.2     1  UNL1        0.2438
      2 O           6.4260    2.1560   19.7061 O.2     1  UNL1       -0.2731
      3 N           5.2564    0.2301   20.9994 N.am    1  UNL1       -0.2741
      4 C           6.2295    0.3973   22.1285 C.3     1  UNL1        0.0938
      5 C           6.3026   -0.6348   23.2147 C.3     1  UNL1        0.0233
      6 C           5.5295   -0.4422   24.4855 C.3     1  UNL1        0.0234
      7 C           5.0308   -1.6338   25.2479 C.3     1  UNL1        0.0971
      8 N           5.8100   -2.1548   26.4190 N.am    1  UNL1       -0.2419
      9 C           5.1904   -2.1707   27.7849 C.2     1  UNL1        0.4055
     10 O           5.9696   -2.6917   28.9559 O.2     1  UNL1       -0.2262
     11 C           7.2089   -2.6600   26.2240 C.3     1  UNL1        0.1234
     12 C           7.4399   -4.0196   25.6340 C.ar    1  UNL1       -0.0022
     13 C           7.8740   -4.1530   24.2045 C.ar    1  UNL1       -0.0026
     14 C           8.1051   -5.5126   23.6146 C.ar    1  UNL1       -0.0003
     15 C           7.9020   -6.7389   24.4542 C.ar    1  UNL1       -0.0000
     16 C           7.4679   -6.6055   25.8838 C.ar    1  UNL1       -0.0003
     17 C           7.2369   -5.2459   26.4737 C.ar    1  UNL1       -0.0026
     18 O           3.7915   -1.6655   27.9798 O.3     1  UNL1       -0.4289
     19 C           3.5043   -0.6424   29.0384 C.3     1  UNL1        0.2447
     20 C           2.3246    0.2731   28.8962 C.ar    1  UNL1        0.0714
     21 C           2.3788    1.7386   28.5809 C.ar    1  UNL1        0.1053
     22 N           0.9714    2.2551   28.5342 N.ar    1  UNL1       -0.2350
     23 C           0.0472    1.1088   28.8207 C.ar    1  UNL1        0.1343
     24 S           0.8836   -0.1161   29.0444 S.2     1  UNL1       -0.0652
     25 C           4.1850   -0.8165   21.0815 C.3     1  UNL1        0.1202
     26 C           4.3707   -2.1357   20.3920 C.ar    1  UNL1       -0.0023
     27 C           5.7311   -2.7648   20.3306 C.ar    1  UNL1       -0.0026
     28 C           5.9168   -4.0840   19.6412 C.ar    1  UNL1       -0.0003
     29 C           4.7422   -4.7740   19.0132 C.ar    1  UNL1       -0.0000
     30 C           3.3820   -4.1448   19.0746 C.ar    1  UNL1       -0.0003
     31 C           3.1962   -2.8256   19.7640 C.ar    1  UNL1       -0.0026
     32 C           4.3815    0.9423   18.6590 C.3     1  UNL1        0.1499
     33 N           1.5514    3.7031   18.3137 N.am    1  UNL1       -0.2567
     34 C           1.4018    5.1217   17.8497 C.3     1  UNL1        0.1168
     35 C           2.8916    3.0320   18.2544 C.2     1  UNL1        0.3046
     36 O           4.0822    3.7794   17.7311 O.2     1  UNL1       -0.2526
     37 N           3.0412    1.6134   18.7184 N.am    1  UNL1       -0.2824
     38 H           2.2598    1.1229   19.0618 H       1  UNL1        0.1514
     39 C           0.3609    2.9557   18.8370 C.3     1  UNL1        0.1413
     40 C           0.3616    2.0465   22.6104 C.ar    1  UNL1        0.0875
     41 N           0.8761    1.8496   21.2152 N.ar    1  UNL1       -0.2453
     42 C           0.1569    2.8109   20.3160 C.ar    1  UNL1        0.0858
     43 C          -0.8020    3.6020   21.1554 C.ar    1  UNL1        0.0530
     44 S          -0.6755    3.1296   22.5735 S.2     1  UNL1       -0.0705
     45 C           0.0165    1.3895   25.1002 C.3     1  UNL1        0.0069
     46 C           0.8063    1.2928   23.8287 C.3     1  UNL1        0.0465
     47 C           2.0407    0.4423   23.7754 C.3     1  UNL1        0.0069
     48 C           4.7484    0.1040   17.4705 C.3     1  UNL1        0.0270
     49 C           3.7349   -0.8198   16.8626 C.3     1  UNL1        0.0022
     50 C           6.1289    0.1893   16.8900 C.3     1  UNL1        0.0022
@<TRIPOS>BOND
     1    45    46    1
     2    46    47    1
     3    46    40    1
     4    40    41   ar
     5    41    42   ar
     6    42    39    1
     7    39    33    1
     8    33    34    1
     9    33    35   am
    10    35    36    2
    11    35    37   am
    12    32    37    1
    13    32     1    1
    14     1     2    2
    15     1     3   am
    16     3     4    1
    17     4     5    1
    18     5     6    1
    19     6     7    1
    20     7     8    1
    21     8    11    1
    22    11    12    1
    23    12    13   ar
    24    13    14   ar
    25    14    15   ar
    26    15    16   ar
    27    16    17   ar
    28     8     9   am
    29     9    10    2
    30     9    18    1
    31    18    19    1
    32    19    20    1
    33    20    21   ar
    34    21    22   ar
    35    22    23   ar
    36    23    24   ar
    37     3    25    1
    38    25    26    1
    39    26    27   ar
    40    27    28   ar
    41    28    29   ar
    42    29    30   ar
    43    30    31   ar
    44    32    48    1
    45    48    49    1
    46    48    50    1
    47    42    43   ar
    48    43    44   ar
    49    44    40   ar
    50    17    12   ar
    51    24    20   ar
    52    31    26   ar
    53    37    38    1
@<TRIPOS>MOLECULE
*****
 50 53 0 0 0
SMALL
GASTEIGER

@<TRIPOS>ATOM
      1 C           6.8241   -0.0731   26.4451 C.2     1  UNL1        0.2438
      2 O           8.0558    0.7636   26.6258 O.2     1  UNL1       -0.2731
      3 N           5.8417    0.2625   25.3624 N.am    1  UNL1       -0.2741
      4 C           6.0910    1.4348   24.4604 C.3     1  UNL1        0.0938
      5 C           6.9563    1.2756   23.2454 C.3     1  UNL1        0.0233
      6 C           6.4100    0.6091   22.0178 C.3     1  UNL1        0.0234
      7 C           7.3046    0.3564   20.8406 C.3     1  UNL1        0.0971
      8 N           6.7125   -0.0329   19.5185 N.am    1  UNL1       -0.2419
      9 C           7.2576   -1.2138   18.7712 C.2     1  UNL1        0.4055
     10 O           6.6655   -1.6031   17.4491 O.2     1  UNL1       -0.2262
     11 C           5.5755    0.7587   18.9437 C.3     1  UNL1        0.1234
     12 C           4.1614    0.3097   19.1653 C.ar    1  UNL1       -0.0022
     13 C           3.0210    1.1704   18.7089 C.ar    1  UNL1       -0.0026
     14 C           1.6070    0.7214   18.9305 C.ar    1  UNL1       -0.0003
     15 C           1.3336   -0.5884   19.6085 C.ar    1  UNL1       -0.0000
     16 C           2.4741   -1.4492   20.0649 C.ar    1  UNL1       -0.0003
     17 C           3.8880   -1.0001   19.8433 C.ar    1  UNL1       -0.0026
     18 O           8.3947   -2.0054   19.3460 O.3     1  UNL1       -0.4289
     19 C           8.1286   -3.3173   20.0229 C.3     1  UNL1        0.2447
     20 C           6.7950   -3.5762   20.6588 C.ar    1  UNL1        0.0714
     21 C           5.6213   -4.2435   20.0053 C.ar    1  UNL1        0.1053
     22 N           4.5018   -4.2930   21.0025 N.ar    1  UNL1       -0.2350
     23 C           4.9837   -3.6563   22.2724 C.ar    1  UNL1        0.1343
     24 S           6.4010   -3.2133   22.0599 S.2     1  UNL1       -0.0652
     25 C           4.6099   -0.5741   25.1817 C.3     1  UNL1        0.1202
     26 C           3.3228    0.0681   24.7564 C.ar    1  UNL1       -0.0023
     27 C           2.9273    0.0690   23.3094 C.ar    1  UNL1       -0.0026
     28 C           1.6402    0.7112   22.8841 C.ar    1  UNL1       -0.0003
     29 C           0.7485    1.3525   23.9057 C.ar    1  UNL1       -0.0000
     30 C           1.1440    1.3515   25.3526 C.ar    1  UNL1       -0.0003
     31 C           2.4311    0.7093   25.7779 C.ar    1  UNL1       -0.0026
     32 C           6.5747   -1.2453   27.3471 C.3     1  UNL1        0.1499
     33 N           5.2656   -0.2982   30.9719 N.am    1  UNL1       -0.2567
     34 C           5.7688    0.3570   32.2239 C.3     1  UNL1        0.1168
     35 C           6.1717   -0.4442   29.7855 C.2     1  UNL1        0.3046
     36 O           7.5811    0.0651   29.8511 O.2     1  UNL1       -0.2526
     37 N           5.6685   -1.0994   28.5335 N.am    1  UNL1       -0.2824
     38 H           4.7435   -1.4336   28.4905 H       1  UNL1        0.1514
     39 C           3.8562   -0.8075   30.9064 C.3     1  UNL1        0.1413
     40 C           0.7032    0.6908   29.2097 C.ar    1  UNL1        0.0875
     41 N           1.4433   -0.4691   29.8071 N.ar    1  UNL1       -0.2453
     42 C           2.7893    0.0202   30.2532 C.ar    1  UNL1        0.0858
     43 C           2.8810    1.4824   29.9315 C.ar    1  UNL1        0.0530
     44 S           1.5917    1.8969   29.2866 S.2     1  UNL1       -0.0705
     45 C          -1.1911    1.8059   27.8246 C.3     1  UNL1        0.0069
     46 C          -0.6823    0.6515   28.6360 C.3     1  UNL1        0.0465
     47 C          -1.5588   -0.5423   28.8738 C.3     1  UNL1        0.0069
     48 C           7.2315   -2.5636   27.0627 C.3     1  UNL1        0.0270
     49 C           6.6910   -3.4533   25.9826 C.3     1  UNL1        0.0022
     50 C           8.4287   -2.9921   27.8582 C.3     1  UNL1        0.0022
@<TRIPOS>BOND
     1    45    46    1
     2    46    47    1
     3    46    40    1
     4    40    41   ar
     5    41    42   ar
     6    42    39    1
     7    39    33    1
     8    33    34    1
     9    33    35   am
    10    35    36    2
    11    35    37   am
    12    32    37    1
    13    32     1    1
    14     1     2    2
    15     1     3   am
    16     3     4    1
    17     4     5    1
    18     5     6    1
    19     6     7    1
    20     7     8    1
    21     8    11    1
    22    11    12    1
    23    12    13   ar
    24    13    14   ar
    25    14    15   ar
    26    15    16   ar
    27    16    17   ar
    28     8     9   am
    29     9    10    2
    30     9    18    1
    31    18    19    1
    32    19    20    1
    33    20    21   ar
    34    21    22   ar
    35    22    23   ar
    36    23    24   ar
    37     3    25    1
    38    25    26    1
    39    26    27   ar
    40    27    28   ar
    41    28    29   ar
    42    29    30   ar
    43    30    31   ar
    44    32    48    1
    45    48    49    1
    46    48    50    1
    47    42    43   ar
    48    43    44   ar
    49    44    40   ar
    50    17    12   ar
    51    24    20   ar
    52    31    26   ar
    53    37    38    1
@<TRIPOS>MOLECULE
*****
 50 53 0 0 0
SMALL
GASTEIGER

@<TRIPOS>ATOM
      1 C           7.1889   -1.4820   25.2395 C.2     1  UNL1        0.2438
      2 O           8.5891   -0.9443   25.2315 O.2     1  UNL1       -0.2731
      3 N           6.1441   -0.8664   24.3566 N.am    1  UNL1       -0.2741
      4 C           6.4996    0.2868   23.4656 C.3     1  UNL1        0.0938
      5 C           6.7954    0.0499   22.0143 C.3     1  UNL1        0.0233
      6 C           5.7975    0.4537   20.9698 C.3     1  UNL1        0.0234
      7 C           6.2024    0.5069   19.5265 C.3     1  UNL1        0.0971
      8 N           5.1698    0.3406   18.4512 N.am    1  UNL1       -0.2419
      9 C           5.3194   -0.7475   17.4296 C.2     1  UNL1        0.4055
     10 O           4.2870   -0.9138   16.3543 O.2     1  UNL1       -0.2262
     11 C           3.9877    1.2624   18.3975 C.3     1  UNL1        0.1234
     12 C           2.7122    0.8876   19.0925 C.ar    1  UNL1       -0.0022
     13 C           2.4642   -0.5380   19.4873 C.ar    1  UNL1       -0.0026
     14 C           1.1888   -0.9127   20.1822 C.ar    1  UNL1       -0.0003
     15 C           0.1614    0.1383   20.4822 C.ar    1  UNL1       -0.0000
     16 C           0.4095    1.5639   20.0874 C.ar    1  UNL1       -0.0003
     17 C           1.6849    1.9386   19.3925 C.ar    1  UNL1       -0.0026
     18 O           6.5016   -1.6692   17.4833 O.3     1  UNL1       -0.4289
     19 C           6.7919   -2.4446   18.7341 C.3     1  UNL1        0.2447
     20 C           5.7071   -3.2493   19.3864 C.ar    1  UNL1        0.0714
     21 C           5.4799   -3.3899   20.8624 C.ar    1  UNL1        0.1053
     22 N           4.2914   -4.2822   21.0655 N.ar    1  UNL1       -0.2350
     23 C           3.7840   -4.6931   19.7150 C.ar    1  UNL1        0.1343
     24 S           4.6590   -4.0547   18.6773 S.2     1  UNL1       -0.0652
     25 C           4.7438   -1.4040   24.3646 C.3     1  UNL1        0.1202
     26 C           3.5851   -0.4755   24.5772 C.ar    1  UNL1       -0.0023
     27 C           2.7391   -0.0529   23.4128 C.ar    1  UNL1       -0.0026
     28 C           1.5804    0.8757   23.6255 C.ar    1  UNL1       -0.0003
     29 C           1.2677    1.3816   25.0026 C.ar    1  UNL1       -0.0000
     30 C           2.1136    0.9590   26.1669 C.ar    1  UNL1       -0.0003
     31 C           3.2723    0.0304   25.9542 C.ar    1  UNL1       -0.0026
     32 C           6.8334   -2.6351   26.1304 C.3     1  UNL1        0.1499
     33 N           6.7930   -1.7445   29.9976 N.am    1  UNL1       -0.2567
     34 C           7.7547   -1.3609   31.0830 C.3     1  UNL1        0.1168
     35 C           7.2940   -1.9980   28.6067 C.2     1  UNL1        0.3046
     36 O           8.7568   -1.8679   28.3011 O.2     1  UNL1       -0.2526
     37 N           6.3323   -2.3816   27.5214 N.am    1  UNL1       -0.2824
     38 H           5.3723   -2.4670   27.7219 H       1  UNL1        0.1514
     39 C           5.3302   -1.8746   30.3032 C.3     1  UNL1        0.1413
     40 C           2.4096    0.6520   29.9153 C.ar    1  UNL1        0.0875
     41 N           2.9183   -0.7253   30.2219 N.ar    1  UNL1       -0.2453
     42 C           4.4121   -0.7085   30.0864 C.ar    1  UNL1        0.0858
     43 C           4.8265    0.6793   29.6959 C.ar    1  UNL1        0.0530
     44 S           3.5889    1.5202   29.5901 S.2     1  UNL1       -0.0705
     45 C          -0.0293    0.3897   29.0589 C.3     1  UNL1        0.0069
     46 C           0.9735    1.0853   29.9309 C.3     1  UNL1        0.0465
     47 C           0.5404    2.2141   30.8186 C.3     1  UNL1        0.0069
     48 C           6.9789   -4.0418   25.6304 C.3     1  UNL1        0.0270
     49 C           7.1880   -4.3000   24.1676 C.3     1  UNL1        0.0022
     50 C           6.9152   -5.1903   26.5931 C.3     1  UNL1        0.0022
@<TRIPOS>BOND
     1    45    46    1
     2    46    47    1
     3    46    40    1
     4    40    41   ar
     5    41    42   ar
     6    42    39    1
     7    39    33    1
     8    33    34    1
     9    33    35   am
    10    35    36    2
    11    35    37   am
    12    32    37    1
    13    32     1    1
    14     1     2    2
    15     1     3   am
    16     3     4    1
    17     4     5    1
    18     5     6    1
    19     6     7    1
    20     7     8    1
    21     8    11    1
    22    11    12    1
    23    12    13   ar
    24    13    14   ar
    25    14    15   ar
    26    15    16   ar
    27    16    17   ar
    28     8     9   am
    29     9    10    2
    30     9    18    1
    31    18    19    1
    32    19    20    1
    33    20    21   ar
    34    21    22   ar
    35    22    23   ar
    36    23    24   ar
    37     3    25    1
    38    25    26    1
    39    26    27   ar
    40    27    28   ar
    41    28    29   ar
    42    29    30   ar
    43    30    31   ar
    44    32    48    1
    45    48    49    1
    46    48    50    1
    47    42    43   ar
    48    43    44   ar
    49    44    40   ar
    50    17    12   ar
    51    24    20   ar
    52    31    26   ar
    53    37    38    1
@<TRIPOS>MOLECULE
*****
 50 53 0 0 0
SMALL
GASTEIGER

@<TRIPOS>ATOM
      1 C           6.5812   -3.2918   20.5007 C.2     1  UNL1        0.2438
      2 O           7.9872   -3.2447   19.9804 O.2     1  UNL1       -0.2731
      3 N           6.3209   -3.6883   21.9237 N.am    1  UNL1       -0.2741
      4 C           7.4667   -4.0378   22.8265 C.3     1  UNL1        0.0938
      5 C           7.2956   -5.0887   23.8831 C.3     1  UNL1        0.0233
      6 C           7.1468   -4.6891   25.3212 C.3     1  UNL1        0.0234
      7 C           8.1825   -3.8185   25.9687 C.3     1  UNL1        0.0971
      8 N           7.7850   -2.5070   26.5788 N.am    1  UNL1       -0.2419
      9 C           6.7552   -2.4684   27.6687 C.2     1  UNL1        0.4055
     10 O           6.3577   -1.1570   28.2788 O.2     1  UNL1       -0.2262
     11 C           8.4174   -1.2343   26.0989 C.3     1  UNL1        0.1234
     12 C           7.6983   -0.3662   25.1092 C.ar    1  UNL1       -0.0022
     13 C           7.6413   -0.7648   23.6643 C.ar    1  UNL1       -0.0026
     14 C           6.9222    0.1033   22.6747 C.ar    1  UNL1       -0.0003
     15 C           6.2603    1.3700   23.1300 C.ar    1  UNL1       -0.0000
     16 C           6.3173    1.7686   24.5749 C.ar    1  UNL1       -0.0003
     17 C           7.0364    0.9005   25.5645 C.ar    1  UNL1       -0.0026
     18 O           6.1228   -3.7412   28.1485 O.3     1  UNL1       -0.4289
     19 C           6.7009   -4.4682   29.3263 C.3     1  UNL1        0.2447
     20 C           7.0628   -3.7125   30.5704 C.ar    1  UNL1        0.0714
     21 C           6.1167   -2.9336   31.4354 C.ar    1  UNL1        0.1053
     22 N           6.9035   -2.3426   32.5676 N.ar    1  UNL1       -0.2350
     23 C           8.3359   -2.7563   32.4022 C.ar    1  UNL1        0.1343
     24 S           8.4343   -3.6029   31.1679 S.2     1  UNL1       -0.0652
     25 C           4.9149   -3.7354   22.4440 C.3     1  UNL1        0.1202
     26 C           4.3204   -2.5293   23.1088 C.ar    1  UNL1       -0.0023
     27 C           4.5641   -2.2807   24.5679 C.ar    1  UNL1       -0.0026
     28 C           3.9696   -1.0746   25.2327 C.ar    1  UNL1       -0.0003
     29 C           3.1314   -0.1172   24.4385 C.ar    1  UNL1       -0.0000
     30 C           2.8877   -0.3659   22.9795 C.ar    1  UNL1       -0.0003
     31 C           3.4822   -1.5719   22.3146 C.ar    1  UNL1       -0.0026
     32 C           5.4354   -2.9423   19.5980 C.3     1  UNL1        0.1499
     33 N           5.7900    0.3960   17.4813 N.am    1  UNL1       -0.2567
     34 C           6.5262    0.9017   16.2761 C.3     1  UNL1        0.1168
     35 C           5.9808   -1.0203   17.9371 C.2     1  UNL1        0.3046
     36 O           6.9077   -1.9309   17.1877 O.2     1  UNL1       -0.2526
     37 N           5.2446   -1.5260   19.1422 N.am    1  UNL1       -0.2824
     38 H           4.6362   -0.9283   19.6340 H       1  UNL1        0.1514
     39 C           4.8631    1.3066   18.2306 C.3     1  UNL1        0.1413
     40 C           6.9555    3.6444   20.5157 C.ar    1  UNL1        0.0875
     41 N           6.8445    2.4539   19.6099 N.ar    1  UNL1       -0.2453
     42 C           5.4202    2.3523   19.1504 C.ar    1  UNL1        0.0858
     43 C           4.6510    3.4800   19.7722 C.ar    1  UNL1        0.0530
     44 S           5.5998    4.2786   20.6160 S.2     1  UNL1       -0.0705
     45 C           8.4519    5.5865   21.3754 C.3     1  UNL1        0.0069
     46 C           8.2031    4.1176   21.2009 C.3     1  UNL1        0.0465
     47 C           9.2021    3.1220   21.7116 C.3     1  UNL1        0.0069
     48 C           4.4803   -4.0091   19.1510 C.3     1  UNL1        0.0270
     49 C           4.9984   -5.3560   18.7418 C.3     1  UNL1        0.0022
     50 C           3.0072   -3.7290   19.1133 C.3     1  UNL1        0.0022
@<TRIPOS>BOND
     1    45    46    1
     2    46    47    1
     3    46    40    1
     4    40    41   ar
     5    41    42   ar
     6    42    39    1
     7    39    33    1
     8    33    34    1
     9    33    35   am
    10    35    36    2
    11    35    37   am
    12    32    37    1
    13    32     1    1
    14     1     2    2
    15     1     3   am
    16     3     4    1
    17     4     5    1
    18     5     6    1
    19     6     7    1
    20     7     8    1
    21     8    11    1
    22    11    12    1
    23    12    13   ar
    24    13    14   ar
    25    14    15   ar
    26    15    16   ar
    27    16    17   ar
    28     8     9   am
    29     9    10    2
    30     9    18    1
    31    18    19    1
    32    19    20    1
    33    20    21   ar
    34    21    22   ar
    35    22    23   ar
    36    23    24   ar
    37     3    25    1
    38    25    26    1
    39    26    27   ar
    40    27    28   ar
    41    28    29   ar
    42    29    30   ar
    43    30    31   ar
    44    32    48    1
    45    48    49    1
    46    48    50    1
    47    42    43   ar
    48    43    44   ar
    49    44    40   ar
    50    17    12   ar
    51    24    20   ar
    52    31    26   ar
    53    37    38    1
@<TRIPOS>MOLECULE
*****
 50 53 0 0 0
SMALL
GASTEIGER

@<TRIPOS>ATOM
      1 C           3.3512    2.2705   22.0685 C.2     1  UNL1        0.2438
      2 O           3.8486    3.0820   23.2279 O.2     1  UNL1       -0.2731
      3 N           3.4481    0.7741   22.1040 N.am    1  UNL1       -0.2741
      4 C           4.0424    0.0891   23.2988 C.3     1  UNL1        0.0938
      5 C           5.5239   -0.1333   23.3761 C.3     1  UNL1        0.0233
      6 C           6.0758   -1.2057   24.2678 C.3     1  UNL1        0.0234
      7 C           7.4060   -1.8264   23.9594 C.3     1  UNL1        0.0971
      8 N           7.4727   -3.1208   23.2043 N.am    1  UNL1       -0.2419
      9 C           7.4455   -4.4242   23.9462 C.2     1  UNL1        0.4055
     10 O           7.5121   -5.7186   23.1911 O.2     1  UNL1       -0.2262
     11 C           7.5665   -3.1118   21.7073 C.3     1  UNL1        0.1234
     12 C           6.3396   -3.3492   20.8774 C.ar    1  UNL1       -0.0022
     13 C           5.0009   -3.4857   21.5400 C.ar    1  UNL1       -0.0026
     14 C           3.7741   -3.7231   20.7102 C.ar    1  UNL1       -0.0003
     15 C           3.8861   -3.8238   19.2178 C.ar    1  UNL1       -0.0000
     16 C           5.2248   -3.6872   18.5552 C.ar    1  UNL1       -0.0003
     17 C           6.4516   -3.4499   19.3850 C.ar    1  UNL1       -0.0026
     18 O           7.3517   -4.4332   25.4433 O.3     1  UNL1       -0.4289
     19 C           6.9570   -5.6890   26.1625 C.3     1  UNL1        0.2447
     20 C           7.2437   -5.8359   27.6274 C.ar    1  UNL1        0.0714
     21 C           6.4369   -5.2483   28.7471 C.ar    1  UNL1        0.1053
     22 N           7.0821   -5.6455   30.0416 N.ar    1  UNL1       -0.2350
     23 C           8.2879   -6.4788   29.7220 C.ar    1  UNL1        0.1343
     24 S           8.3877   -6.5964   28.2300 S.2     1  UNL1       -0.0652
     25 C           2.9507   -0.0374   20.9447 C.3     1  UNL1        0.1202
     26 C           3.7622   -0.1228   19.6860 C.ar    1  UNL1       -0.0023
     27 C           3.0848   -0.3839   18.3733 C.ar    1  UNL1       -0.0026
     28 C           3.8962   -0.4694   17.1146 C.ar    1  UNL1       -0.0003
     29 C           5.3850   -0.2937   17.1686 C.ar    1  UNL1       -0.0000
     30 C           6.0622   -0.0326   18.4812 C.ar    1  UNL1       -0.0003
     31 C           5.2508    0.0528   19.7399 C.ar    1  UNL1       -0.0026
     32 C           2.7569    2.9555   20.8738 C.3     1  UNL1        0.1499
     33 N          -0.6697    4.9577   20.8892 N.am    1  UNL1       -0.2567
     34 C          -1.1553    6.3734   20.9888 C.3     1  UNL1        0.1168
     35 C           0.8008    4.6644   20.9313 C.2     1  UNL1        0.3046
     36 O           1.7857    5.7870   21.0730 O.2     1  UNL1       -0.2526
     37 N           1.2864    3.2488   20.8317 N.am    1  UNL1       -0.2824
     38 H           0.6400    2.5120   20.7387 H       1  UNL1        0.1514
     39 C          -1.6545    3.8352   20.7475 C.3     1  UNL1        0.1413
     40 C          -4.1897    3.8770   23.6862 C.ar    1  UNL1        0.0875
     41 N          -2.8256    4.1567   23.1287 N.ar    1  UNL1       -0.2453
     42 C          -2.8175    3.7345   21.6894 C.ar    1  UNL1        0.0858
     43 C          -4.1768    3.1938   21.3574 C.ar    1  UNL1        0.0530
     44 S          -5.0249    3.2819   22.5914 S.2     1  UNL1       -0.0705
     45 C          -3.7155    3.8702   26.2407 C.3     1  UNL1        0.0069
     46 C          -4.6398    4.1453   25.0918 C.3     1  UNL1        0.0465
     47 C          -6.0141    4.6888   25.3484 C.3     1  UNL1        0.0069
     48 C           3.6331    3.3473   19.7210 C.3     1  UNL1        0.0270
     49 C           3.0849    3.3364   18.3247 C.3     1  UNL1        0.0022
     50 C           5.0574    3.7499   19.9644 C.3     1  UNL1        0.0022
@<TRIPOS>BOND
     1    45    46    1
     2    46    47    1
     3    46    40    1
     4    40    41   ar
     5    41    42   ar
     6    42    39    1
     7    39    33    1
     8    33    34    1
     9    33    35   am
    10    35    36    2
    11    35    37   am
    12    32    37    1
    13    32     1    1
    14     1     2    2
    15     1     3   am
    16     3     4    1
    17     4     5    1
    18     5     6    1
    19     6     7    1
    20     7     8    1
    21     8    11    1
    22    11    12    1
    23    12    13   ar
    24    13    14   ar
    25    14    15   ar
    26    15    16   ar
    27    16    17   ar
    28     8     9   am
    29     9    10    2
    30     9    18    1
    31    18    19    1
    32    19    20    1
    33    20    21   ar
    34    21    22   ar
    35    22    23   ar
    36    23    24   ar
    37     3    25    1
    38    25    26    1
    39    26    27   ar
    40    27    28   ar
    41    28    29   ar
    42    29    30   ar
    43    30    31   ar
    44    32    48    1
    45    48    49    1
    46    48    50    1
    47    42    43   ar
    48    43    44   ar
    49    44    40   ar
    50    17    12   ar
    51    24    20   ar
    52    31    26   ar
    53    37    38    1
