@<TRIPOS>MOLECULE
*****
 26 28 0 0 0
SMALL
GASTEIGER

@<TRIPOS>ATOM
      1 C          -7.8203  -18.3666   21.5351 C.2     1  UNL1        0.2420
      2 O          -9.2890  -18.6485   21.4197 O.2     1  UNL1       -0.2734
      3 N          -7.2946  -17.5956   22.7095 N.am    1  UNL1       -0.2760
      4 C          -5.8258  -17.3136   22.8249 C.3     1  UNL1        0.0983
      5 C          -5.3001  -16.5426   23.9993 C.3     1  UNL1        0.0476
      6 C          -6.2432  -16.0535   25.0583 C.ar    1  UNL1       -0.0229
      7 C          -5.7175  -15.2825   26.2326 C.ar    1  UNL1       -0.0045
      8 C          -6.6605  -14.7934   27.2916 C.ar    1  UNL1       -0.0003
      9 C          -8.1292  -15.0753   27.1762 C.ar    1  UNL1       -0.0003
     10 C          -8.6550  -15.8463   26.0018 C.ar    1  UNL1       -0.0030
     11 C          -7.7119  -16.3354   24.9429 C.ar    1  UNL1       -0.0082
     12 C          -8.2376  -17.1064   23.7685 C.3     1  UNL1        0.0975
     13 C          -9.7064  -17.3883   23.6531 C.3     1  UNL1        0.0224
     14 C         -10.2926  -18.5976   24.3195 C.3     1  UNL1        0.0020
     15 C         -11.7613  -18.8795   24.2041 C.3     1  UNL1        0.0001
     16 C         -12.6439  -17.9521   23.4223 C.3     1  UNL1        0.0000
     17 C         -12.0576  -16.7429   22.7559 C.3     1  UNL1        0.0001
     18 C         -10.5889  -16.4610   22.8713 C.3     1  UNL1        0.0020
     19 C          -6.8773  -18.8557   20.4762 C.3     1  UNL1        0.1552
     20 N          -6.2002  -20.1852   20.6309 N.3     1  UNL1       -0.2878
     21 H          -6.2014  -20.4020   21.6276 H       1  UNL1        0.1238
     22 C          -4.7918  -20.3703   20.1491 C.3     1  UNL1        0.0985
     23 C          -2.8255  -19.6024   21.6636 C.3     1  UNL1        0.0332
     24 C          -3.7403  -19.3597   20.4999 C.3     1  UNL1        0.1263
     25 O          -3.6036  -18.1065   19.6870 O.3     1  UNL1       -0.3830
     26 H          -4.2663  -18.1067   18.9787 H       1  UNL1        0.2104
@<TRIPOS>BOND
     1    24    23    1
     2    24    25    1
     3    24    22    1
     4    22    20    1
     5    20    19    1
     6    19     1    1
     7     1     2    2
     8     1     3   am
     9     3     4    1
    10     4     5    1
    11     5     6    1
    12     6     7   ar
    13     7     8   ar
    14     8     9   ar
    15     9    10   ar
    16    10    11   ar
    17    11    12    1
    18    12    13    1
    19    13    14    1
    20    14    15    1
    21    15    16    1
    22    16    17    1
    23    17    18    1
    24    12     3    1
    25    18    13    1
    26    11     6   ar
    27    25    26    1
    28    20    21    1
@<TRIPOS>MOLECULE
*****
 26 28 0 0 0
SMALL
GASTEIGER

@<TRIPOS>ATOM
      1 C          -6.3437  -18.5139   22.0674 C.2     1  UNL1        0.2420
      2 O          -5.8044  -17.7147   23.2164 O.2     1  UNL1       -0.2734
      3 N          -7.8026  -18.4449   21.7250 N.am    1  UNL1       -0.2760
      4 C          -8.3419  -19.2441   20.5759 C.3     1  UNL1        0.0983
      5 C          -9.8006  -19.1752   20.2335 C.3     1  UNL1        0.0476
      6 C         -10.7201  -18.3069   21.0402 C.ar    1  UNL1       -0.0229
      7 C         -12.1788  -18.2379   20.6977 C.ar    1  UNL1       -0.0045
      8 C         -13.0983  -17.3696   21.5044 C.ar    1  UNL1       -0.0003
      9 C         -12.5590  -16.5704   22.6535 C.ar    1  UNL1       -0.0003
     10 C         -11.1003  -16.6394   22.9959 C.ar    1  UNL1       -0.0030
     11 C         -10.1808  -17.5076   22.1892 C.ar    1  UNL1       -0.0082
     12 C          -8.7220  -17.5766   22.5316 C.3     1  UNL1        0.0975
     13 C          -8.1827  -16.7774   23.6807 C.3     1  UNL1        0.0224
     14 C          -7.3204  -15.5778   23.4207 C.3     1  UNL1        0.0020
     15 C          -6.7811  -14.7786   24.5697 C.3     1  UNL1        0.0001
     16 C          -7.1041  -15.1789   25.9788 C.3     1  UNL1        0.0000
     17 C          -7.9664  -16.3784   26.2388 C.3     1  UNL1        0.0001
     18 C          -8.5057  -17.1777   25.0897 C.3     1  UNL1        0.0020
     19 C          -5.4243  -19.3822   21.2607 C.3     1  UNL1        0.1552
     20 N          -4.7119  -18.8157   20.0684 N.3     1  UNL1       -0.2878
     21 H          -4.9334  -19.4211   19.2780 H       1  UNL1        0.1238
     22 C          -3.2201  -18.6601   20.0901 C.3     1  UNL1        0.0985
     23 C          -2.3005  -17.8854   22.3930 C.3     1  UNL1        0.0332
     24 C          -2.4541  -18.9492   21.3468 C.3     1  UNL1        0.1263
     25 O          -1.8416  -20.3022   21.5574 O.3     1  UNL1       -0.3830
     26 H          -2.0333  -20.8666   20.7921 H       1  UNL1        0.2104
@<TRIPOS>BOND
     1    24    23    1
     2    24    25    1
     3    24    22    1
     4    22    20    1
     5    20    19    1
     6    19     1    1
     7     1     2    2
     8     1     3   am
     9     3     4    1
    10     4     5    1
    11     5     6    1
    12     6     7   ar
    13     7     8   ar
    14     8     9   ar
    15     9    10   ar
    16    10    11   ar
    17    11    12    1
    18    12    13    1
    19    13    14    1
    20    14    15    1
    21    15    16    1
    22    16    17    1
    23    17    18    1
    24    12     3    1
    25    18    13    1
    26    11     6   ar
    27    25    26    1
    28    20    21    1
@<TRIPOS>MOLECULE
*****
 26 28 0 0 0
SMALL
GASTEIGER

@<TRIPOS>ATOM
      1 C          -8.1439  -16.4053   23.6122 C.2     1  UNL1        0.2420
      2 O          -9.5509  -16.8234   23.3032 O.2     1  UNL1       -0.2734
      3 N          -6.9901  -17.1802   23.0479 N.am    1  UNL1       -0.2760
      4 C          -5.5831  -16.7621   23.3570 C.3     1  UNL1        0.0983
      5 C          -4.4294  -17.5370   22.7928 C.3     1  UNL1        0.0476
      6 C          -4.6826  -18.7300   21.9194 C.ar    1  UNL1       -0.0229
      7 C          -3.5288  -19.5049   21.3552 C.ar    1  UNL1       -0.0045
      8 C          -3.7821  -20.6978   20.4819 C.ar    1  UNL1       -0.0003
      9 C          -5.1891  -21.1159   20.1729 C.ar    1  UNL1       -0.0003
     10 C          -6.3429  -20.3411   20.7371 C.ar    1  UNL1       -0.0030
     11 C          -6.0896  -19.1481   21.6104 C.ar    1  UNL1       -0.0082
     12 C          -7.2434  -18.3732   22.1747 C.3     1  UNL1        0.0975
     13 C          -8.6504  -18.7913   21.8656 C.3     1  UNL1        0.0224
     14 C          -9.3724  -19.7316   22.7846 C.3     1  UNL1        0.0020
     15 C         -10.7794  -20.1497   22.4756 C.3     1  UNL1        0.0001
     16 C         -11.4644  -19.6275   21.2475 C.3     1  UNL1        0.0000
     17 C         -10.7424  -18.6872   20.3285 C.3     1  UNL1        0.0001
     18 C          -9.3354  -18.2691   20.6376 C.3     1  UNL1        0.0020
     19 C          -7.8907  -15.2123   24.4855 C.3     1  UNL1        0.1552
     20 N          -6.4866  -14.7406   24.7220 N.3     1  UNL1       -0.2878
     21 H          -5.9031  -15.1858   24.0136 H       1  UNL1        0.1238
     22 C          -5.8252  -14.9877   26.0455 C.3     1  UNL1        0.0985
     23 C          -7.1641  -16.5424   27.6392 C.3     1  UNL1        0.0332
     24 C          -6.6599  -15.1769   27.2773 C.3     1  UNL1        0.1263
     25 O          -6.9904  -14.0005   28.1473 O.3     1  UNL1       -0.3830
     26 H          -6.5904  -13.1996   27.7739 H       1  UNL1        0.2104
@<TRIPOS>BOND
     1    24    23    1
     2    24    25    1
     3    24    22    1
     4    22    20    1
     5    20    19    1
     6    19     1    1
     7     1     2    2
     8     1     3   am
     9     3     4    1
    10     4     5    1
    11     5     6    1
    12     6     7   ar
    13     7     8   ar
    14     8     9   ar
    15     9    10   ar
    16    10    11   ar
    17    11    12    1
    18    12    13    1
    19    13    14    1
    20    14    15    1
    21    15    16    1
    22    16    17    1
    23    17    18    1
    24    12     3    1
    25    18    13    1
    26    11     6   ar
    27    25    26    1
    28    20    21    1
@<TRIPOS>MOLECULE
*****
 26 28 0 0 0
SMALL
GASTEIGER

@<TRIPOS>ATOM
      1 C         -10.2793  -18.7810   22.1438 C.2     1  UNL1        0.2420
      2 O          -9.6444  -19.7702   21.2118 O.2     1  UNL1       -0.2734
      3 N          -9.4217  -17.8354   22.9315 N.am    1  UNL1       -0.2760
      4 C         -10.0565  -16.8462   23.8635 C.3     1  UNL1        0.0983
      5 C          -9.1990  -15.9007   24.6512 C.3     1  UNL1        0.0476
      6 C          -7.7065  -15.9443   24.5070 C.ar    1  UNL1       -0.0229
      7 C          -6.8490  -14.9988   25.2947 C.ar    1  UNL1       -0.0045
      8 C          -5.3566  -15.0424   25.1505 C.ar    1  UNL1       -0.0003
      9 C          -4.7218  -16.0316   24.2186 C.ar    1  UNL1       -0.0003
     10 C          -5.5793  -16.9771   23.4308 C.ar    1  UNL1       -0.0030
     11 C          -7.0717  -16.9335   23.5751 C.ar    1  UNL1       -0.0082
     12 C          -7.9293  -17.8791   22.7873 C.3     1  UNL1        0.0975
     13 C          -7.2944  -18.8682   21.8554 C.3     1  UNL1        0.0224
     14 C          -7.1195  -18.5270   20.4052 C.3     1  UNL1        0.0020
     15 C          -6.4847  -19.5162   19.4732 C.3     1  UNL1        0.0001
     16 C          -6.0247  -20.8466   19.9915 C.3     1  UNL1        0.0000
     17 C          -6.1997  -21.1878   21.4417 C.3     1  UNL1        0.0001
     18 C          -6.8345  -20.1986   22.3736 C.3     1  UNL1        0.0020
     19 C         -11.7717  -18.7374   22.2880 C.3     1  UNL1        0.1552
     20 N         -12.6040  -18.0292   21.2606 N.3     1  UNL1       -0.2878
     21 H         -12.2951  -18.3657   20.3485 H       1  UNL1        0.1238
     22 C         -12.5984  -16.5306   21.1939 C.3     1  UNL1        0.0985
     23 C         -10.3535  -15.5225   20.3612 C.3     1  UNL1        0.0332
     24 C         -11.8036  -15.8301   20.1321 C.3     1  UNL1        0.1263
     25 O         -12.4588  -15.4372   18.8413 O.3     1  UNL1       -0.3830
     26 H         -13.3903  -15.7074   18.8561 H       1  UNL1        0.2104
@<TRIPOS>BOND
     1    24    23    1
     2    24    25    1
     3    24    22    1
     4    22    20    1
     5    20    19    1
     6    19     1    1
     7     1     2    2
     8     1     3   am
     9     3     4    1
    10     4     5    1
    11     5     6    1
    12     6     7   ar
    13     7     8   ar
    14     8     9   ar
    15     9    10   ar
    16    10    11   ar
    17    11    12    1
    18    12    13    1
    19    13    14    1
    20    14    15    1
    21    15    16    1
    22    16    17    1
    23    17    18    1
    24    12     3    1
    25    18    13    1
    26    11     6   ar
    27    25    26    1
    28    20    21    1
@<TRIPOS>MOLECULE
*****
 26 28 0 0 0
SMALL
GASTEIGER

@<TRIPOS>ATOM
      1 C          -5.2291  -18.3910   22.5659 C.2     1  UNL1        0.2420
      2 O          -5.3509  -17.4162   23.6995 O.2     1  UNL1       -0.2734
      3 N          -6.4248  -18.7074   21.7171 N.am    1  UNL1       -0.2760
      4 C          -6.3030  -19.6822   20.5835 C.3     1  UNL1        0.0983
      5 C          -7.4986  -19.9986   19.7348 C.3     1  UNL1        0.0476
      6 C          -8.8161  -19.3402   20.0196 C.ar    1  UNL1       -0.0229
      7 C         -10.0116  -19.6567   19.1709 C.ar    1  UNL1       -0.0045
      8 C         -11.3290  -18.9983   19.4557 C.ar    1  UNL1       -0.0003
      9 C         -11.4507  -18.0236   20.5893 C.ar    1  UNL1       -0.0003
     10 C         -10.2551  -17.7071   21.4381 C.ar    1  UNL1       -0.0030
     11 C          -8.9378  -18.3655   21.1532 C.ar    1  UNL1       -0.0082
     12 C          -7.7421  -18.0491   22.0020 C.3     1  UNL1        0.0975
     13 C          -7.8639  -17.0743   23.1356 C.3     1  UNL1        0.0224
     14 C          -7.4004  -15.6585   22.9603 C.3     1  UNL1        0.0020
     15 C          -7.5221  -14.6837   24.0939 C.3     1  UNL1        0.0001
     16 C          -8.1074  -15.1248   25.4027 C.3     1  UNL1        0.0000
     17 C          -8.5708  -16.5406   25.5780 C.3     1  UNL1        0.0001
     18 C          -8.4491  -17.5153   24.4444 C.3     1  UNL1        0.0020
     19 C          -3.9118  -19.0493   22.2810 C.3     1  UNL1        0.1552
     20 N          -3.5504  -19.4265   20.8750 N.3     1  UNL1       -0.2878
     21 H          -2.8990  -20.2088   20.9382 H       1  UNL1        0.1238
     22 C          -2.9231  -18.4131   19.9642 C.3     1  UNL1        0.0985
     23 C          -1.3638  -16.5973   20.9748 C.3     1  UNL1        0.0332
     24 C          -1.5435  -17.8989   20.2513 C.3     1  UNL1        0.1263
     25 O          -0.3437  -18.6863   19.8150 O.3     1  UNL1       -0.3830
     26 H          -0.6340  -19.4952   19.3652 H       1  UNL1        0.2104
@<TRIPOS>BOND
     1    24    23    1
     2    24    25    1
     3    24    22    1
     4    22    20    1
     5    20    19    1
     6    19     1    1
     7     1     2    2
     8     1     3   am
     9     3     4    1
    10     4     5    1
    11     5     6    1
    12     6     7   ar
    13     7     8   ar
    14     8     9   ar
    15     9    10   ar
    16    10    11   ar
    17    11    12    1
    18    12    13    1
    19    13    14    1
    20    14    15    1
    21    15    16    1
    22    16    17    1
    23    17    18    1
    24    12     3    1
    25    18    13    1
    26    11     6   ar
    27    25    26    1
    28    20    21    1
@<TRIPOS>MOLECULE
*****
 26 28 0 0 0
SMALL
GASTEIGER

@<TRIPOS>ATOM
      1 C           6.0043   -3.5746   23.6025 C.2     1  UNL1        0.2420
      2 O           6.2467   -4.3491   22.3409 O.2     1  UNL1       -0.2734
      3 N           4.9607   -2.4975   23.6325 N.am    1  UNL1       -0.2760
      4 C           4.7183   -1.7231   24.8940 C.3     1  UNL1        0.0983
      5 C           3.6748   -0.6460   24.9241 C.3     1  UNL1        0.0476
      6 C           2.8736   -0.3434   23.6926 C.ar    1  UNL1       -0.0229
      7 C           1.8300    0.7337   23.7227 C.ar    1  UNL1       -0.0045
      8 C           1.0289    1.0363   22.4912 C.ar    1  UNL1       -0.0003
      9 C           1.2713    0.2618   21.2297 C.ar    1  UNL1       -0.0003
     10 C           2.3148   -0.8152   21.1996 C.ar    1  UNL1       -0.0030
     11 C           3.1160   -1.1178   22.4311 C.ar    1  UNL1       -0.0082
     12 C           4.1596   -2.1949   22.4010 C.3     1  UNL1        0.0975
     13 C           4.4020   -2.9694   21.1395 C.3     1  UNL1        0.0224
     14 C           5.3555   -2.4432   20.1079 C.3     1  UNL1        0.0020
     15 C           5.5978   -3.2177   18.8464 C.3     1  UNL1        0.0001
     16 C           4.8867   -4.5183   18.6164 C.3     1  UNL1        0.0000
     17 C           3.9333   -5.0444   19.6480 C.3     1  UNL1        0.0001
     18 C           3.6909   -4.2699   20.9095 C.3     1  UNL1        0.0020
     19 C           6.8055   -3.8772   24.8339 C.3     1  UNL1        0.1552
     20 N           6.3628   -4.9639   25.7684 N.3     1  UNL1       -0.2878
     21 H           5.9067   -4.5060   26.5575 H       1  UNL1        0.1238
     22 C           7.3701   -5.9154   26.3430 C.3     1  UNL1        0.0985
     23 C           8.3584   -7.5830   24.6132 C.3     1  UNL1        0.0332
     24 C           7.4813   -7.3087   25.7987 C.3     1  UNL1        0.1263
     25 O           6.7153   -8.4277   26.4399 O.3     1  UNL1       -0.3830
     26 H           6.2023   -8.0819   27.1870 H       1  UNL1        0.2104
@<TRIPOS>BOND
     1    24    23    1
     2    24    25    1
     3    24    22    1
     4    22    20    1
     5    20    19    1
     6    19     1    1
     7     1     2    2
     8     1     3   am
     9     3     4    1
    10     4     5    1
    11     5     6    1
    12     6     7   ar
    13     7     8   ar
    14     8     9   ar
    15     9    10   ar
    16    10    11   ar
    17    11    12    1
    18    12    13    1
    19    13    14    1
    20    14    15    1
    21    15    16    1
    22    16    17    1
    23    17    18    1
    24    12     3    1
    25    18    13    1
    26    11     6   ar
    27    25    26    1
    28    20    21    1
@<TRIPOS>MOLECULE
*****
 26 28 0 0 0
SMALL
GASTEIGER

@<TRIPOS>ATOM
      1 C           5.7468   -3.2095   23.4085 C.2     1  UNL1        0.2420
      2 O           6.0737   -4.0764   22.2289 O.2     1  UNL1       -0.2734
      3 N           4.6540   -2.1869   23.3078 N.am    1  UNL1       -0.2760
      4 C           4.3270   -1.3200   24.4875 C.3     1  UNL1        0.0983
      5 C           3.2343   -0.2974   24.3868 C.3     1  UNL1        0.0476
      6 C           2.4685   -0.1416   23.1064 C.ar    1  UNL1       -0.0229
      7 C           1.3757    0.8810   23.0057 C.ar    1  UNL1       -0.0045
      8 C           0.6100    1.0367   21.7254 C.ar    1  UNL1       -0.0003
      9 C           0.9369    0.1698   20.5457 C.ar    1  UNL1       -0.0003
     10 C           2.0297   -0.8528   20.6464 C.ar    1  UNL1       -0.0030
     11 C           2.7954   -1.0085   21.9267 C.ar    1  UNL1       -0.0082
     12 C           3.8882   -2.0312   22.0275 C.3     1  UNL1        0.0975
     13 C           4.2152   -2.8981   20.8478 C.3     1  UNL1        0.0224
     14 C           3.5966   -4.2589   20.7228 C.3     1  UNL1        0.0020
     15 C           3.9236   -5.1258   19.5431 C.3     1  UNL1        0.0001
     16 C           4.8691   -4.6319   18.4885 C.3     1  UNL1        0.0000
     17 C           5.4875   -3.2711   18.6136 C.3     1  UNL1        0.0001
     18 C           5.1606   -2.4042   19.7932 C.3     1  UNL1        0.0020
     19 C           6.5125   -3.3653   24.6889 C.3     1  UNL1        0.1552
     20 N           6.4044   -4.6366   25.4775 N.3     1  UNL1       -0.2878
     21 H           6.0664   -4.3799   26.4050 H       1  UNL1        0.1238
     22 C           7.6153   -5.4982   25.6811 C.3     1  UNL1        0.0985
     23 C           8.5942   -7.8123   25.0205 C.3     1  UNL1        0.0332
     24 C           8.0205   -6.4839   24.6255 C.3     1  UNL1        0.1263
     25 O           7.8519   -6.1411   23.1749 O.3     1  UNL1       -0.3830
     26 H           7.4710   -5.2526   23.0948 H       1  UNL1        0.2104
@<TRIPOS>BOND
     1    24    23    1
     2    24    25    1
     3    24    22    1
     4    22    20    1
     5    20    19    1
     6    19     1    1
     7     1     2    2
     8     1     3   am
     9     3     4    1
    10     4     5    1
    11     5     6    1
    12     6     7   ar
    13     7     8   ar
    14     8     9   ar
    15     9    10   ar
    16    10    11   ar
    17    11    12    1
    18    12    13    1
    19    13    14    1
    20    14    15    1
    21    15    16    1
    22    16    17    1
    23    17    18    1
    24    12     3    1
    25    18    13    1
    26    11     6   ar
    27    25    26    1
    28    20    21    1
@<TRIPOS>MOLECULE
*****
 26 28 0 0 0
SMALL
GASTEIGER

@<TRIPOS>ATOM
      1 C          -7.1146  -18.4342   21.5494 C.2     1  UNL1        0.2420
      2 O          -5.6947  -18.5241   21.0743 O.2     1  UNL1       -0.2734
      3 N          -7.4370  -17.6938   22.8136 N.am    1  UNL1       -0.2760
      4 C          -8.8569  -17.6039   23.2887 C.3     1  UNL1        0.0983
      5 C          -9.1794  -16.8636   24.5528 C.3     1  UNL1        0.0476
      6 C          -8.0819  -16.2130   25.3417 C.ar    1  UNL1       -0.0229
      7 C          -8.4043  -15.4727   26.6058 C.ar    1  UNL1       -0.0045
      8 C          -7.3068  -14.8222   27.3947 C.ar    1  UNL1       -0.0003
      9 C          -5.8869  -14.9121   26.9196 C.ar    1  UNL1       -0.0003
     10 C          -5.5645  -15.6524   25.6555 C.ar    1  UNL1       -0.0030
     11 C          -6.6619  -16.3029   24.8666 C.ar    1  UNL1       -0.0082
     12 C          -6.3395  -17.0433   23.6025 C.3     1  UNL1        0.0975
     13 C          -4.9196  -17.1332   23.1273 C.3     1  UNL1        0.0224
     14 C          -4.1903  -18.4427   23.1867 C.3     1  UNL1        0.0020
     15 C          -2.7704  -18.5326   22.7116 C.3     1  UNL1        0.0001
     16 C          -2.0798  -17.3130   22.1770 C.3     1  UNL1        0.0000
     17 C          -2.8091  -16.0036   22.1177 C.3     1  UNL1        0.0001
     18 C          -4.2290  -15.9137   22.5928 C.3     1  UNL1        0.0020
     19 C          -8.2120  -19.0846   20.7605 C.3     1  UNL1        0.1552
     20 N          -9.2909  -18.2451   20.1432 N.3     1  UNL1       -0.2878
     21 H          -9.2388  -17.3272   20.5850 H       1  UNL1        0.1238
     22 C         -10.7227  -18.6846   20.2253 C.3     1  UNL1        0.0985
     23 C         -12.4601  -17.8489   21.9668 C.3     1  UNL1        0.0332
     24 C         -11.7848  -17.7078   20.6349 C.3     1  UNL1        0.1263
     25 O         -12.1715  -16.5898   19.7126 O.3     1  UNL1       -0.3830
     26 H         -11.6433  -16.6430   18.9008 H       1  UNL1        0.2104
@<TRIPOS>BOND
     1    24    23    1
     2    24    25    1
     3    24    22    1
     4    22    20    1
     5    20    19    1
     6    19     1    1
     7     1     2    2
     8     1     3   am
     9     3     4    1
    10     4     5    1
    11     5     6    1
    12     6     7   ar
    13     7     8   ar
    14     8     9   ar
    15     9    10   ar
    16    10    11   ar
    17    11    12    1
    18    12    13    1
    19    13    14    1
    20    14    15    1
    21    15    16    1
    22    16    17    1
    23    17    18    1
    24    12     3    1
    25    18    13    1
    26    11     6   ar
    27    25    26    1
    28    20    21    1
@<TRIPOS>MOLECULE
*****
 26 28 0 0 0
SMALL
GASTEIGER

@<TRIPOS>ATOM
      1 C          -8.3682  -16.7737   22.8150 C.2     1  UNL1        0.2420
      2 O          -9.7305  -16.1520   22.7268 O.2     1  UNL1       -0.2734
      3 N          -7.9993  -17.9047   21.9013 N.am    1  UNL1       -0.2760
      4 C          -6.6370  -18.5264   21.9895 C.3     1  UNL1        0.0983
      5 C          -6.2681  -19.6574   21.0760 C.3     1  UNL1        0.0476
      6 C          -7.2616  -20.1668   20.0741 C.ar    1  UNL1       -0.0229
      7 C          -6.8927  -21.2979   19.1605 C.ar    1  UNL1       -0.0045
      8 C          -7.8861  -21.8073   18.1588 C.ar    1  UNL1       -0.0003
      9 C          -9.2484  -21.1857   18.0706 C.ar    1  UNL1       -0.0003
     10 C          -9.6173  -20.0546   18.9841 C.ar    1  UNL1       -0.0030
     11 C          -8.6239  -19.5452   19.9859 C.ar    1  UNL1       -0.0082
     12 C          -8.9927  -18.4141   20.8996 C.3     1  UNL1        0.0975
     13 C         -10.3550  -17.7925   20.8113 C.3     1  UNL1        0.0224
     14 C         -11.4764  -18.3204   21.6564 C.3     1  UNL1        0.0020
     15 C         -12.8387  -17.6987   21.5682 C.3     1  UNL1        0.0001
     16 C         -13.0796  -16.5493   20.6349 C.3     1  UNL1        0.0000
     17 C         -11.9582  -16.0215   19.7900 C.3     1  UNL1        0.0001
     18 C         -10.5959  -16.6431   19.8782 C.3     1  UNL1        0.0020
     19 C          -7.3748  -16.2642   23.8168 C.3     1  UNL1        0.1552
     20 N          -6.2822  -15.3328   23.3826 N.3     1  UNL1       -0.2878
     21 H          -5.9158  -15.6981   22.5035 H       1  UNL1        0.1238
     22 C          -5.1021  -15.0924   24.2768 C.3     1  UNL1        0.0985
     23 C          -4.6624  -16.5778   26.3625 C.3     1  UNL1        0.0332
     24 C          -5.2205  -15.3256   25.7538 C.3     1  UNL1        0.1263
     25 O          -5.8970  -14.3066   26.6222 O.3     1  UNL1       -0.3830
     26 H          -6.1976  -13.5641   26.0752 H       1  UNL1        0.2104
@<TRIPOS>BOND
     1    24    23    1
     2    24    25    1
     3    24    22    1
     4    22    20    1
     5    20    19    1
     6    19     1    1
     7     1     2    2
     8     1     3   am
     9     3     4    1
    10     4     5    1
    11     5     6    1
    12     6     7   ar
    13     7     8   ar
    14     8     9   ar
    15     9    10   ar
    16    10    11   ar
    17    11    12    1
    18    12    13    1
    19    13    14    1
    20    14    15    1
    21    15    16    1
    22    16    17    1
    23    17    18    1
    24    12     3    1
    25    18    13    1
    26    11     6   ar
    27    25    26    1
    28    20    21    1
