@<TRIPOS>MOLECULE
*****
 35 37 0 0 0
SMALL
GASTEIGER

@<TRIPOS>ATOM
      1 C          -7.5985  -19.9413   22.5261 C.ar    1  UNL1        0.0495
      2 C          -7.3822  -20.8090   21.3218 C.ar    1  UNL1        0.0455
      3 C          -6.1539  -20.6304   20.4796 C.ar    1  UNL1        0.1623
      4 F          -5.9377  -21.4981   19.2753 F       1  UNL1       -0.2026
      5 C          -5.1419  -19.5842   20.8417 C.ar    1  UNL1        0.1798
      6 C          -5.3582  -18.7165   22.0460 C.ar    1  UNL1        0.1623
      7 F          -4.3460  -17.6703   22.4081 F       1  UNL1       -0.2026
      8 C          -6.5864  -18.8951   22.8882 C.ar    1  UNL1        0.0455
      9 S          -3.9135  -19.4056   19.9995 S.O2    1  UNL1        0.0791
     10 O          -4.6179  -18.3535   19.1952 O.2     1  UNL1       -0.1498
     11 O          -3.2092  -20.4577   20.8038 O.2     1  UNL1       -0.1498
     12 N          -2.6852  -19.2271   19.1573 N.pl3   1  UNL1       -0.1983
     13 H          -2.6124  -19.6861   18.2894 H       1  UNL1        0.1753
     14 C          -1.5677  -18.3493   19.6375 C.ar    1  UNL1        0.1542
     15 C          -1.7176  -16.9956   20.2661 C.ar    1  UNL1        0.0725
     16 S          -0.3466  -16.4807   20.5906 S.2     1  UNL1       -0.0625
     17 C           0.6507  -17.5162   20.1625 C.ar    1  UNL1        0.1360
     18 N          -0.1040  -18.6710   19.5735 N.ar    1  UNL1       -0.2203
     19 N          -8.8269  -20.1199   23.3684 N.pl3   1  UNL1       -0.3289
     20 H          -9.1799  -21.0230   23.5386 H       1  UNL1        0.1471
     21 C          -9.5173  -18.9225   23.9511 C.3     1  UNL1        0.1163
     22 C         -10.5230  -16.6263   23.2686 C.ar    1  UNL1       -0.0063
     23 C         -11.4659  -15.8201   22.4254 C.ar    1  UNL1       -0.0030
     24 C         -12.3461  -16.5040   21.4216 C.ar    1  UNL1        0.0020
     25 C         -12.2833  -17.9940   21.2609 C.ar    1  UNL1        0.0293
     26 C         -11.3404  -18.8001   22.1041 C.ar    1  UNL1        0.1375
     27 F         -11.2776  -20.2903   21.9435 F       1  UNL1       -0.2045
     28 C         -10.4602  -18.1163   23.1079 C.ar    1  UNL1        0.0222
     29 C          -9.6428  -15.9424   24.2724 C.3     1  UNL1        0.0989
     30 C          -7.8262  -15.4122   22.4924 C.3     1  UNL1        0.0898
     31 N          -8.2201  -15.6185   23.9249 N.3     1  UNL1       -0.2703
     32 C          -7.1911  -15.5008   25.0101 C.3     1  UNL1        0.0458
     33 C          -6.1189  -15.3308   23.9751 C.3     1  UNL1        0.0160
     34 C          -8.2633  -15.6708   26.0452 C.3     1  UNL1        0.0160
     35 C          -6.1622  -15.3832   26.0952 C.3     1  UNL1        0.0160
@<TRIPOS>BOND
     1    30    31    1
     2    31    29    1
     3    29    22    1
     4    22    23   ar
     5    23    24   ar
     6    24    25   ar
     7    25    26   ar
     8    26    27    1
     9    26    28   ar
    10    28    21    1
    11    21    19    1
    12    19     1    1
    13     1     2   ar
    14     2     3   ar
    15     3     4    1
    16     3     5   ar
    17     5     9    1
    18     9    10    2
    19     9    11    2
    20     9    12    1
    21    12    14    1
    22    14    15   ar
    23    15    16   ar
    24    16    17   ar
    25    17    18   ar
    26     5     6   ar
    27     6     7    1
    28     6     8   ar
    29    31    32    1
    30    32    33    1
    31    32    34    1
    32    32    35    1
    33    28    22   ar
    34     8     1   ar
    35    18    14   ar
    36    19    20    1
    37    12    13    1
@<TRIPOS>MOLECULE
*****
 35 37 0 0 0
SMALL
GASTEIGER

@<TRIPOS>ATOM
      1 C          -7.7698  -19.7699   22.5757 C.ar    1  UNL1        0.0495
      2 C          -6.6895  -18.8171   22.9941 C.ar    1  UNL1        0.0455
      3 C          -5.4381  -18.6961   22.1760 C.ar    1  UNL1        0.1623
      4 F          -4.3577  -17.7433   22.5943 F       1  UNL1       -0.2026
      5 C          -5.2670  -19.5279   20.9396 C.ar    1  UNL1        0.1798
      6 C          -6.3473  -20.4807   20.5212 C.ar    1  UNL1        0.1623
      7 F          -6.1762  -21.3126   19.2847 F       1  UNL1       -0.2026
      8 C          -7.5987  -20.6017   21.3393 C.ar    1  UNL1        0.0455
      9 S          -4.0155  -19.4069   20.1214 S.O2    1  UNL1        0.0791
     10 O          -4.6845  -18.3866   19.2489 O.2     1  UNL1       -0.1498
     11 O          -3.3466  -20.4273   20.9939 O.2     1  UNL1       -0.1498
     12 N          -2.7641  -19.2860   19.3034 N.pl3   1  UNL1       -0.1983
     13 H          -2.6489  -19.8369   18.4956 H       1  UNL1        0.1753
     14 C          -1.6882  -18.3257   19.7159 C.ar    1  UNL1        0.1542
     15 C          -0.2117  -18.5313   19.5496 C.ar    1  UNL1        0.0725
     16 S           0.4891  -17.3238   20.0982 S.2     1  UNL1       -0.0625
     17 C          -0.5542  -16.3720   20.6036 C.ar    1  UNL1        0.1360
     18 N          -1.8999  -16.9912   20.3673 N.ar    1  UNL1       -0.2203
     19 N          -9.0213  -19.8909   23.3939 N.pl3   1  UNL1       -0.3289
     20 H          -9.2901  -20.7661   23.7558 H       1  UNL1        0.1471
     21 C          -9.8631  -18.6784   23.6605 C.3     1  UNL1        0.1163
     22 C          -8.8360  -16.3794   23.0205 C.ar    1  UNL1       -0.0063
     23 C          -8.1862  -15.0892   23.4245 C.ar    1  UNL1       -0.0030
     24 C          -7.9138  -14.8079   24.8725 C.ar    1  UNL1        0.0020
     25 C          -8.2911  -15.8167   25.9165 C.ar    1  UNL1        0.0293
     26 C          -8.9409  -17.1068   25.5125 C.ar    1  UNL1        0.1375
     27 F          -9.3183  -18.1157   26.5564 F       1  UNL1       -0.2045
     28 C          -9.2133  -17.3882   24.0645 C.ar    1  UNL1        0.0222
     29 C          -9.1084  -16.6607   21.5726 C.3     1  UNL1        0.0989
     30 C         -10.4652  -15.0345   20.0677 C.3     1  UNL1        0.0898
     31 N         -10.4108  -16.2399   20.9589 N.3     1  UNL1       -0.2703
     32 C         -11.6589  -17.0244   21.2363 C.3     1  UNL1        0.0458
     33 C         -11.2055  -18.0849   20.2773 C.3     1  UNL1        0.0160
     34 C         -12.1123  -15.9639   22.1953 C.3     1  UNL1        0.0160
     35 C         -12.9069  -17.8089   21.5138 C.3     1  UNL1        0.0160
@<TRIPOS>BOND
     1    30    31    1
     2    31    29    1
     3    29    22    1
     4    22    23   ar
     5    23    24   ar
     6    24    25   ar
     7    25    26   ar
     8    26    27    1
     9    26    28   ar
    10    28    21    1
    11    21    19    1
    12    19     1    1
    13     1     2   ar
    14     2     3   ar
    15     3     4    1
    16     3     5   ar
    17     5     9    1
    18     9    10    2
    19     9    11    2
    20     9    12    1
    21    12    14    1
    22    14    15   ar
    23    15    16   ar
    24    16    17   ar
    25    17    18   ar
    26     5     6   ar
    27     6     7    1
    28     6     8   ar
    29    31    32    1
    30    32    33    1
    31    32    34    1
    32    32    35    1
    33    28    22   ar
    34     8     1   ar
    35    18    14   ar
    36    19    20    1
    37    12    13    1
@<TRIPOS>MOLECULE
*****
 35 37 0 0 0
SMALL
GASTEIGER

@<TRIPOS>ATOM
      1 C         -13.0171   -2.2366   19.3108 C.ar    1  UNL1        0.0495
      2 C         -14.4557   -1.8390   19.4608 C.ar    1  UNL1        0.0455
      3 C         -14.9235   -0.5090   18.9487 C.ar    1  UNL1        0.1623
      4 F         -16.3621   -0.1114   19.0987 F       1  UNL1       -0.2026
      5 C         -13.9528    0.4234   18.2867 C.ar    1  UNL1        0.1798
      6 C         -12.5143    0.0258   18.1368 C.ar    1  UNL1        0.1623
      7 F         -11.5435    0.9583   17.4747 F       1  UNL1       -0.2026
      8 C         -12.0464   -1.3042   18.6488 C.ar    1  UNL1        0.0455
      9 S         -14.4206    1.7534   17.7746 S.O2    1  UNL1        0.0791
     10 O         -14.4579    1.2033   16.3797 O.2     1  UNL1       -0.1498
     11 O         -14.3834    2.3036   19.1695 O.2     1  UNL1       -0.1498
     12 N         -14.8884    3.0834   17.2626 N.pl3   1  UNL1       -0.1983
     13 H         -15.8183    3.1946   16.9587 H       1  UNL1        0.1753
     14 C         -13.9396    4.2441   17.2134 C.ar    1  UNL1        0.1542
     15 C         -14.3150    5.6940   17.2963 C.ar    1  UNL1        0.0725
     16 S         -13.0561    6.5047   17.2069 S.2     1  UNL1       -0.0625
     17 C         -11.9026    5.5558   17.0687 C.ar    1  UNL1        0.1360
     18 N         -12.4486    4.1587   17.0727 N.ar    1  UNL1       -0.2203
     19 N         -12.5493   -3.5666   19.8230 N.pl3   1  UNL1       -0.3289
     20 H         -11.6083   -3.8336   19.7117 H       1  UNL1        0.1471
     21 C         -13.5153   -4.4898   20.5045 C.3     1  UNL1        0.1163
     22 C         -13.5646   -6.6266   19.0274 C.ar    1  UNL1       -0.0063
     23 C         -14.3340   -7.6331   18.2243 C.ar    1  UNL1       -0.0030
     24 C         -15.8233   -7.5094   18.0951 C.ar    1  UNL1        0.0020
     25 C         -16.5432   -6.3792   18.7690 C.ar    1  UNL1        0.0293
     26 C         -15.7739   -5.3727   19.5721 C.ar    1  UNL1        0.1375
     27 F         -16.4939   -4.2424   20.2460 F       1  UNL1       -0.2045
     28 C         -14.2846   -5.4964   19.7013 C.ar    1  UNL1        0.0222
     29 C         -12.0754   -6.7504   19.1567 C.3     1  UNL1        0.0989
     30 C         -11.1323   -7.8441   16.9969 C.3     1  UNL1        0.0898
     31 N         -11.2078   -6.6762   17.9353 N.3     1  UNL1       -0.2703
     32 C         -10.4157   -5.4342   17.6521 C.3     1  UNL1        0.0458
     33 C          -9.6916   -5.5989   18.9554 C.3     1  UNL1        0.0160
     34 C         -11.1398   -5.2696   16.3489 C.3     1  UNL1        0.0160
     35 C          -9.6237   -4.1923   17.3690 C.3     1  UNL1        0.0160
@<TRIPOS>BOND
     1    30    31    1
     2    31    29    1
     3    29    22    1
     4    22    23   ar
     5    23    24   ar
     6    24    25   ar
     7    25    26   ar
     8    26    27    1
     9    26    28   ar
    10    28    21    1
    11    21    19    1
    12    19     1    1
    13     1     2   ar
    14     2     3   ar
    15     3     4    1
    16     3     5   ar
    17     5     9    1
    18     9    10    2
    19     9    11    2
    20     9    12    1
    21    12    14    1
    22    14    15   ar
    23    15    16   ar
    24    16    17   ar
    25    17    18   ar
    26     5     6   ar
    27     6     7    1
    28     6     8   ar
    29    31    32    1
    30    32    33    1
    31    32    34    1
    32    32    35    1
    33    28    22   ar
    34     8     1   ar
    35    18    14   ar
    36    19    20    1
    37    12    13    1
@<TRIPOS>MOLECULE
*****
 35 37 0 0 0
SMALL
GASTEIGER

@<TRIPOS>ATOM
      1 C         -12.5435   -1.8999   18.9632 C.ar    1  UNL1        0.0495
      2 C         -14.0007   -1.9470   19.3160 C.ar    1  UNL1        0.0455
      3 C         -14.8755   -0.7579   19.0505 C.ar    1  UNL1        0.1623
      4 F         -16.3327   -0.8051   19.4033 F       1  UNL1       -0.2026
      5 C         -14.2932    0.4784   18.4321 C.ar    1  UNL1        0.1798
      6 C         -12.8361    0.5255   18.0792 C.ar    1  UNL1        0.1623
      7 F         -12.2538    1.7619   17.4608 F       1  UNL1       -0.2026
      8 C         -11.9612   -0.6636   18.3448 C.ar    1  UNL1        0.0455
      9 S         -15.1681    1.6676   18.1665 S.O2    1  UNL1        0.0791
     10 O         -14.6794    2.3096   19.4310 O.2     1  UNL1       -0.1498
     11 O         -15.6568    1.0256   16.9020 O.2     1  UNL1       -0.1498
     12 N         -16.0429    2.8567   17.9009 N.pl3   1  UNL1       -0.1983
     13 H         -15.8804    3.4206   17.1104 H       1  UNL1        0.1753
     14 C         -17.1654    3.1867   18.8396 C.ar    1  UNL1        0.1542
     15 C         -18.2761    2.2636   19.2448 C.ar    1  UNL1        0.0725
     16 S         -19.1714    3.0040   20.1935 S.2     1  UNL1       -0.0625
     17 C         -18.6141    4.3848   20.3747 C.ar    1  UNL1        0.1360
     18 N         -17.3743    4.4976   19.5379 N.ar    1  UNL1       -0.2203
     19 N         -11.6687   -3.0891   19.2287 N.pl3   1  UNL1       -0.3289
     20 H         -10.6901   -2.9841   19.2557 H       1  UNL1        0.1471
     21 C         -12.2847   -4.4382   19.4532 C.3     1  UNL1        0.1163
     22 C         -12.5656   -6.5587   17.9786 C.ar    1  UNL1       -0.0063
     23 C         -11.9760   -7.7712   17.3212 C.ar    1  UNL1       -0.0030
     24 C         -10.5159   -8.0756   17.4808 C.ar    1  UNL1        0.0020
     25 C          -9.6454   -7.1676   18.2978 C.ar    1  UNL1        0.0293
     26 C         -10.2350   -5.9551   18.9553 C.ar    1  UNL1        0.1375
     27 F          -9.3645   -5.0470   19.7724 F       1  UNL1       -0.2045
     28 C         -11.6951   -5.6507   18.7957 C.ar    1  UNL1        0.0222
     29 C         -14.0257   -6.2543   17.8190 C.3     1  UNL1        0.0989
     30 C         -15.3326   -7.7493   16.1437 C.3     1  UNL1        0.0898
     31 N         -14.9988   -7.3648   17.5546 N.3     1  UNL1       -0.2703
     32 C         -15.6381   -8.0907   18.7011 C.3     1  UNL1        0.0458
     33 C         -16.0546   -6.7796   19.2990 C.3     1  UNL1        0.0160
     34 C         -15.2216   -9.4018   18.1031 C.3     1  UNL1        0.0160
     35 C         -16.2774   -8.8166   19.8475 C.3     1  UNL1        0.0160
@<TRIPOS>BOND
     1    30    31    1
     2    31    29    1
     3    29    22    1
     4    22    23   ar
     5    23    24   ar
     6    24    25   ar
     7    25    26   ar
     8    26    27    1
     9    26    28   ar
    10    28    21    1
    11    21    19    1
    12    19     1    1
    13     1     2   ar
    14     2     3   ar
    15     3     4    1
    16     3     5   ar
    17     5     9    1
    18     9    10    2
    19     9    11    2
    20     9    12    1
    21    12    14    1
    22    14    15   ar
    23    15    16   ar
    24    16    17   ar
    25    17    18   ar
    26     5     6   ar
    27     6     7    1
    28     6     8   ar
    29    31    32    1
    30    32    33    1
    31    32    34    1
    32    32    35    1
    33    28    22   ar
    34     8     1   ar
    35    18    14   ar
    36    19    20    1
    37    12    13    1
@<TRIPOS>MOLECULE
*****
 35 37 0 0 0
SMALL
GASTEIGER

@<TRIPOS>ATOM
      1 C           3.6339   -1.3696   18.5155 C.ar    1  UNL1        0.0495
      2 C           2.9961   -0.2017   17.8234 C.ar    1  UNL1        0.0455
      3 C           2.0670    0.7017   18.5786 C.ar    1  UNL1        0.1623
      4 F           1.4292    1.8697   17.8865 F       1  UNL1       -0.2026
      5 C           1.7757    0.4372   20.0261 C.ar    1  UNL1        0.1798
      6 C           2.4135   -0.7307   20.7182 C.ar    1  UNL1        0.1623
      7 F           2.1222   -0.9952   22.1658 F       1  UNL1       -0.2026
      8 C           3.3426   -1.6342   19.9630 C.ar    1  UNL1        0.0455
      9 S           0.8465    1.3407   20.7815 S.O2    1  UNL1        0.0791
     10 O          -0.2789    0.3764   20.5505 O.2     1  UNL1       -0.1498
     11 O           1.9720    2.3050   21.0124 O.2     1  UNL1       -0.1498
     12 N          -0.0825    2.2442   21.5368 N.pl3   1  UNL1       -0.1983
     13 H           0.0468    2.3872   22.5022 H       1  UNL1        0.1753
     14 C          -1.2086    2.9296   20.8212 C.ar    1  UNL1        0.1542
     15 C          -1.0917    3.7371   19.5625 C.ar    1  UNL1        0.0725
     16 S          -2.4602    4.2345   19.2021 S.2     1  UNL1       -0.0625
     17 C          -3.4229    3.7344   20.2380 C.ar    1  UNL1        0.1360
     18 N          -2.6494    2.9279   21.2387 N.ar    1  UNL1       -0.2203
     19 N           4.5630   -2.2731   17.7601 N.pl3   1  UNL1       -0.3289
     20 H           4.4721   -2.3681   16.7845 H       1  UNL1        0.1471
     21 C           5.6306   -3.0317   18.4913 C.3     1  UNL1        0.1163
     22 C           7.4750   -2.8235   20.3093 C.ar    1  UNL1       -0.0063
     23 C           8.6492   -2.0934   20.8909 C.ar    1  UNL1       -0.0030
     24 C           9.1532   -0.8415   20.2361 C.ar    1  UNL1        0.0020
     25 C           8.4831   -0.3197   18.9998 C.ar    1  UNL1        0.0293
     26 C           7.3089   -1.0498   18.4182 C.ar    1  UNL1        0.1375
     27 F           6.6387   -0.5279   17.1818 F       1  UNL1       -0.2045
     28 C           6.8049   -2.3017   19.0730 C.ar    1  UNL1        0.0222
     29 C           6.9710   -4.0754   20.9641 C.3     1  UNL1        0.0989
     30 C           7.6581   -4.9835   23.2993 C.3     1  UNL1        0.0898
     31 N           6.7749   -4.1176   22.4505 N.3     1  UNL1       -0.2703
     32 C           5.6956   -3.2940   23.0884 C.3     1  UNL1        0.0458
     33 C           6.7145   -2.6505   23.9815 C.3     1  UNL1        0.0160
     34 C           4.6767   -3.9375   22.1953 C.3     1  UNL1        0.0160
     35 C           4.6163   -2.4704   23.7262 C.3     1  UNL1        0.0160
@<TRIPOS>BOND
     1    30    31    1
     2    31    29    1
     3    29    22    1
     4    22    23   ar
     5    23    24   ar
     6    24    25   ar
     7    25    26   ar
     8    26    27    1
     9    26    28   ar
    10    28    21    1
    11    21    19    1
    12    19     1    1
    13     1     2   ar
    14     2     3   ar
    15     3     4    1
    16     3     5   ar
    17     5     9    1
    18     9    10    2
    19     9    11    2
    20     9    12    1
    21    12    14    1
    22    14    15   ar
    23    15    16   ar
    24    16    17   ar
    25    17    18   ar
    26     5     6   ar
    27     6     7    1
    28     6     8   ar
    29    31    32    1
    30    32    33    1
    31    32    34    1
    32    32    35    1
    33    28    22   ar
    34     8     1   ar
    35    18    14   ar
    36    19    20    1
    37    12    13    1
@<TRIPOS>MOLECULE
*****
 35 37 0 0 0
SMALL
GASTEIGER

@<TRIPOS>ATOM
      1 C           4.9365   -2.7497   23.6181 C.ar    1  UNL1        0.0495
      2 C           4.1095   -1.4983   23.6226 C.ar    1  UNL1        0.0455
      3 C           3.6311   -0.9108   22.3280 C.ar    1  UNL1        0.1623
      4 F           2.8041    0.3406   22.3325 F       1  UNL1       -0.2026
      5 C           3.9797   -1.5748   21.0290 C.ar    1  UNL1        0.1798
      6 C           4.8067   -2.8262   21.0245 C.ar    1  UNL1        0.1623
      7 F           5.1553   -3.4902   19.7253 F       1  UNL1       -0.2026
      8 C           5.2851   -3.4137   22.3190 C.ar    1  UNL1        0.0455
      9 S           3.5013   -0.9873   19.7343 S.O2    1  UNL1        0.0791
     10 O           2.1533   -1.6089   19.9503 O.2     1  UNL1       -0.1498
     11 O           4.8492   -0.3658   19.5182 O.2     1  UNL1       -0.1498
     12 N           3.0229   -0.3999   18.4397 N.pl3   1  UNL1       -0.1983
     13 H           3.2238   -0.8535   17.5893 H       1  UNL1        0.1753
     14 C           2.2384    0.8786   18.4407 C.ar    1  UNL1        0.1542
     15 C           2.8027    2.2592   18.6011 C.ar    1  UNL1        0.0725
     16 S           1.6650    3.2349   18.5410 S.2     1  UNL1       -0.0625
     17 C           0.3975    2.4573   18.3435 C.ar    1  UNL1        0.1360
     18 N           0.7520    1.0011   18.2815 N.ar    1  UNL1       -0.2203
     19 N           5.4150   -3.3372   24.9128 N.pl3   1  UNL1       -0.3289
     20 H           4.7789   -3.4912   25.6483 H       1  UNL1        0.1471
     21 C           6.8624   -3.6899   25.0868 C.3     1  UNL1        0.1163
     22 C           7.1211   -5.6851   26.7307 C.ar    1  UNL1       -0.0063
     23 C           7.5200   -7.1066   26.9957 C.ar    1  UNL1       -0.0030
     24 C           8.0591   -7.9544   25.8820 C.ar    1  UNL1        0.0020
     25 C           8.1994   -7.3807   24.5031 C.ar    1  UNL1        0.0293
     26 C           7.8005   -5.9593   24.2381 C.ar    1  UNL1        0.1375
     27 F           7.9408   -5.3856   22.8592 F       1  UNL1       -0.2045
     28 C           7.2613   -5.1115   25.3519 C.ar    1  UNL1        0.0222
     29 C           6.5819   -4.8373   27.8445 C.3     1  UNL1        0.0989
     30 C           8.9135   -3.9232   28.5360 C.3     1  UNL1        0.0898
     31 N           7.5081   -4.3038   28.8968 N.3     1  UNL1       -0.2703
     32 C           7.0290   -4.1509   30.3101 C.3     1  UNL1        0.0458
     33 C           7.1021   -5.6375   30.4958 C.3     1  UNL1        0.0160
     34 C           6.9559   -2.6642   30.1244 C.3     1  UNL1        0.0160
     35 C           6.5499   -3.9979   31.7232 C.3     1  UNL1        0.0160
@<TRIPOS>BOND
     1    30    31    1
     2    31    29    1
     3    29    22    1
     4    22    23   ar
     5    23    24   ar
     6    24    25   ar
     7    25    26   ar
     8    26    27    1
     9    26    28   ar
    10    28    21    1
    11    21    19    1
    12    19     1    1
    13     1     2   ar
    14     2     3   ar
    15     3     4    1
    16     3     5   ar
    17     5     9    1
    18     9    10    2
    19     9    11    2
    20     9    12    1
    21    12    14    1
    22    14    15   ar
    23    15    16   ar
    24    16    17   ar
    25    17    18   ar
    26     5     6   ar
    27     6     7    1
    28     6     8   ar
    29    31    32    1
    30    32    33    1
    31    32    34    1
    32    32    35    1
    33    28    22   ar
    34     8     1   ar
    35    18    14   ar
    36    19    20    1
    37    12    13    1
@<TRIPOS>MOLECULE
*****
 35 37 0 0 0
SMALL
GASTEIGER

@<TRIPOS>ATOM
      1 C           6.2608   -3.2454   23.5275 C.ar    1  UNL1        0.0495
      2 C           6.1258   -2.9214   24.9858 C.ar    1  UNL1        0.0455
      3 C           6.6986   -3.8488   26.0163 C.ar    1  UNL1        0.1623
      4 F           6.5635   -3.5248   27.4746 F       1  UNL1       -0.2026
      5 C           7.4064   -5.1000   25.5884 C.ar    1  UNL1        0.1798
      6 C           7.5415   -5.4240   24.1301 C.ar    1  UNL1        0.1623
      7 F           8.2495   -6.6754   23.7022 F       1  UNL1       -0.2026
      8 C           6.9687   -4.4967   23.0996 C.ar    1  UNL1        0.0455
      9 S           7.9793   -6.0274   26.6189 S.O2    1  UNL1        0.0791
     10 O           6.7847   -6.9234   26.4768 O.2     1  UNL1       -0.1498
     11 O           9.1739   -5.1315   26.7611 O.2     1  UNL1       -0.1498
     12 N           8.5522   -6.9547   27.6494 N.pl3   1  UNL1       -0.1983
     13 H           9.0294   -7.7686   27.3682 H       1  UNL1        0.1753
     14 C           8.3979   -6.6420   29.1083 C.ar    1  UNL1        0.1542
     15 C           7.2772   -5.8619   29.7291 C.ar    1  UNL1        0.0725
     16 S           7.5240   -5.7923   31.2071 S.2     1  UNL1       -0.0625
     17 C           8.7972   -6.5293   31.4996 C.ar    1  UNL1        0.1360
     18 N           9.3373   -7.0545   30.2025 N.ar    1  UNL1       -0.2203
     19 N           5.6880   -2.3180   22.4970 N.pl3   1  UNL1       -0.3289
     20 H           6.1930   -1.5204   22.2175 H       1  UNL1        0.1471
     21 C           4.3458   -2.6059   21.8923 C.3     1  UNL1        0.1163
     22 C           2.7417   -1.2404   20.3717 C.ar    1  UNL1       -0.0063
     23 C           1.7443   -0.1336   20.1983 C.ar    1  UNL1       -0.0030
     24 C           1.3535    0.7146   21.3722 C.ar    1  UNL1        0.0020
     25 C           1.9602    0.4560   22.7194 C.ar    1  UNL1        0.0293
     26 C           2.9576   -0.6508   22.8927 C.ar    1  UNL1        0.1375
     27 F           3.5644   -0.9095   24.2400 F       1  UNL1       -0.2045
     28 C           3.3483   -1.4990   21.7189 C.ar    1  UNL1        0.0222
     29 C           3.1324   -2.0886   19.1978 C.3     1  UNL1        0.0989
     30 C           3.7490   -0.7910   17.0331 C.3     1  UNL1        0.0898
     31 N           4.1654   -1.5967   18.2279 N.3     1  UNL1       -0.2703
     32 C           5.6149   -1.9105   18.4526 C.3     1  UNL1        0.0458
     33 C           5.9239   -0.4437   18.5082 C.3     1  UNL1        0.0160
     34 C           5.3060   -3.3772   18.3970 C.3     1  UNL1        0.0160
     35 C           7.0644   -2.2243   18.6774 C.3     1  UNL1        0.0160
@<TRIPOS>BOND
     1    30    31    1
     2    31    29    1
     3    29    22    1
     4    22    23   ar
     5    23    24   ar
     6    24    25   ar
     7    25    26   ar
     8    26    27    1
     9    26    28   ar
    10    28    21    1
    11    21    19    1
    12    19     1    1
    13     1     2   ar
    14     2     3   ar
    15     3     4    1
    16     3     5   ar
    17     5     9    1
    18     9    10    2
    19     9    11    2
    20     9    12    1
    21    12    14    1
    22    14    15   ar
    23    15    16   ar
    24    16    17   ar
    25    17    18   ar
    26     5     6   ar
    27     6     7    1
    28     6     8   ar
    29    31    32    1
    30    32    33    1
    31    32    34    1
    32    32    35    1
    33    28    22   ar
    34     8     1   ar
    35    18    14   ar
    36    19    20    1
    37    12    13    1
@<TRIPOS>MOLECULE
*****
 35 37 0 0 0
SMALL
GASTEIGER

@<TRIPOS>ATOM
      1 C           6.7416   -3.8328   23.7056 C.ar    1  UNL1        0.0495
      2 C           5.4125   -3.1612   23.8855 C.ar    1  UNL1        0.0455
      3 C           4.6808   -2.6155   22.6952 C.ar    1  UNL1        0.1623
      4 F           3.3516   -1.9439   22.8750 F       1  UNL1       -0.2026
      5 C           5.2783   -2.7412   21.3251 C.ar    1  UNL1        0.1798
      6 C           6.6074   -3.4128   21.1453 C.ar    1  UNL1        0.1623
      7 F           7.2049   -3.5386   19.7751 F       1  UNL1       -0.2026
      8 C           7.3391   -3.9585   22.3356 C.ar    1  UNL1        0.0455
      9 S           4.5466   -2.1955   20.1348 S.O2    1  UNL1        0.0791
     10 O           5.2362   -0.8758   20.3159 O.2     1  UNL1       -0.1498
     11 O           3.8569   -3.5151   19.9537 O.2     1  UNL1       -0.1498
     12 N           3.8149   -1.6498   18.9445 N.pl3   1  UNL1       -0.1983
     13 H           4.1096   -1.8851   18.0351 H       1  UNL1        0.1753
     14 C           2.6342   -0.7454   19.1398 C.ar    1  UNL1        0.1542
     15 C           2.2872    0.4459   18.2970 C.ar    1  UNL1        0.0725
     16 S           1.0317    1.0540   18.8484 S.2     1  UNL1       -0.0625
     17 C           0.6028    0.2384   20.0320 C.ar    1  UNL1        0.1360
     18 N           1.5932   -0.8737   20.2120 N.ar    1  UNL1       -0.2203
     19 N           7.4733   -4.3785   24.8960 N.pl3   1  UNL1       -0.3289
     20 H           8.3804   -4.0582   25.1056 H       1  UNL1        0.1471
     21 C           6.8231   -5.4123   25.7668 C.3     1  UNL1        0.1163
     22 C           7.6926   -6.5167   27.9518 C.ar    1  UNL1       -0.0063
     23 C           8.5310   -7.5537   28.6386 C.ar    1  UNL1       -0.0030
     24 C           9.3382   -8.5234   27.8273 C.ar    1  UNL1        0.0020
     25 C           9.3070   -8.4560   26.3291 C.ar    1  UNL1        0.0293
     26 C           8.4686   -7.4189   25.6424 C.ar    1  UNL1        0.1375
     27 F           8.4375   -7.3515   24.1442 F       1  UNL1       -0.2045
     28 C           7.6614   -6.4493   26.4537 C.ar    1  UNL1        0.0222
     29 C           6.8854   -5.5471   28.7632 C.3     1  UNL1        0.0989
     30 C           8.8537   -3.8801   29.0741 C.3     1  UNL1        0.0898
     31 N           7.5755   -4.4880   29.5706 N.3     1  UNL1       -0.2703
     32 C           6.9874   -4.0368   30.8747 C.3     1  UNL1        0.0458
     33 C           6.8655   -2.6418   30.3371 C.3     1  UNL1        0.0160
     34 C           7.1092   -5.4318   31.4123 C.3     1  UNL1        0.0160
     35 C           6.3993   -3.5856   32.1788 C.3     1  UNL1        0.0160
@<TRIPOS>BOND
     1    30    31    1
     2    31    29    1
     3    29    22    1
     4    22    23   ar
     5    23    24   ar
     6    24    25   ar
     7    25    26   ar
     8    26    27    1
     9    26    28   ar
    10    28    21    1
    11    21    19    1
    12    19     1    1
    13     1     2   ar
    14     2     3   ar
    15     3     4    1
    16     3     5   ar
    17     5     9    1
    18     9    10    2
    19     9    11    2
    20     9    12    1
    21    12    14    1
    22    14    15   ar
    23    15    16   ar
    24    16    17   ar
    25    17    18   ar
    26     5     6   ar
    27     6     7    1
    28     6     8   ar
    29    31    32    1
    30    32    33    1
    31    32    34    1
    32    32    35    1
    33    28    22   ar
    34     8     1   ar
    35    18    14   ar
    36    19    20    1
    37    12    13    1
@<TRIPOS>MOLECULE
*****
 35 37 0 0 0
SMALL
GASTEIGER

@<TRIPOS>ATOM
      1 C          -8.3919  -19.7115   20.4055 C.ar    1  UNL1        0.0495
      2 C          -7.5147  -20.7860   19.8346 C.ar    1  UNL1        0.0455
      3 C          -6.0448  -20.7918   20.1334 C.ar    1  UNL1        0.1623
      4 F          -5.1676  -21.8663   19.5626 F       1  UNL1       -0.2026
      5 C          -5.4521  -19.7229   21.0030 C.ar    1  UNL1        0.1798
      6 C          -6.3293  -18.6484   21.5739 C.ar    1  UNL1        0.1623
      7 F          -5.7366  -17.5796   22.4436 F       1  UNL1       -0.2026
      8 C          -7.7992  -18.6427   21.2751 C.ar    1  UNL1        0.0455
      9 S          -3.9821  -19.7286   21.3019 S.O2    1  UNL1        0.0791
     10 O          -3.6853  -19.5255   19.8457 O.2     1  UNL1       -0.1498
     11 O          -4.2790  -19.9317   22.7581 O.2     1  UNL1       -0.1498
     12 N          -2.5123  -19.7343   21.6007 N.pl3   1  UNL1       -0.1983
     13 H          -2.1282  -20.4408   22.1688 H       1  UNL1        0.1753
     14 C          -1.6275  -18.6637   21.0342 C.ar    1  UNL1        0.1542
     15 C          -1.7757  -17.1878   21.2574 C.ar    1  UNL1        0.0725
     16 S          -0.6791  -16.4929   20.5061 S.2     1  UNL1       -0.0625
     17 C           0.1469  -17.5393   19.8185 C.ar    1  UNL1        0.1360
     18 N          -0.4393  -18.8809   20.1449 N.ar    1  UNL1       -0.2203
     19 N          -9.8619  -19.7058   20.1066 N.pl3   1  UNL1       -0.3289
     20 H         -10.1754  -19.7829   19.1766 H       1  UNL1        0.1471
     21 C         -10.8541  -19.5828   21.2248 C.3     1  UNL1        0.1163
     22 C         -11.8046  -17.8399   22.9007 C.ar    1  UNL1       -0.0063
     23 C         -12.4760  -16.5251   23.1664 C.ar    1  UNL1       -0.0030
     24 C         -12.8681  -15.6384   22.0218 C.ar    1  UNL1        0.0020
     25 C         -12.5889  -16.0665   20.6116 C.ar    1  UNL1        0.0293
     26 C         -11.9176  -17.3813   20.3460 C.ar    1  UNL1        0.1375
     27 F         -11.6384  -17.8094   18.9357 F       1  UNL1       -0.2045
     28 C         -11.5254  -18.2679   21.4905 C.ar    1  UNL1        0.0222
     29 C         -11.4125  -18.7265   24.0453 C.3     1  UNL1        0.0989
     30 C          -9.2223  -20.0967   24.3202 C.3     1  UNL1        0.0898
     31 N          -9.9769  -18.8093   24.4722 N.3     1  UNL1       -0.2703
     32 C          -9.2959  -17.6047   25.0512 C.3     1  UNL1        0.0458
     33 C          -8.8945  -17.1692   23.6731 C.3     1  UNL1        0.0160
     34 C          -9.6974  -18.0401   26.4293 C.3     1  UNL1        0.0160
     35 C          -8.6150  -16.4001   25.6302 C.3     1  UNL1        0.0160
@<TRIPOS>BOND
     1    30    31    1
     2    31    29    1
     3    29    22    1
     4    22    23   ar
     5    23    24   ar
     6    24    25   ar
     7    25    26   ar
     8    26    27    1
     9    26    28   ar
    10    28    21    1
    11    21    19    1
    12    19     1    1
    13     1     2   ar
    14     2     3   ar
    15     3     4    1
    16     3     5   ar
    17     5     9    1
    18     9    10    2
    19     9    11    2
    20     9    12    1
    21    12    14    1
    22    14    15   ar
    23    15    16   ar
    24    16    17   ar
    25    17    18   ar
    26     5     6   ar
    27     6     7    1
    28     6     8   ar
    29    31    32    1
    30    32    33    1
    31    32    34    1
    32    32    35    1
    33    28    22   ar
    34     8     1   ar
    35    18    14   ar
    36    19    20    1
    37    12    13    1
