@<TRIPOS>MOLECULE
*****
 23 25 0 0 0
SMALL
GASTEIGER

@<TRIPOS>ATOM
      1 C          -8.9015  -17.0098   22.6463 C.3     1  UNL1        0.0847
      2 N          -8.0913  -18.0126   21.8794 N.3     1  UNL1       -0.2676
      3 C          -6.6792  -18.3077   22.2903 C.3     1  UNL1        0.0896
      4 C          -5.8690  -19.3105   21.5234 C.3     1  UNL1        0.0862
      5 N          -6.4710  -20.0180   20.3458 N.3     1  UNL1       -0.2951
      6 C          -7.8831  -19.7228   19.9349 C.3     1  UNL1        0.0862
      7 C          -8.6932  -18.7201   20.7017 C.3     1  UNL1        0.0896
      8 H          -6.4257  -21.0168   20.5477 H       1  UNL1        0.1233
      9 C         -10.3390  -17.2942   22.9666 C.ar    1  UNL1       -0.0075
     10 C         -11.4258  -16.4935   22.3126 C.ar    1  UNL1       -0.0030
     11 C         -12.8633  -16.7780   22.6330 C.ar    1  UNL1       -0.0003
     12 C         -13.2141  -17.8632   23.6073 C.ar    1  UNL1       -0.0000
     13 C         -12.1273  -18.6639   24.2613 C.ar    1  UNL1       -0.0003
     14 C         -10.6898  -18.3795   23.9410 C.ar    1  UNL1       -0.0030
     15 C          -8.2741  -15.7225   23.0929 C.3     1  UNL1        0.0499
     16 O          -5.4084  -14.9110   23.4528 O.3     1  UNL1       -0.5058
     17 C          -6.2612  -15.2039   24.6516 C.ar    1  UNL1        0.1297
     18 C          -5.6811  -15.0909   26.0302 C.ar    1  UNL1        0.0363
     19 C          -6.5339  -15.3838   27.2290 C.ar    1  UNL1        0.0031
     20 C          -7.9667  -15.7895   27.0490 C.ar    1  UNL1       -0.0001
     21 C          -8.5468  -15.9025   25.6704 C.ar    1  UNL1       -0.0012
     22 C          -7.6940  -15.6096   24.4717 C.ar    1  UNL1        0.0132
     23 H          -4.5134  -14.6576   23.5651 H       1  UNL1        0.2922
@<TRIPOS>BOND
     1    16    17    1
     2    17    18   ar
     3    18    19   ar
     4    19    20   ar
     5    20    21   ar
     6    21    22   ar
     7    22    15    1
     8     1    15    1
     9     1     9    1
    10     9    10   ar
    11    10    11   ar
    12    11    12   ar
    13    12    13   ar
    14    13    14   ar
    15     1     2    1
    16     2     3    1
    17     3     4    1
    18     4     5    1
    19     5     6    1
    20     6     7    1
    21    22    17   ar
    22    14     9   ar
    23     7     2    1
    24    16    23    1
    25     5     8    1
@<TRIPOS>MOLECULE
*****
 23 25 0 0 0
SMALL
GASTEIGER

@<TRIPOS>ATOM
      1 C          -8.5337  -17.0514   22.3012 C.3     1  UNL1        0.0847
      2 N         -10.0162  -17.2770   22.2633 N.3     1  UNL1       -0.2676
      3 C         -10.8517  -16.5976   21.2190 C.3     1  UNL1        0.0896
      4 C         -12.3341  -16.8231   21.1811 C.3     1  UNL1        0.0862
      5 N         -12.9811  -17.7279   22.1874 N.3     1  UNL1       -0.2951
      6 C         -12.1456  -18.4072   23.2316 C.3     1  UNL1        0.0862
      7 C         -10.6632  -18.1818   23.2696 C.3     1  UNL1        0.0896
      8 H         -13.4514  -18.4645   21.6615 H       1  UNL1        0.1233
      9 C          -7.6000  -18.1189   21.8129 C.ar    1  UNL1       -0.0075
     10 C          -6.2673  -18.3098   22.4745 C.ar    1  UNL1       -0.0030
     11 C          -5.3336  -19.3774   21.9861 C.ar    1  UNL1       -0.0003
     12 C          -5.7324  -20.2540   20.8362 C.ar    1  UNL1       -0.0000
     13 C          -7.0651  -20.0632   20.1747 C.ar    1  UNL1       -0.0003
     14 C          -7.9988  -18.9957   20.6630 C.ar    1  UNL1       -0.0030
     15 C          -7.9850  -15.7584   22.8275 C.3     1  UNL1        0.0499
     16 O          -5.1986  -14.8658   23.4903 O.3     1  UNL1       -0.5058
     17 C          -6.1580  -15.2090   24.5911 C.ar    1  UNL1        0.1297
     18 C          -5.7243  -15.1060   26.0233 C.ar    1  UNL1        0.0363
     19 C          -6.6837  -15.4492   27.1241 C.ar    1  UNL1        0.0031
     20 C          -8.0769  -15.8954   26.7926 C.ar    1  UNL1       -0.0001
     21 C          -8.5107  -15.9985   25.3605 C.ar    1  UNL1       -0.0012
     22 C          -7.5512  -15.6553   24.2597 C.ar    1  UNL1        0.0132
     23 H          -4.3283  -14.5871   23.6973 H       1  UNL1        0.2922
@<TRIPOS>BOND
     1    16    17    1
     2    17    18   ar
     3    18    19   ar
     4    19    20   ar
     5    20    21   ar
     6    21    22   ar
     7    22    15    1
     8     1    15    1
     9     1     9    1
    10     9    10   ar
    11    10    11   ar
    12    11    12   ar
    13    12    13   ar
    14    13    14   ar
    15     1     2    1
    16     2     3    1
    17     3     4    1
    18     4     5    1
    19     5     6    1
    20     6     7    1
    21    22    17   ar
    22    14     9   ar
    23     7     2    1
    24    16    23    1
    25     5     8    1
@<TRIPOS>MOLECULE
*****
 23 25 0 0 0
SMALL
GASTEIGER

@<TRIPOS>ATOM
      1 C          -7.5588  -17.7002   22.3161 C.3     1  UNL1        0.0847
      2 N          -6.2384  -18.2821   21.9061 N.3     1  UNL1       -0.2676
      3 C          -5.0597  -18.1913   22.8293 C.3     1  UNL1        0.0896
      4 C          -3.7393  -18.7732   22.4194 C.3     1  UNL1        0.0862
      5 N          -3.5977  -19.4458   21.0862 N.3     1  UNL1       -0.2951
      6 C          -4.7764  -19.5366   20.1630 C.3     1  UNL1        0.0862
      7 C          -6.0967  -18.9547   20.5729 C.3     1  UNL1        0.0896
      8 H          -3.2930  -20.4018   21.2696 H       1  UNL1        0.1233
      9 C          -8.8066  -18.5264   22.2140 C.ar    1  UNL1       -0.0075
     10 C          -9.6849  -18.4121   21.0034 C.ar    1  UNL1       -0.0030
     11 C         -10.9327  -19.2384   20.9015 C.ar    1  UNL1       -0.0003
     12 C         -11.3022  -20.1788   22.0100 C.ar    1  UNL1       -0.0000
     13 C         -10.4239  -20.2930   23.2207 C.ar    1  UNL1       -0.0003
     14 C          -9.1761  -19.4669   23.3227 C.ar    1  UNL1       -0.0030
     15 C          -7.6313  -16.2922   22.8281 C.3     1  UNL1        0.0499
     16 O          -5.1746  -14.8411   23.7548 O.3     1  UNL1       -0.5058
     17 C          -6.2024  -15.2883   24.7517 C.ar    1  UNL1        0.1297
     18 C          -6.0018  -15.0100   26.2119 C.ar    1  UNL1        0.0363
     19 C          -7.0295  -15.4572   27.2088 C.ar    1  UNL1        0.0031
     20 C          -8.2579  -16.1828   26.7454 C.ar    1  UNL1       -0.0001
     21 C          -8.4585  -16.4611   25.2852 C.ar    1  UNL1       -0.0012
     22 C          -7.4307  -16.0139   24.2884 C.ar    1  UNL1        0.0132
     23 H          -4.4073  -14.3878   24.0443 H       1  UNL1        0.2922
@<TRIPOS>BOND
     1    16    17    1
     2    17    18   ar
     3    18    19   ar
     4    19    20   ar
     5    20    21   ar
     6    21    22   ar
     7    22    15    1
     8     1    15    1
     9     1     9    1
    10     9    10   ar
    11    10    11   ar
    12    11    12   ar
    13    12    13   ar
    14    13    14   ar
    15     1     2    1
    16     2     3    1
    17     3     4    1
    18     4     5    1
    19     5     6    1
    20     6     7    1
    21    22    17   ar
    22    14     9   ar
    23     7     2    1
    24    16    23    1
    25     5     8    1
@<TRIPOS>MOLECULE
*****
 23 25 0 0 0
SMALL
GASTEIGER

@<TRIPOS>ATOM
      1 C          -7.6480  -16.5675   23.0060 C.3     1  UNL1        0.0847
      2 N          -6.9155  -17.7189   22.3832 N.3     1  UNL1       -0.2676
      3 C          -7.5865  -18.5557   21.3346 C.3     1  UNL1        0.0896
      4 C          -6.8540  -19.7070   20.7118 C.3     1  UNL1        0.0862
      5 N          -5.4505  -20.0215   21.1376 N.3     1  UNL1       -0.2951
      6 C          -4.7795  -19.1847   22.1861 C.3     1  UNL1        0.0862
      7 C          -5.5120  -18.0333   22.8089 C.3     1  UNL1        0.0896
      8 H          -4.8697  -19.9666   20.3009 H       1  UNL1        0.1233
      9 C          -7.3121  -16.1314   24.4013 C.ar    1  UNL1       -0.0075
     10 C          -5.9674  -15.5367   24.6980 C.ar    1  UNL1       -0.0030
     11 C          -5.6315  -15.1007   26.0934 C.ar    1  UNL1       -0.0003
     12 C          -6.6404  -15.2593   27.1920 C.ar    1  UNL1       -0.0000
     13 C          -7.9851  -15.8540   26.8953 C.ar    1  UNL1       -0.0003
     14 C          -8.3210  -16.2900   25.5000 C.ar    1  UNL1       -0.0030
     15 C          -8.7164  -15.8522   22.2334 C.3     1  UNL1        0.0499
     16 O         -10.4103  -15.2925   19.8214 O.3     1  UNL1       -0.5058
     17 C         -10.9370  -16.1657   20.9215 C.ar    1  UNL1        0.1297
     18 C         -12.3106  -16.7590   20.8157 C.ar    1  UNL1        0.0363
     19 C         -12.8372  -17.6322   21.9158 C.ar    1  UNL1        0.0031
     20 C         -11.9903  -17.9120   23.1217 C.ar    1  UNL1       -0.0001
     21 C         -10.6167  -17.3187   23.2276 C.ar    1  UNL1       -0.0012
     22 C         -10.0901  -16.4456   22.1275 C.ar    1  UNL1        0.0132
     23 H         -10.9394  -15.1177   19.0681 H       1  UNL1        0.2922
@<TRIPOS>BOND
     1    16    17    1
     2    17    18   ar
     3    18    19   ar
     4    19    20   ar
     5    20    21   ar
     6    21    22   ar
     7    22    15    1
     8     1    15    1
     9     1     9    1
    10     9    10   ar
    11    10    11   ar
    12    11    12   ar
    13    12    13   ar
    14    13    14   ar
    15     1     2    1
    16     2     3    1
    17     3     4    1
    18     4     5    1
    19     5     6    1
    20     6     7    1
    21    22    17   ar
    22    14     9   ar
    23     7     2    1
    24    16    23    1
    25     5     8    1
@<TRIPOS>MOLECULE
*****
 23 25 0 0 0
SMALL
GASTEIGER

@<TRIPOS>ATOM
      1 C          -7.8663  -17.4834   22.4314 C.3     1  UNL1        0.0847
      2 N          -9.3095  -17.8273   22.6533 N.3     1  UNL1       -0.2676
      3 C          -9.6946  -18.7738   23.7513 C.3     1  UNL1        0.0896
      4 C         -11.1377  -19.1177   23.9733 C.3     1  UNL1        0.0862
      5 N         -12.1956  -18.5150   23.0972 N.3     1  UNL1       -0.2951
      6 C         -11.8104  -17.5684   21.9992 C.3     1  UNL1        0.0862
      7 C         -10.3674  -17.2245   21.7773 C.3     1  UNL1        0.0896
      8 H         -12.8337  -18.0093   23.7116 H       1  UNL1        0.1233
      9 C          -6.9460  -18.4836   21.7969 C.ar    1  UNL1       -0.0075
     10 C          -5.5223  -18.5902   22.2569 C.ar    1  UNL1       -0.0030
     11 C          -4.6020  -19.5904   21.6224 C.ar    1  UNL1       -0.0003
     12 C          -5.1054  -20.4840   20.5278 C.ar    1  UNL1       -0.0000
     13 C          -6.5291  -20.3774   20.0678 C.ar    1  UNL1       -0.0003
     14 C          -7.4494  -19.3772   20.7023 C.ar    1  UNL1       -0.0030
     15 C          -7.3436  -16.1393   22.8440 C.3     1  UNL1        0.0499
     16 O          -9.6311  -15.4759   24.6681 O.3     1  UNL1       -0.5058
     17 C          -8.2309  -15.5151   25.2048 C.ar    1  UNL1        0.1297
     18 C          -7.9745  -15.2226   26.6534 C.ar    1  UNL1        0.0363
     19 C          -6.5743  -15.2618   27.1901 C.ar    1  UNL1        0.0031
     20 C          -5.4306  -15.5935   26.2780 C.ar    1  UNL1       -0.0001
     21 C          -5.6870  -15.8860   24.8294 C.ar    1  UNL1       -0.0012
     22 C          -7.0871  -15.8468   24.2927 C.ar    1  UNL1        0.0132
     23 H         -10.3455  -15.2687   25.2378 H       1  UNL1        0.2922
@<TRIPOS>BOND
     1    16    17    1
     2    17    18   ar
     3    18    19   ar
     4    19    20   ar
     5    20    21   ar
     6    21    22   ar
     7    22    15    1
     8     1    15    1
     9     1     9    1
    10     9    10   ar
    11    10    11   ar
    12    11    12   ar
    13    12    13   ar
    14    13    14   ar
    15     1     2    1
    16     2     3    1
    17     3     4    1
    18     4     5    1
    19     5     6    1
    20     6     7    1
    21    22    17   ar
    22    14     9   ar
    23     7     2    1
    24    16    23    1
    25     5     8    1
@<TRIPOS>MOLECULE
*****
 23 25 0 0 0
SMALL
GASTEIGER

@<TRIPOS>ATOM
      1 C          -7.7789  -18.7620   22.5939 C.3     1  UNL1        0.0847
      2 N          -7.8618  -17.3344   23.0470 N.3     1  UNL1       -0.2676
      3 C          -7.9754  -16.2320   22.0361 C.3     1  UNL1        0.0896
      4 C          -8.0583  -14.8045   22.4892 C.3     1  UNL1        0.0862
      5 N          -8.0275  -14.4794   23.9532 N.3     1  UNL1       -0.2951
      6 C          -7.9138  -15.5817   24.9641 C.3     1  UNL1        0.0862
      7 C          -7.8310  -17.0092   24.5110 C.3     1  UNL1        0.0896
      8 H          -8.8902  -13.9768   24.1614 H       1  UNL1        0.1233
      9 C          -6.5320  -19.2671   21.9306 C.ar    1  UNL1       -0.0075
     10 C          -6.6264  -20.2820   20.8301 C.ar    1  UNL1       -0.0030
     11 C          -5.3793  -20.7872   20.1669 C.ar    1  UNL1       -0.0003
     12 C          -4.0381  -20.2775   20.6041 C.ar    1  UNL1       -0.0000
     13 C          -3.9438  -19.2626   21.7046 C.ar    1  UNL1       -0.0003
     14 C          -5.1907  -18.7574   22.3678 C.ar    1  UNL1       -0.0030
     15 C          -8.9431  -19.6843   22.8040 C.3     1  UNL1        0.0499
     16 O         -10.2699  -19.8519   25.4894 O.3     1  UNL1       -0.5058
     17 C         -10.9837  -19.2057   24.3392 C.ar    1  UNL1        0.1297
     18 C         -12.3609  -18.6433   24.5317 C.ar    1  UNL1        0.0363
     19 C         -13.0746  -17.9971   23.3815 C.ar    1  UNL1        0.0031
     20 C         -12.4112  -17.9133   22.0388 C.ar    1  UNL1       -0.0001
     21 C         -11.0340  -18.4757   21.8463 C.ar    1  UNL1       -0.0012
     22 C         -10.3203  -19.1219   22.9965 C.ar    1  UNL1        0.0132
     23 H         -10.6843  -19.9043   26.3282 H       1  UNL1        0.2922
@<TRIPOS>BOND
     1    16    17    1
     2    17    18   ar
     3    18    19   ar
     4    19    20   ar
     5    20    21   ar
     6    21    22   ar
     7    22    15    1
     8     1    15    1
     9     1     9    1
    10     9    10   ar
    11    10    11   ar
    12    11    12   ar
    13    12    13   ar
    14    13    14   ar
    15     1     2    1
    16     2     3    1
    17     3     4    1
    18     4     5    1
    19     5     6    1
    20     6     7    1
    21    22    17   ar
    22    14     9   ar
    23     7     2    1
    24    16    23    1
    25     5     8    1
@<TRIPOS>MOLECULE
*****
 23 25 0 0 0
SMALL
GASTEIGER

@<TRIPOS>ATOM
      1 C          -8.5678  -16.6496   23.5039 C.3     1  UNL1        0.0847
      2 N          -7.9191  -16.0879   24.7343 N.3     1  UNL1       -0.2676
      3 C          -8.7275  -15.8824   25.9810 C.3     1  UNL1        0.0896
      4 C          -8.0790  -15.3207   27.2113 C.3     1  UNL1        0.0862
      5 N          -6.6220  -14.9645   27.1950 N.3     1  UNL1       -0.2951
      6 C          -5.8136  -15.1700   25.9483 C.3     1  UNL1        0.0862
      7 C          -6.4622  -15.7317   24.7179 C.3     1  UNL1        0.0896
      8 H          -6.1761  -15.5146   27.9291 H       1  UNL1        0.1233
      9 C          -9.9829  -17.1438   23.5612 C.ar    1  UNL1       -0.0075
     10 C         -10.3187  -18.3655   24.3640 C.ar    1  UNL1       -0.0030
     11 C         -11.7339  -18.8597   24.4212 C.ar    1  UNL1       -0.0003
     12 C         -12.8131  -18.1322   23.6757 C.ar    1  UNL1       -0.0000
     13 C         -12.4772  -16.9104   22.8728 C.ar    1  UNL1       -0.0003
     14 C         -11.0622  -16.4162   22.8156 C.ar    1  UNL1       -0.0030
     15 C          -7.8013  -16.7171   22.2163 C.3     1  UNL1        0.0499
     16 O          -9.2404  -18.3529   20.1540 O.3     1  UNL1       -0.5058
     17 C          -7.9415  -18.8398   20.7247 C.ar    1  UNL1        0.1297
     18 C          -7.3621  -20.1445   20.2643 C.ar    1  UNL1        0.0363
     19 C          -6.0632  -20.6314   20.8351 C.ar    1  UNL1        0.0031
     20 C          -5.3437  -19.8135   21.8663 C.ar    1  UNL1       -0.0001
     21 C          -5.9230  -18.5088   22.3266 C.ar    1  UNL1       -0.0012
     22 C          -7.2219  -18.0219   21.7559 C.ar    1  UNL1        0.0132
     23 H          -9.6899  -18.8638   19.5099 H       1  UNL1        0.2922
@<TRIPOS>BOND
     1    16    17    1
     2    17    18   ar
     3    18    19   ar
     4    19    20   ar
     5    20    21   ar
     6    21    22   ar
     7    22    15    1
     8     1    15    1
     9     1     9    1
    10     9    10   ar
    11    10    11   ar
    12    11    12   ar
    13    12    13   ar
    14    13    14   ar
    15     1     2    1
    16     2     3    1
    17     3     4    1
    18     4     5    1
    19     5     6    1
    20     6     7    1
    21    22    17   ar
    22    14     9   ar
    23     7     2    1
    24    16    23    1
    25     5     8    1
@<TRIPOS>MOLECULE
*****
 23 25 0 0 0
SMALL
GASTEIGER

@<TRIPOS>ATOM
      1 C          -8.2757  -17.9849   22.4675 C.3     1  UNL1        0.0847
      2 N          -9.4003  -17.6395   21.5369 N.3     1  UNL1       -0.2676
      3 C          -9.9141  -16.2317   21.4714 C.3     1  UNL1        0.0896
      4 C         -11.0387  -15.8863   20.5409 C.3     1  UNL1        0.0862
      5 N         -11.6495  -16.9486   19.6759 N.3     1  UNL1       -0.2951
      6 C         -11.1358  -18.3564   19.7414 C.3     1  UNL1        0.0862
      7 C         -10.0112  -18.7018   20.6719 C.3     1  UNL1        0.0896
      8 H         -11.5408  -16.6401   18.7097 H       1  UNL1        0.1233
      9 C          -7.9222  -17.0586   23.5931 C.ar    1  UNL1       -0.0075
     10 C          -6.6761  -16.2271   23.5169 C.ar    1  UNL1       -0.0030
     11 C          -6.3226  -15.3007   24.6425 C.ar    1  UNL1       -0.0003
     12 C          -7.2152  -15.2059   25.8443 C.ar    1  UNL1       -0.0000
     13 C          -8.4613  -16.0374   25.9204 C.ar    1  UNL1       -0.0003
     14 C          -8.8148  -16.9637   24.7949 C.ar    1  UNL1       -0.0030
     15 C          -7.5046  -19.2566   22.2725 C.3     1  UNL1        0.0499
     16 O          -7.1994  -18.9386   19.3050 O.3     1  UNL1       -0.5058
     17 C          -5.9836  -19.0585   20.1754 C.ar    1  UNL1        0.1297
     18 C          -4.6154  -19.0193   19.5621 C.ar    1  UNL1        0.0363
     19 C          -3.3996  -19.1392   20.4325 C.ar    1  UNL1        0.0031
     20 C          -3.5522  -19.2982   21.9162 C.ar    1  UNL1       -0.0001
     21 C          -4.9205  -19.3374   22.5295 C.ar    1  UNL1       -0.0012
     22 C          -6.1362  -19.2175   21.6591 C.ar    1  UNL1        0.0132
     23 H          -7.1042  -18.8392   18.3782 H       1  UNL1        0.2922
@<TRIPOS>BOND
     1    16    17    1
     2    17    18   ar
     3    18    19   ar
     4    19    20   ar
     5    20    21   ar
     6    21    22   ar
     7    22    15    1
     8     1    15    1
     9     1     9    1
    10     9    10   ar
    11    10    11   ar
    12    11    12   ar
    13    12    13   ar
    14    13    14   ar
    15     1     2    1
    16     2     3    1
    17     3     4    1
    18     4     5    1
    19     5     6    1
    20     6     7    1
    21    22    17   ar
    22    14     9   ar
    23     7     2    1
    24    16    23    1
    25     5     8    1
@<TRIPOS>MOLECULE
*****
 23 25 0 0 0
SMALL
GASTEIGER

@<TRIPOS>ATOM
      1 C          -8.9866  -17.7974   23.5533 C.3     1  UNL1        0.0847
      2 N          -8.1488  -16.7537   24.2308 N.3     1  UNL1       -0.2676
      3 C          -6.9371  -16.2006   23.5409 C.3     1  UNL1        0.0896
      4 C          -6.0994  -15.1570   24.2184 C.3     1  UNL1        0.0862
      5 N          -6.4733  -14.6665   25.5857 N.3     1  UNL1       -0.2951
      6 C          -7.6849  -15.2196   26.2755 C.3     1  UNL1        0.0862
      7 C          -8.5227  -16.2632   25.5981 C.3     1  UNL1        0.0896
      8 H          -6.6123  -13.6589   25.5092 H       1  UNL1        0.1233
      9 C         -10.4809  -17.6680   23.5412 C.ar    1  UNL1       -0.0075
     10 C         -11.1337  -16.5891   22.7288 C.ar    1  UNL1       -0.0030
     11 C         -12.6281  -16.4597   22.7167 C.ar    1  UNL1       -0.0003
     12 C         -13.4696  -17.4091   23.5170 C.ar    1  UNL1       -0.0000
     13 C         -12.8168  -18.4879   24.3293 C.ar    1  UNL1       -0.0003
     14 C         -11.3225  -18.6174   24.3415 C.ar    1  UNL1       -0.0030
     15 C          -8.3300  -18.9705   22.8879 C.3     1  UNL1        0.0499
     16 O          -6.1241  -18.8516   20.8581 O.3     1  UNL1       -0.5058
     17 C          -7.5160  -19.2149   20.4328 C.ar    1  UNL1        0.1297
     18 C          -7.8048  -19.5187   18.9926 C.ar    1  UNL1        0.0363
     19 C          -9.1966  -19.8819   18.5673 C.ar    1  UNL1        0.0031
     20 C         -10.2995  -19.9414   19.5822 C.ar    1  UNL1       -0.0001
     21 C         -10.0107  -19.6376   21.0224 C.ar    1  UNL1       -0.0012
     22 C          -8.6189  -19.2743   21.4477 C.ar    1  UNL1        0.0132
     23 H          -5.4351  -18.8145   20.2242 H       1  UNL1        0.2922
@<TRIPOS>BOND
     1    16    17    1
     2    17    18   ar
     3    18    19   ar
     4    19    20   ar
     5    20    21   ar
     6    21    22   ar
     7    22    15    1
     8     1    15    1
     9     1     9    1
    10     9    10   ar
    11    10    11   ar
    12    11    12   ar
    13    12    13   ar
    14    13    14   ar
    15     1     2    1
    16     2     3    1
    17     3     4    1
    18     4     5    1
    19     5     6    1
    20     6     7    1
    21    22    17   ar
    22    14     9   ar
    23     7     2    1
    24    16    23    1
    25     5     8    1
