@<TRIPOS>MOLECULE
*****
 42 46 0 0 0
SMALL
GASTEIGER

@<TRIPOS>ATOM
      1 C           4.4510   -2.6224   21.6229 C.3     1  UNL1        0.2118
      2 O           3.6906   -1.6435   22.0126 O.3     1  UNL1       -0.3453
      3 C           3.7910   -1.7727   21.9612 C.3     1  UNL1        0.1464
      4 C           3.0307   -0.7939   22.3509 C.3     1  UNL1        0.0733
      5 C           3.5511   -1.1407   23.7144 C.3     1  UNL1        0.0361
      6 C           4.4351   -2.0990   24.1677 C.3     1  UNL1        0.1402
      7 O           4.9161   -2.3937   25.5576 O.3     1  UNL1       -0.3819
      8 C           4.9320   -2.9171   23.0127 C.3     1  UNL1        0.1724
      9 O           5.9098   -4.0300   23.2478 O.3     1  UNL1       -0.3792
     10 C           3.0943   -0.3616   24.9120 C.3     1  UNL1        0.0136
     11 C           4.0715   -1.4875   25.0778 C.3     1  UNL1        0.0008
     12 C           3.6147   -0.7084   26.2754 C.3     1  UNL1        0.0727
     13 C           3.1580    0.0707   27.4731 C.2     1  UNL1        0.2057
     14 O           3.6784   -0.2760   28.8365 O.2     1  UNL1       -0.2881
     15 C           2.1807    1.1965   27.3073 C.2     1  UNL1        0.1603
     16 O           1.7239    1.9756   28.5050 O.2     1  UNL1       -0.5034
     17 C           1.6603    1.5433   25.9439 C.2     1  UNL1       -0.0076
     18 C           0.6831    2.6692   25.7781 C.3     1  UNL1        0.0296
     19 C           2.1171    0.7642   24.7462 C.3     1  UNL1        0.0254
     20 C           1.5966    1.1110   23.3828 C.3     1  UNL1        0.0478
     21 C           2.0534    0.3319   22.1852 C.3     1  UNL1        0.1717
     22 O           1.5330    0.6787   20.8217 O.3     1  UNL1       -0.4497
     23 C           1.9898   -0.1004   19.6241 C.2     1  UNL1        0.3577
     24 O           1.4693    0.2464   18.2607 O.2     1  UNL1       -0.2461
     25 C           2.9670   -1.2263   19.7899 C.3     1  UNL1        0.2695
     26 C           3.4875   -1.5730   21.1533 C.3     1  UNL1        0.0949
     27 H           5.5389   -3.1370   25.5334 H       1  UNL1        0.2104
     28 H           6.1150   -4.0856   24.1942 H       1  UNL1        0.2106
     29 H           2.0490    1.7590   29.3567 H       1  UNL1        0.2923
     30 C           5.1526   -3.6260   20.7567 C.2     1  UNL1        0.3442
     31 O           6.6063   -3.4501   20.4315 O.2     1  UNL1       -0.2474
     32 C           4.5822   -5.2192   18.7851 C.3     1  UNL1        0.2557
     33 O           4.4005   -4.8057   20.2156 O.3     1  UNL1       -0.4428
     34 O           3.4238   -2.0053   18.5923 O.3     1  UNL1       -0.4375
     35 C           4.3649   -1.3804   17.6054 C.2     1  UNL1        0.3412
     36 O           3.8784   -1.0107   16.2355 O.2     1  UNL1       -0.2449
     37 C           5.7926   -1.1254   17.9884 C.2     1  UNL1        0.0734
     38 C           6.2312    0.2574   18.3697 C.2     1  UNL1       -0.0378
     39 C           5.2422    1.3851   18.3681 C.3     1  UNL1        0.0266
     40 C           7.6589    0.5125   18.7527 C.3     1  UNL1        0.0185
     41 C           8.2204   -0.0971   20.0029 C.3     1  UNL1        0.0044
     42 C           8.5250    1.3772   17.8856 C.3     1  UNL1        0.0044
@<TRIPOS>BOND
     1    32    33    1
     2    33    30    1
     3    30    31    2
     4     1    30    1
     5     1     2    1
     6     2     3    1
     7     4     3    1
     8     4     5    1
     9     5     6    1
    10     6     7    1
    11     6     8    1
    12     8     9    1
    13     5    10    1
    14    10    11    1
    15    10    12    1
    16    12    13    1
    17    13    14    2
    18    13    15    1
    19    15    16    1
    20    15    17    2
    21    17    18    1
    22    17    19    1
    23    19    20    1
    24    21    20    1
    25    21    22    1
    26    22    23    1
    27    23    24    2
    28    23    25    1
    29    25    34    1
    30    34    35    1
    31    35    36    2
    32    35    37    1
    33    37    38    2
    34    38    39    1
    35    38    40    1
    36    40    41    1
    37    40    42    1
    38    26    25    1
    39     8     1    1
    40    19    10    1
    41    26     1    1
    42    21     4    1
    43    26     4    1
    44     7    27    1
    45     9    28    1
    46    16    29    1
@<TRIPOS>MOLECULE
*****
 42 46 0 0 0
SMALL
GASTEIGER

@<TRIPOS>ATOM
      1 C           3.1211   -0.0010   26.0804 C.3     1  UNL1        0.2118
      2 O           2.9066    0.2158   24.8174 O.3     1  UNL1       -0.3453
      3 C           2.9350    0.1872   24.9841 C.3     1  UNL1        0.1464
      4 C           2.7205    0.4040   23.7211 C.3     1  UNL1        0.0733
      5 C           3.4657   -0.8845   23.5348 C.3     1  UNL1        0.0361
      6 C           4.0476   -1.7704   24.4188 C.3     1  UNL1        0.1402
      7 O           4.7839   -3.0520   24.1629 O.3     1  UNL1       -0.3819
      8 C           3.8573   -1.2826   25.8245 C.3     1  UNL1        0.1724
      9 O           4.4033   -2.0763   26.9742 O.3     1  UNL1       -0.3792
     10 C           3.6905   -1.4280   22.1549 C.3     1  UNL1        0.0136
     11 C           4.2108   -2.1729   23.3484 C.3     1  UNL1        0.0008
     12 C           4.4356   -2.7164   21.9685 C.3     1  UNL1        0.0727
     13 C           4.6604   -3.2600   20.5887 C.2     1  UNL1        0.2057
     14 O           5.4055   -4.5484   20.4023 O.2     1  UNL1       -0.2881
     15 C           4.1402   -2.5151   19.3952 C.2     1  UNL1        0.1603
     16 O           4.3650   -3.0586   18.0153 O.2     1  UNL1       -0.5034
     17 C           3.3950   -1.2266   19.5815 C.2     1  UNL1       -0.0076
     18 C           2.8748   -0.4817   18.3881 C.3     1  UNL1        0.0296
     19 C           3.1702   -0.6831   20.9614 C.3     1  UNL1        0.0254
     20 C           2.4251    0.6053   21.1478 C.3     1  UNL1        0.0478
     21 C           2.2003    1.1489   22.5276 C.3     1  UNL1        0.1717
     22 O           1.4551    2.4374   22.7140 O.3     1  UNL1       -0.4497
     23 C           1.2303    2.9809   24.0938 C.2     1  UNL1        0.3577
     24 O           0.4852    4.2693   24.2802 O.2     1  UNL1       -0.2461
     25 C           1.7506    2.2359   25.2874 C.3     1  UNL1        0.2695
     26 C           2.4957    0.9475   25.1010 C.3     1  UNL1        0.0949
     27 H           5.0679   -3.4359   25.0072 H       1  UNL1        0.2104
     28 H           4.8472   -2.8702   26.6371 H       1  UNL1        0.2106
     29 H           4.8305   -3.8635   17.8989 H       1  UNL1        0.2923
     30 C           3.1330    0.1532   27.5724 C.2     1  UNL1        0.3442
     31 O           3.9784    1.2156   28.2099 O.2     1  UNL1       -0.2474
     32 C           2.3504   -0.6347   29.9212 C.3     1  UNL1        0.2557
     33 O           2.2994   -0.7551   28.4269 O.3     1  UNL1       -0.4428
     34 O           1.5258    2.7795   26.6672 O.3     1  UNL1       -0.4375
     35 C           0.2912    2.4008   27.4305 C.2     1  UNL1        0.3412
     36 O           0.3997    1.9552   28.8587 O.2     1  UNL1       -0.2449
     37 C          -1.0517    2.4677   26.7656 C.2     1  UNL1        0.0734
     38 C          -1.7975    3.7679   26.7109 C.2     1  UNL1       -0.0378
     39 C          -1.2005    5.0012   27.3211 C.3     1  UNL1        0.0266
     40 C          -3.1405    3.8348   26.0460 C.3     1  UNL1        0.0185
     41 C          -3.2714    3.5154   24.5863 C.3     1  UNL1        0.0044
     42 C          -4.3525    4.2211   26.8408 C.3     1  UNL1        0.0044
@<TRIPOS>BOND
     1    32    33    1
     2    33    30    1
     3    30    31    2
     4     1    30    1
     5     1     2    1
     6     2     3    1
     7     4     3    1
     8     4     5    1
     9     5     6    1
    10     6     7    1
    11     6     8    1
    12     8     9    1
    13     5    10    1
    14    10    11    1
    15    10    12    1
    16    12    13    1
    17    13    14    2
    18    13    15    1
    19    15    16    1
    20    15    17    2
    21    17    18    1
    22    17    19    1
    23    19    20    1
    24    21    20    1
    25    21    22    1
    26    22    23    1
    27    23    24    2
    28    23    25    1
    29    25    34    1
    30    34    35    1
    31    35    36    2
    32    35    37    1
    33    37    38    2
    34    38    39    1
    35    38    40    1
    36    40    41    1
    37    40    42    1
    38    26    25    1
    39     8     1    1
    40    19    10    1
    41    26     1    1
    42    21     4    1
    43    26     4    1
    44     7    27    1
    45     9    28    1
    46    16    29    1
@<TRIPOS>MOLECULE
*****
 42 46 0 0 0
SMALL
GASTEIGER

@<TRIPOS>ATOM
      1 C           5.9381   -2.8760   31.0023 C.3     1  UNL1        0.2118
      2 O           6.0795   -2.8882   29.7108 O.3     1  UNL1       -0.3453
      3 C           6.0608   -2.8866   29.8813 C.3     1  UNL1        0.1464
      4 C           6.2022   -2.8989   28.5898 C.3     1  UNL1        0.0733
      5 C           6.6945   -4.2979   28.8147 C.3     1  UNL1        0.0361
      6 C           6.8577   -5.0661   29.9498 C.3     1  UNL1        0.1402
      7 O           7.3596   -6.4711   30.1052 O.3     1  UNL1       -0.3819
      8 C           6.4400   -4.2809   31.1578 C.3     1  UNL1        0.1724
      9 O           6.5243   -4.9008   32.5210 O.3     1  UNL1       -0.3792
     10 C           7.1275   -5.1371   27.6493 C.3     1  UNL1        0.0136
     11 C           7.1868   -5.6968   29.0396 C.3     1  UNL1        0.0008
     12 C           7.6198   -6.5360   27.8742 C.3     1  UNL1        0.0727
     13 C           8.0529   -7.3751   26.7087 C.2     1  UNL1        0.2057
     14 O           8.5452   -8.7741   26.9336 O.2     1  UNL1       -0.2881
     15 C           7.9937   -6.8154   25.3184 C.2     1  UNL1        0.1603
     16 O           8.4267   -7.6546   24.1530 O.2     1  UNL1       -0.5034
     17 C           7.5014   -5.4164   25.0934 C.2     1  UNL1       -0.0076
     18 C           7.4421   -4.8566   23.7031 C.3     1  UNL1        0.0296
     19 C           7.0683   -4.5772   26.2589 C.3     1  UNL1        0.0254
     20 C           6.5760   -3.1783   26.0340 C.3     1  UNL1        0.0478
     21 C           6.1430   -2.3391   27.1994 C.3     1  UNL1        0.1717
     22 O           5.6507   -0.9402   26.9745 O.3     1  UNL1       -0.4497
     23 C           5.2176   -0.1010   28.1399 C.2     1  UNL1        0.3577
     24 O           4.7253    1.2979   27.9150 O.2     1  UNL1       -0.2461
     25 C           5.2768   -0.6608   29.5303 C.3     1  UNL1        0.2695
     26 C           5.7691   -2.0597   29.7552 C.3     1  UNL1        0.0949
     27 H           7.3504   -6.7158   31.0437 H       1  UNL1        0.2104
     28 H           6.8661   -5.8053   32.4444 H       1  UNL1        0.2106
     29 H           8.7342   -8.5284   24.2935 H       1  UNL1        0.2923
     30 C           5.6247   -2.4273   32.3989 C.2     1  UNL1        0.3442
     31 O           4.2772   -2.7117   32.9933 O.2     1  UNL1       -0.2474
     32 C           6.2613   -0.5144   34.0378 C.3     1  UNL1        0.2557
     33 O           6.6587   -1.6943   33.2010 O.3     1  UNL1       -0.4428
     34 O           4.8438    0.1783   30.6958 O.3     1  UNL1       -0.4375
     35 C           3.4155    0.1466   31.1532 C.2     1  UNL1        0.3412
     36 O           3.0789    0.4523   32.5826 O.2     1  UNL1       -0.2449
     37 C           2.3240   -0.1909   30.1812 C.2     1  UNL1        0.0734
     38 C           1.5416    0.9057   29.5217 C.2     1  UNL1       -0.0378
     39 C           1.8506    2.3399   29.8342 C.3     1  UNL1        0.0266
     40 C           0.4501    0.5682   28.5498 C.3     1  UNL1        0.0185
     41 C           0.4627    1.1614   27.1721 C.3     1  UNL1        0.0044
     42 C          -0.6541   -0.3625   28.9554 C.3     1  UNL1        0.0044
@<TRIPOS>BOND
     1    32    33    1
     2    33    30    1
     3    30    31    2
     4     1    30    1
     5     1     2    1
     6     2     3    1
     7     4     3    1
     8     4     5    1
     9     5     6    1
    10     6     7    1
    11     6     8    1
    12     8     9    1
    13     5    10    1
    14    10    11    1
    15    10    12    1
    16    12    13    1
    17    13    14    2
    18    13    15    1
    19    15    16    1
    20    15    17    2
    21    17    18    1
    22    17    19    1
    23    19    20    1
    24    21    20    1
    25    21    22    1
    26    22    23    1
    27    23    24    2
    28    23    25    1
    29    25    34    1
    30    34    35    1
    31    35    36    2
    32    35    37    1
    33    37    38    2
    34    38    39    1
    35    38    40    1
    36    40    41    1
    37    40    42    1
    38    26    25    1
    39     8     1    1
    40    19    10    1
    41    26     1    1
    42    21     4    1
    43    26     4    1
    44     7    27    1
    45     9    28    1
    46    16    29    1
@<TRIPOS>MOLECULE
*****
 42 46 0 0 0
SMALL
GASTEIGER

@<TRIPOS>ATOM
      1 C           5.5739   -2.0742   24.9119 C.3     1  UNL1        0.2118
      2 O           6.2616   -3.1022   25.3100 O.3     1  UNL1       -0.3453
      3 C           6.1708   -2.9665   25.2574 C.3     1  UNL1        0.1464
      4 C           6.8585   -3.9944   25.6555 C.3     1  UNL1        0.0733
      5 C           6.4901   -3.5115   27.0271 C.3     1  UNL1        0.0361
      6 C           5.7474   -2.4391   27.4783 C.3     1  UNL1        0.1402
      7 O           5.4151   -2.0104   28.8769 O.3     1  UNL1       -0.3819
      8 C           5.2415   -1.6455   26.3103 C.3     1  UNL1        0.1724
      9 O           4.4033   -0.4232   26.5409 O.3     1  UNL1       -0.3792
     10 C           6.9637   -4.2595   28.2379 C.3     1  UNL1        0.0136
     11 C           6.1217   -3.0286   28.3986 C.3     1  UNL1        0.0008
     12 C           6.5953   -3.7767   29.6094 C.3     1  UNL1        0.0727
     13 C           7.0690   -4.5247   30.8203 C.2     1  UNL1        0.2057
     14 O           6.7006   -4.0418   32.1918 O.2     1  UNL1       -0.2881
     15 C           7.9110   -5.7556   30.6596 C.2     1  UNL1        0.1603
     16 O           8.3846   -6.5036   31.8705 O.2     1  UNL1       -0.5034
     17 C           8.2794   -6.2385   29.2881 C.2     1  UNL1       -0.0076
     18 C           9.1215   -7.4694   29.1274 C.3     1  UNL1        0.0296
     19 C           7.8058   -5.4905   28.0772 C.3     1  UNL1        0.0254
     20 C           8.1742   -5.9733   26.7057 C.3     1  UNL1        0.0478
     21 C           7.7006   -5.2253   25.4949 C.3     1  UNL1        0.1717
     22 O           8.0690   -5.7082   24.1233 O.3     1  UNL1       -0.4497
     23 C           7.5954   -4.9602   22.9125 C.2     1  UNL1        0.3577
     24 O           7.9638   -5.4431   21.5410 O.2     1  UNL1       -0.2461
     25 C           6.7533   -3.7293   23.0732 C.3     1  UNL1        0.2695
     26 C           6.3849   -3.2464   24.4447 C.3     1  UNL1        0.0949
     27 H           4.8703   -1.2084   28.8483 H       1  UNL1        0.2104
     28 H           4.2837   -0.2882   27.4940 H       1  UNL1        0.2106
     29 H           8.1545   -6.2019   32.7272 H       1  UNL1        0.2923
     30 C           4.9075   -1.0571   24.0336 C.2     1  UNL1        0.3442
     31 O           5.7289   -0.0091   23.3431 O.2     1  UNL1       -0.2474
     32 C           2.7302    0.0367   23.1317 C.3     1  UNL1        0.2557
     33 O           3.4196   -1.0879   23.8459 O.3     1  UNL1       -0.4428
     34 O           6.2797   -2.9812   21.8623 O.3     1  UNL1       -0.4375
     35 C           4.9542   -3.3160   21.2449 C.2     1  UNL1        0.3412
     36 O           4.4039   -4.7068   21.3583 O.2     1  UNL1       -0.2449
     37 C           4.1792   -2.2600   20.5140 C.2     1  UNL1        0.0734
     38 C           4.3556   -2.0894   19.0342 C.2     1  UNL1       -0.0378
     39 C           5.3070   -2.9748   18.2854 C.3     1  UNL1        0.0266
     40 C           3.5806   -1.0334   18.3034 C.3     1  UNL1        0.0185
     41 C           3.7919   -0.8312   16.8322 C.3     1  UNL1        0.0044
     42 C           2.5942   -0.1796   19.0436 C.3     1  UNL1        0.0044
@<TRIPOS>BOND
     1    32    33    1
     2    33    30    1
     3    30    31    2
     4     1    30    1
     5     1     2    1
     6     2     3    1
     7     4     3    1
     8     4     5    1
     9     5     6    1
    10     6     7    1
    11     6     8    1
    12     8     9    1
    13     5    10    1
    14    10    11    1
    15    10    12    1
    16    12    13    1
    17    13    14    2
    18    13    15    1
    19    15    16    1
    20    15    17    2
    21    17    18    1
    22    17    19    1
    23    19    20    1
    24    21    20    1
    25    21    22    1
    26    22    23    1
    27    23    24    2
    28    23    25    1
    29    25    34    1
    30    34    35    1
    31    35    36    2
    32    35    37    1
    33    37    38    2
    34    38    39    1
    35    38    40    1
    36    40    41    1
    37    40    42    1
    38    26    25    1
    39     8     1    1
    40    19    10    1
    41    26     1    1
    42    21     4    1
    43    26     4    1
    44     7    27    1
    45     9    28    1
    46    16    29    1
@<TRIPOS>MOLECULE
*****
 42 46 0 0 0
SMALL
GASTEIGER

@<TRIPOS>ATOM
      1 C           3.4305   -0.3006   26.3990 C.3     1  UNL1        0.2118
      2 O           3.0838   -0.0395   25.1744 O.3     1  UNL1       -0.3453
      3 C           3.1295   -0.0740   25.3360 C.3     1  UNL1        0.1464
      4 C           2.7828    0.1871   24.1114 C.3     1  UNL1        0.0733
      5 C           3.5707   -1.0485   23.7912 C.3     1  UNL1        0.0361
      6 C           4.2799   -1.9397   24.5709 C.3     1  UNL1        0.1402
      7 O           5.0519   -3.1659   24.1827 O.3     1  UNL1       -0.3819
      8 C           4.2025   -1.5267   26.0109 C.3     1  UNL1        0.1724
      9 O           4.8971   -2.3399   27.0626 O.3     1  UNL1       -0.3792
     10 C           3.6878   -1.5163   22.3708 C.3     1  UNL1        0.0136
     11 C           4.3586   -2.2841   23.4710 C.3     1  UNL1        0.0008
     12 C           4.4756   -2.7519   22.0507 C.3     1  UNL1        0.0727
     13 C           4.5927   -3.2197   20.6303 C.2     1  UNL1        0.2057
     14 O           5.3806   -4.4553   20.3101 O.2     1  UNL1       -0.2881
     15 C           3.9220   -2.4519   19.5301 C.2     1  UNL1        0.1603
     16 O           4.0390   -2.9196   18.1097 O.2     1  UNL1       -0.5034
     17 C           3.1340   -1.2162   19.8502 C.2     1  UNL1       -0.0076
     18 C           2.4633   -0.4484   18.7500 C.3     1  UNL1        0.0296
     19 C           3.0170   -0.7484   21.2706 C.3     1  UNL1        0.0254
     20 C           2.2291    0.4872   21.5908 C.3     1  UNL1        0.0478
     21 C           2.1120    0.9549   23.0112 C.3     1  UNL1        0.1717
     22 O           1.3241    2.1906   23.3313 O.3     1  UNL1       -0.4497
     23 C           1.2070    2.6584   24.7517 C.2     1  UNL1        0.3577
     24 O           0.4192    3.8940   25.0719 O.2     1  UNL1       -0.2461
     25 C           1.8779    1.8905   25.8519 C.3     1  UNL1        0.2695
     26 C           2.6657    0.6549   25.5317 C.3     1  UNL1        0.0949
     27 H           5.4356   -3.5711   24.9761 H       1  UNL1        0.2104
     28 H           5.3458   -3.0921   26.6458 H       1  UNL1        0.2106
     29 H           4.5312   -3.6915   17.9097 H       1  UNL1        0.2923
     30 C           3.5794   -0.2132   27.8890 C.2     1  UNL1        0.3442
     31 O           4.7097    0.5723   28.4850 O.2     1  UNL1       -0.2474
     32 C           2.7106   -0.7739   30.2725 C.3     1  UNL1        0.2557
     33 O           2.5979   -0.9112   28.7831 O.3     1  UNL1       -0.4428
     34 O           1.7608    2.3583   27.2723 O.3     1  UNL1       -0.4375
     35 C           0.5480    2.0042   28.0810 C.2     1  UNL1        0.3412
     36 O          -0.7306    1.6308   27.3912 O.2     1  UNL1       -0.2449
     37 C           0.6138    2.0236   29.5794 C.2     1  UNL1        0.0734
     38 C           0.6106    3.3317   30.3134 C.2     1  UNL1       -0.0378
     39 C           0.5414    4.6204   29.5490 C.3     1  UNL1        0.0266
     40 C           0.6764    3.3511   31.8118 C.3     1  UNL1        0.0185
     41 C           1.4135    2.2693   32.5442 C.3     1  UNL1        0.0044
     42 C           0.0052    4.4523   32.5779 C.3     1  UNL1        0.0044
@<TRIPOS>BOND
     1    32    33    1
     2    33    30    1
     3    30    31    2
     4     1    30    1
     5     1     2    1
     6     2     3    1
     7     4     3    1
     8     4     5    1
     9     5     6    1
    10     6     7    1
    11     6     8    1
    12     8     9    1
    13     5    10    1
    14    10    11    1
    15    10    12    1
    16    12    13    1
    17    13    14    2
    18    13    15    1
    19    15    16    1
    20    15    17    2
    21    17    18    1
    22    17    19    1
    23    19    20    1
    24    21    20    1
    25    21    22    1
    26    22    23    1
    27    23    24    2
    28    23    25    1
    29    25    34    1
    30    34    35    1
    31    35    36    2
    32    35    37    1
    33    37    38    2
    34    38    39    1
    35    38    40    1
    36    40    41    1
    37    40    42    1
    38    26    25    1
    39     8     1    1
    40    19    10    1
    41    26     1    1
    42    21     4    1
    43    26     4    1
    44     7    27    1
    45     9    28    1
    46    16    29    1
@<TRIPOS>MOLECULE
*****
 42 46 0 0 0
SMALL
GASTEIGER

@<TRIPOS>ATOM
      1 C           6.0165   -2.8486   31.0912 C.3     1  UNL1        0.2118
      2 O           6.0720   -2.7440   29.7974 O.3     1  UNL1       -0.3453
      3 C           6.0647   -2.7579   29.9681 C.3     1  UNL1        0.1464
      4 C           6.1202   -2.6532   28.6743 C.3     1  UNL1        0.0733
      5 C           6.6194   -4.0663   28.7390 C.3     1  UNL1        0.0361
      6 C           6.8535   -4.9338   29.7867 C.3     1  UNL1        0.1402
      7 O           7.3576   -6.3465   29.7811 O.3     1  UNL1       -0.3819
      8 C           6.5206   -4.2614   31.0856 C.3     1  UNL1        0.1724
      9 O           6.6918   -5.0018   32.3788 O.3     1  UNL1       -0.3792
     10 C           6.9702   -4.7963   27.4764 C.3     1  UNL1        0.0136
     11 C           7.1186   -5.4793   28.8036 C.3     1  UNL1        0.0008
     12 C           7.4694   -6.2093   27.5410 C.3     1  UNL1        0.0727
     13 C           7.8202   -6.9393   26.2785 C.2     1  UNL1        0.2057
     14 O           8.3194   -8.3523   26.3431 O.2     1  UNL1       -0.2881
     15 C           7.6719   -6.2563   24.9513 C.2     1  UNL1        0.1603
     16 O           8.0228   -6.9863   23.6888 O.2     1  UNL1       -0.5034
     17 C           7.1727   -4.8432   24.8866 C.2     1  UNL1       -0.0076
     18 C           7.0244   -4.1602   23.5594 C.3     1  UNL1        0.0296
     19 C           6.8219   -4.1132   26.1492 C.3     1  UNL1        0.0254
     20 C           6.3228   -2.7002   26.0845 C.3     1  UNL1        0.0478
     21 C           5.9719   -1.9702   27.3471 C.3     1  UNL1        0.1717
     22 O           5.4727   -0.5572   27.2824 O.3     1  UNL1       -0.4497
     23 C           5.1219    0.1728   28.5450 C.2     1  UNL1        0.3577
     24 O           4.6228    1.5858   28.4803 O.2     1  UNL1       -0.2461
     25 C           5.2702   -0.5103   29.8722 C.3     1  UNL1        0.2695
     26 C           5.7694   -1.9233   29.9368 C.3     1  UNL1        0.0949
     27 H           7.4094   -6.6750   30.6923 H       1  UNL1        0.2104
     28 H           7.0233   -5.8953   32.1984 H       1  UNL1        0.2106
     29 H           8.3346   -7.8690   23.7291 H       1  UNL1        0.2923
     30 C           5.7984   -2.5283   32.5403 C.2     1  UNL1        0.3442
     31 O           4.5387   -2.9699   33.2246 O.2     1  UNL1       -0.2474
     32 C           6.4419   -0.5895   34.1457 C.3     1  UNL1        0.2557
     33 O           6.8398   -1.7664   33.3050 O.3     1  UNL1       -0.4428
     34 O           4.9194    0.2197   31.1347 O.3     1  UNL1       -0.4375
     35 C           3.5559    0.0600   31.7393 C.2     1  UNL1        0.3412
     36 O           2.6220   -0.9908   31.2162 O.2     1  UNL1       -0.2449
     37 C           3.1264    0.9510   32.8669 C.2     1  UNL1        0.0734
     38 C           2.2979    2.1695   32.5861 C.2     1  UNL1       -0.0378
     39 C           1.8990    2.4970   31.1778 C.3     1  UNL1        0.0266
     40 C           1.8684    3.0606   33.7138 C.3     1  UNL1        0.0185
     41 C           2.4026    2.8309   35.0964 C.3     1  UNL1        0.0044
     42 C           0.9046    4.1813   33.4587 C.3     1  UNL1        0.0044
@<TRIPOS>BOND
     1    32    33    1
     2    33    30    1
     3    30    31    2
     4     1    30    1
     5     1     2    1
     6     2     3    1
     7     4     3    1
     8     4     5    1
     9     5     6    1
    10     6     7    1
    11     6     8    1
    12     8     9    1
    13     5    10    1
    14    10    11    1
    15    10    12    1
    16    12    13    1
    17    13    14    2
    18    13    15    1
    19    15    16    1
    20    15    17    2
    21    17    18    1
    22    17    19    1
    23    19    20    1
    24    21    20    1
    25    21    22    1
    26    22    23    1
    27    23    24    2
    28    23    25    1
    29    25    34    1
    30    34    35    1
    31    35    36    2
    32    35    37    1
    33    37    38    2
    34    38    39    1
    35    38    40    1
    36    40    41    1
    37    40    42    1
    38    26    25    1
    39     8     1    1
    40    19    10    1
    41    26     1    1
    42    21     4    1
    43    26     4    1
    44     7    27    1
    45     9    28    1
    46    16    29    1
@<TRIPOS>MOLECULE
*****
 42 46 0 0 0
SMALL
GASTEIGER

@<TRIPOS>ATOM
      1 C           5.0027   -2.9327   20.4921 C.3     1  UNL1        0.2118
      2 O           4.4784   -2.2957   21.4959 O.3     1  UNL1       -0.3453
      3 C           4.5476   -2.3798   21.3634 C.3     1  UNL1        0.1464
      4 C           4.0234   -1.7429   22.3672 C.3     1  UNL1        0.0733
      5 C           5.0537   -2.4803   23.1702 C.3     1  UNL1        0.0361
      6 C           6.0365   -3.3884   22.8317 C.3     1  UNL1        0.1402
      7 O           7.0421   -4.0939   23.6925 O.3     1  UNL1       -0.3819
      8 C           6.0083   -3.6382   21.3528 C.3     1  UNL1        0.1724
      9 O           6.9858   -4.5935   20.7349 O.3     1  UNL1       -0.3792
     10 C           5.1356   -2.2758   24.6539 C.3     1  UNL1        0.0136
     11 C           6.0839   -3.2177   23.9732 C.3     1  UNL1        0.0008
     12 C           6.1658   -3.0132   25.4569 C.3     1  UNL1        0.0727
     13 C           6.2477   -2.8087   26.9406 C.2     1  UNL1        0.2057
     14 O           7.2779   -3.5460   27.7436 O.2     1  UNL1       -0.2881
     15 C           5.2993   -1.8668   27.6214 C.2     1  UNL1        0.1603
     16 O           5.3812   -1.6623   29.1051 O.2     1  UNL1       -0.5034
     17 C           4.2690   -1.1293   26.8184 C.2     1  UNL1       -0.0076
     18 C           3.3207   -0.1875   27.4991 C.3     1  UNL1        0.0296
     19 C           4.1871   -1.3338   25.3346 C.3     1  UNL1        0.0254
     20 C           3.1569   -0.5965   24.5316 C.3     1  UNL1        0.0478
     21 C           3.0750   -0.8010   23.0479 C.3     1  UNL1        0.1717
     22 O           2.0447   -0.0635   22.2449 O.3     1  UNL1       -0.4497
     23 C           1.9629   -0.2680   20.7612 C.2     1  UNL1        0.3577
     24 O           0.9326    0.4693   19.9582 O.2     1  UNL1       -0.2461
     25 C           2.9113   -1.2100   20.0804 C.3     1  UNL1        0.2695
     26 C           3.9415   -1.9474   20.8834 C.3     1  UNL1        0.0949
     27 H           7.5930   -4.6702   23.1400 H       1  UNL1        0.2104
     28 H           7.5603   -4.9598   21.4253 H       1  UNL1        0.2106
     29 H           6.0248   -2.1229   29.6067 H       1  UNL1        0.2923
     30 C           5.2778   -3.4267   19.1028 C.2     1  UNL1        0.3442
     31 O           6.2752   -2.7152   18.2375 O.2     1  UNL1       -0.2474
     32 C           3.2064   -4.9950   19.1254 C.3     1  UNL1        0.2557
     33 O           4.5554   -4.6324   18.5788 O.3     1  UNL1       -0.4428
     34 O           2.8294   -1.4145   18.5967 O.3     1  UNL1       -0.4375
     35 C           3.5256   -0.4633   17.6690 C.2     1  UNL1        0.3412
     36 O           4.1071   -0.9635   16.3799 O.2     1  UNL1       -0.2449
     37 C           3.6404    0.9879   18.0304 C.2     1  UNL1        0.0734
     38 C           4.8868    1.5005   18.6889 C.2     1  UNL1       -0.0378
     39 C           6.0184    0.5619   18.9861 C.3     1  UNL1        0.0266
     40 C           5.0016    2.9518   19.0503 C.3     1  UNL1        0.0185
     41 C           3.8221    3.8627   18.8801 C.3     1  UNL1        0.0044
     42 C           6.2959    3.4922   19.5819 C.3     1  UNL1        0.0044
@<TRIPOS>BOND
     1    32    33    1
     2    33    30    1
     3    30    31    2
     4     1    30    1
     5     1     2    1
     6     2     3    1
     7     4     3    1
     8     4     5    1
     9     5     6    1
    10     6     7    1
    11     6     8    1
    12     8     9    1
    13     5    10    1
    14    10    11    1
    15    10    12    1
    16    12    13    1
    17    13    14    2
    18    13    15    1
    19    15    16    1
    20    15    17    2
    21    17    18    1
    22    17    19    1
    23    19    20    1
    24    21    20    1
    25    21    22    1
    26    22    23    1
    27    23    24    2
    28    23    25    1
    29    25    34    1
    30    34    35    1
    31    35    36    2
    32    35    37    1
    33    37    38    2
    34    38    39    1
    35    38    40    1
    36    40    41    1
    37    40    42    1
    38    26    25    1
    39     8     1    1
    40    19    10    1
    41    26     1    1
    42    21     4    1
    43    26     4    1
    44     7    27    1
    45     9    28    1
    46    16    29    1
@<TRIPOS>MOLECULE
*****
 42 46 0 0 0
SMALL
GASTEIGER

@<TRIPOS>ATOM
      1 C           5.2944   -1.6800   27.1417 C.3     1  UNL1        0.2118
      2 O           4.5583   -1.3372   26.1274 O.3     1  UNL1       -0.3453
      3 C           4.6555   -1.3825   26.2612 C.3     1  UNL1        0.1464
      4 C           3.9194   -1.0396   25.2469 C.3     1  UNL1        0.0733
      5 C           4.7637   -2.0297   24.5005 C.3     1  UNL1        0.0361
      6 C           5.8087   -2.8482   24.8788 C.3     1  UNL1        0.1402
      7 O           6.6161   -3.8234   24.0742 O.3     1  UNL1       -0.3819
      8 C           6.1018   -2.6551   26.3372 C.3     1  UNL1        0.1724
      9 O           7.2021   -3.4372   26.9909 O.3     1  UNL1       -0.3792
     10 C           4.5227   -2.2702   23.0397 C.3     1  UNL1        0.0136
     11 C           5.6080   -3.0197   23.7541 C.3     1  UNL1        0.0008
     12 C           5.3670   -3.2601   22.2933 C.3     1  UNL1        0.0727
     13 C           5.1260   -3.5006   20.8324 C.2     1  UNL1        0.2057
     14 O           5.9702   -4.4906   20.0860 O.2     1  UNL1       -0.2881
     15 C           4.0408   -2.7511   20.1180 C.2     1  UNL1        0.1603
     16 O           3.7998   -2.9916   18.6571 O.2     1  UNL1       -0.5034
     17 C           3.1965   -1.7611   20.8644 C.2     1  UNL1       -0.0076
     18 C           2.1113   -1.0116   20.1499 C.3     1  UNL1        0.0296
     19 C           3.4375   -1.5206   22.3252 C.3     1  UNL1        0.0254
     20 C           2.5932   -0.5306   23.0716 C.3     1  UNL1        0.0478
     21 C           2.8342   -0.2901   24.5325 C.3     1  UNL1        0.1717
     22 O           1.9899    0.6999   25.2789 O.3     1  UNL1       -0.4497
     23 C           2.2309    0.9404   26.7397 C.2     1  UNL1        0.3577
     24 O           1.3867    1.9304   27.4861 O.2     1  UNL1       -0.2461
     25 C           3.3162    0.1908   27.4542 C.3     1  UNL1        0.2695
     26 C           4.1604   -0.7992   26.7078 C.3     1  UNL1        0.0949
     27 H           7.2806   -4.2409   24.6442 H       1  UNL1        0.2104
     28 H           7.6203   -4.0170   26.3353 H       1  UNL1        0.2106
     29 H           4.3272   -3.6100   18.1909 H       1  UNL1        0.2923
     30 C           5.8678   -1.7617   28.5253 C.2     1  UNL1        0.3442
     31 O           5.8067   -3.0521   29.2876 O.2     1  UNL1       -0.2474
     32 C           7.1891   -0.6657   30.4755 C.3     1  UNL1        0.2557
     33 O           6.5023   -0.5529   29.1467 O.3     1  UNL1       -0.4428
     34 O           3.5572    0.4313   28.9151 O.3     1  UNL1       -0.4375
     35 C           2.7250   -0.2813   29.9397 C.2     1  UNL1        0.3412
     36 O           1.2301   -0.1631   29.9058 O.2     1  UNL1       -0.2449
     37 C           3.3879   -1.1120   30.9982 C.2     1  UNL1        0.0734
     38 C           3.8345   -0.4755   32.2809 C.2     1  UNL1       -0.0378
     39 C           3.6182    0.9917   32.5051 C.3     1  UNL1        0.0266
     40 C           4.4974   -1.3063   33.3394 C.3     1  UNL1        0.0185
     41 C           4.5870   -0.7956   34.7469 C.3     1  UNL1        0.0044
     42 C           5.0706   -2.6477   32.9905 C.3     1  UNL1        0.0044
@<TRIPOS>BOND
     1    32    33    1
     2    33    30    1
     3    30    31    2
     4     1    30    1
     5     1     2    1
     6     2     3    1
     7     4     3    1
     8     4     5    1
     9     5     6    1
    10     6     7    1
    11     6     8    1
    12     8     9    1
    13     5    10    1
    14    10    11    1
    15    10    12    1
    16    12    13    1
    17    13    14    2
    18    13    15    1
    19    15    16    1
    20    15    17    2
    21    17    18    1
    22    17    19    1
    23    19    20    1
    24    21    20    1
    25    21    22    1
    26    22    23    1
    27    23    24    2
    28    23    25    1
    29    25    34    1
    30    34    35    1
    31    35    36    2
    32    35    37    1
    33    37    38    2
    34    38    39    1
    35    38    40    1
    36    40    41    1
    37    40    42    1
    38    26    25    1
    39     8     1    1
    40    19    10    1
    41    26     1    1
    42    21     4    1
    43    26     4    1
    44     7    27    1
    45     9    28    1
    46    16    29    1
@<TRIPOS>MOLECULE
*****
 42 46 0 0 0
SMALL
GASTEIGER

@<TRIPOS>ATOM
      1 C           3.7778   -1.8275   21.4994 C.3     1  UNL1        0.2118
      2 O           3.2624   -1.1386   22.4729 O.3     1  UNL1       -0.3453
      3 C           3.3304   -1.2295   22.3445 C.3     1  UNL1        0.1464
      4 C           2.8151   -0.5405   23.3180 C.3     1  UNL1        0.0733
      5 C           3.8646   -1.2212   24.1459 C.3     1  UNL1        0.0361
      6 C           4.8511   -2.1384   23.8449 C.3     1  UNL1        0.1402
      7 O           5.8765   -2.7840   24.7291 O.3     1  UNL1       -0.3819
      8 C           4.8032   -2.4732   22.3835 C.3     1  UNL1        0.1724
      9 O           5.7806   -3.4537   21.8063 O.3     1  UNL1       -0.3792
     10 C           3.9668   -0.9308   25.6140 C.3     1  UNL1        0.0136
     11 C           4.9140   -1.9017   24.9738 C.3     1  UNL1        0.0008
     12 C           5.0162   -1.6113   26.4419 C.3     1  UNL1        0.0727
     13 C           5.1184   -1.3209   27.9100 C.2     1  UNL1        0.2057
     14 O           6.1678   -2.0015   28.7379 O.2     1  UNL1       -0.2881
     15 C           4.1711   -0.3500   28.5501 C.2     1  UNL1        0.1603
     16 O           4.2733   -0.0596   30.0182 O.2     1  UNL1       -0.5034
     17 C           3.1216    0.3306   27.7222 C.2     1  UNL1       -0.0076
     18 C           2.1743    1.3016   28.3624 C.3     1  UNL1        0.0296
     19 C           3.0194    0.0402   26.2542 C.3     1  UNL1        0.0254
     20 C           1.9700    0.7208   25.4263 C.3     1  UNL1        0.0478
     21 C           1.8678    0.4304   23.9582 C.3     1  UNL1        0.1717
     22 O           0.8183    1.1110   23.1303 O.3     1  UNL1       -0.4497
     23 C           0.7161    0.8207   21.6622 C.2     1  UNL1        0.3577
     24 O          -0.3333    1.5012   20.8343 O.2     1  UNL1       -0.2461
     25 C           1.6635   -0.1504   21.0220 C.3     1  UNL1        0.2695
     26 C           2.7129   -0.8309   21.8499 C.3     1  UNL1        0.0949
     27 H           6.4248   -3.3862   24.2021 H       1  UNL1        0.2104
     28 H           6.3691   -3.7744   22.5075 H       1  UNL1        0.2106
     29 H           4.9288   -0.4847   30.5354 H       1  UNL1        0.2923
     30 C           4.0368   -2.3984   20.1367 C.2     1  UNL1        0.3442
     31 O           5.2913   -2.0367   19.3981 O.2     1  UNL1       -0.2474
     32 C           3.4099   -4.7631   19.2617 C.3     1  UNL1        0.2557
     33 O           3.0414   -3.3308   19.5124 O.3     1  UNL1       -0.4428
     34 O           1.5613   -0.4408   19.5540 O.3     1  UNL1       -0.4375
     35 C           2.0362    0.5718   18.5543 C.2     1  UNL1        0.3412
     36 O           1.1226    1.6772   18.1145 O.2     1  UNL1       -0.2449
     37 C           3.4248    0.4790   17.9945 C.2     1  UNL1        0.0734
     38 C           4.5433    1.2489   18.6317 C.2     1  UNL1       -0.0378
     39 C           4.2733    2.1117   19.8286 C.3     1  UNL1        0.0266
     40 C           5.9318    1.1561   18.0719 C.3     1  UNL1        0.0185
     41 C           6.1358    0.8281   16.6225 C.3     1  UNL1        0.0044
     42 C           7.1164    1.3911   18.9615 C.3     1  UNL1        0.0044
@<TRIPOS>BOND
     1    32    33    1
     2    33    30    1
     3    30    31    2
     4     1    30    1
     5     1     2    1
     6     2     3    1
     7     4     3    1
     8     4     5    1
     9     5     6    1
    10     6     7    1
    11     6     8    1
    12     8     9    1
    13     5    10    1
    14    10    11    1
    15    10    12    1
    16    12    13    1
    17    13    14    2
    18    13    15    1
    19    15    16    1
    20    15    17    2
    21    17    18    1
    22    17    19    1
    23    19    20    1
    24    21    20    1
    25    21    22    1
    26    22    23    1
    27    23    24    2
    28    23    25    1
    29    25    34    1
    30    34    35    1
    31    35    36    2
    32    35    37    1
    33    37    38    2
    34    38    39    1
    35    38    40    1
    36    40    41    1
    37    40    42    1
    38    26    25    1
    39     8     1    1
    40    19    10    1
    41    26     1    1
    42    21     4    1
    43    26     4    1
    44     7    27    1
    45     9    28    1
    46    16    29    1
