@<TRIPOS>MOLECULE
*****
 29 31 0 0 0
SMALL
GASTEIGER

@<TRIPOS>ATOM
      1 C          -8.6387  -18.3687   22.3467 C.ar    1  UNL1       -0.0004
      2 C          -8.1776  -19.6728   21.7667 C.ar    1  UNL1       -0.0024
      3 C          -6.7120  -19.9819   21.6872 C.ar    1  UNL1       -0.0002
      4 C          -5.7074  -18.9867   22.1877 C.ar    1  UNL1        0.0030
      5 C          -4.2417  -19.2958   22.1082 C.ar    1  UNL1        0.0369
      6 C          -3.2371  -18.3006   22.6088 C.ar    1  UNL1        0.1386
      7 C          -3.6983  -16.9964   23.1888 C.ar    1  UNL1        0.0369
      8 C          -5.1639  -16.6874   23.2683 C.ar    1  UNL1        0.0031
      9 C          -6.1685  -17.6825   22.7678 C.ar    1  UNL1       -0.0001
     10 C          -7.6341  -17.3735   22.8473 C.ar    1  UNL1       -0.0024
     11 C         -10.1044  -18.0596   22.4262 C.3     1  UNL1        0.1240
     12 N         -10.7947  -17.3962   21.2715 N.ar    1  UNL1       -0.3045
     13 C         -11.1773  -15.9484   21.1867 C.ar    1  UNL1        0.0983
     14 C         -11.8427  -15.7216   19.8616 C.ar    1  UNL1        0.1193
     15 N         -11.8713  -17.0293   19.1274 N.ar    1  UNL1       -0.2223
     16 C         -11.2236  -18.0643   19.9988 C.ar    1  UNL1        0.1788
     17 C         -12.3630  -18.1942   23.7032 C.3     1  UNL1        0.0197
     18 C         -10.8797  -18.4139   23.6604 C.3     1  UNL1        0.0827
     19 N         -10.1718  -18.9877   24.8519 N.3     1  UNL1       -0.2696
     20 C         -10.0208  -20.4737   24.9907 C.3     1  UNL1        0.0897
     21 C          -9.6150  -18.0757   25.9046 C.3     1  UNL1        0.0897
     22 O          -1.7715  -18.6097   22.5293 O.3     1  UNL1       -0.4751
     23 C          -1.1551  -18.9887   21.2153 C.3     1  UNL1        0.2103
     24 C          -1.6072  -18.3163   19.9530 C.3     1  UNL1        0.0724
     25 C          -0.7783  -17.1143   20.2964 C.3     1  UNL1        0.0093
     26 C          -2.4361  -19.5184   19.6096 C.3     1  UNL1        0.0093
     27 C          -2.0594  -17.6439   18.6907 C.2     1  UNL1        0.0532
     28 O          -3.3052  -16.8085   18.6907 O.co2   1  UNL1       -0.5491
     29 O          -1.2657  -17.8069   17.4284 O.co2   1  UNL1       -0.5491
@<TRIPOS>UNITY_ATOM_ATTR
28 1
charge -1
@<TRIPOS>BOND
     1    18    17    1
     2    18    11    1
     3    11     1    1
     4     1     2   ar
     5     2     3   ar
     6     3     4   ar
     7     4     5   ar
     8     5     6   ar
     9     6    22    1
    10    22    23    1
    11    23    24    1
    12    24    25    1
    13    24    26    1
    14    24    27    1
    15    27    28   ar
    16    27    29   ar
    17     6     7   ar
    18     7     8   ar
    19     8     9   ar
    20     9    10   ar
    21    11    12    1
    22    12    13   ar
    23    13    14   ar
    24    14    15   ar
    25    15    16   ar
    26    18    19    1
    27    19    20    1
    28    19    21    1
    29    10     1   ar
    30    16    12   ar
    31     9     4   ar
@<TRIPOS>MOLECULE
*****
 29 31 0 0 0
SMALL
GASTEIGER

@<TRIPOS>ATOM
      1 C          -9.3127  -17.4864   22.2690 C.ar    1  UNL1       -0.0004
      2 C          -8.8415  -16.2268   22.9333 C.ar    1  UNL1       -0.0024
      3 C          -7.3962  -16.0690   23.3023 C.ar    1  UNL1       -0.0002
      4 C          -6.4221  -17.1709   23.0070 C.ar    1  UNL1        0.0030
      5 C          -4.9768  -17.0131   23.3761 C.ar    1  UNL1        0.0369
      6 C          -4.0027  -18.1149   23.0808 C.ar    1  UNL1        0.1386
      7 C          -4.4740  -19.3745   22.4164 C.ar    1  UNL1        0.0369
      8 C          -5.9193  -19.5323   22.0474 C.ar    1  UNL1        0.0031
      9 C          -6.8934  -18.4304   22.3427 C.ar    1  UNL1       -0.0001
     10 C          -8.3387  -18.5882   21.9737 C.ar    1  UNL1       -0.0024
     11 C         -10.7581  -17.6442   21.9000 C.3     1  UNL1        0.1240
     12 N         -11.7746  -17.9450   22.9613 N.ar    1  UNL1       -0.3045
     13 C         -13.2217  -17.5514   22.9329 C.ar    1  UNL1        0.0983
     14 C         -13.8639  -18.0554   24.1914 C.ar    1  UNL1        0.1193
     15 N         -12.8136  -18.7604   24.9975 N.ar    1  UNL1       -0.2223
     16 C         -11.5224  -18.6922   24.2372 C.ar    1  UNL1        0.1788
     17 C         -11.2450  -18.7074   19.5800 C.3     1  UNL1        0.0197
     18 C         -11.1869  -17.5012   20.4698 C.3     1  UNL1        0.0827
     19 N         -11.5576  -16.1520   19.9292 N.3     1  UNL1       -0.2696
     20 C         -12.9979  -15.8123   19.6835 C.3     1  UNL1        0.0897
     21 C         -10.4881  -15.1424   19.6344 C.3     1  UNL1        0.0897
     22 O          -2.5574  -17.9571   23.4498 O.3     1  UNL1       -0.4751
     23 C          -1.4896  -18.2266   22.4313 C.3     1  UNL1        0.2103
     24 C          -1.7489  -17.9467   20.9807 C.3     1  UNL1        0.0724
     25 C          -1.7609  -19.4198   20.6985 C.3     1  UNL1        0.0093
     26 C          -1.7369  -16.4735   21.2628 C.3     1  UNL1        0.0093
     27 C          -2.0082  -17.6667   19.5301 C.2     1  UNL1        0.0532
     28 O          -3.3126  -17.0601   19.1047 O.co2   1  UNL1       -0.5491
     29 O          -0.9633  -17.9933   18.5047 O.co2   1  UNL1       -0.5491
@<TRIPOS>UNITY_ATOM_ATTR
28 1
charge -1
@<TRIPOS>BOND
     1    18    17    1
     2    18    11    1
     3    11     1    1
     4     1     2   ar
     5     2     3   ar
     6     3     4   ar
     7     4     5   ar
     8     5     6   ar
     9     6    22    1
    10    22    23    1
    11    23    24    1
    12    24    25    1
    13    24    26    1
    14    24    27    1
    15    27    28   ar
    16    27    29   ar
    17     6     7   ar
    18     7     8   ar
    19     8     9   ar
    20     9    10   ar
    21    11    12    1
    22    12    13   ar
    23    13    14   ar
    24    14    15   ar
    25    15    16   ar
    26    18    19    1
    27    19    20    1
    28    19    21    1
    29    10     1   ar
    30    16    12   ar
    31     9     4   ar
@<TRIPOS>MOLECULE
*****
 29 31 0 0 0
SMALL
GASTEIGER

@<TRIPOS>ATOM
      1 C           3.1318   -1.0773   20.8356 C.ar    1  UNL1       -0.0004
      2 C           1.8742   -0.4166   20.3540 C.ar    1  UNL1       -0.0024
      3 C           1.0308    0.3760   21.3081 C.ar    1  UNL1       -0.0002
      4 C           1.4449    0.5080   22.7437 C.ar    1  UNL1        0.0030
      5 C           0.6014    1.3007   23.6978 C.ar    1  UNL1        0.0369
      6 C           1.0155    1.4327   25.1334 C.ar    1  UNL1        0.1386
      7 C           2.2731    0.7720   25.6150 C.ar    1  UNL1        0.0369
      8 C           3.1166   -0.0207   24.6610 C.ar    1  UNL1        0.0031
      9 C           2.7025   -0.1527   23.2253 C.ar    1  UNL1       -0.0001
     10 C           3.5459   -0.9453   22.2713 C.ar    1  UNL1       -0.0024
     11 C           3.9753   -1.8700   19.8816 C.3     1  UNL1        0.1240
     12 N           4.5913   -1.1993   18.6897 N.ar    1  UNL1       -0.3045
     13 C           5.9521   -0.5704   18.6372 C.ar    1  UNL1        0.0983
     14 C           6.1564   -0.0221   17.2561 C.ar    1  UNL1        0.1193
     15 N           4.9219   -0.3120   16.4549 N.ar    1  UNL1       -0.2223
     16 C           3.9546   -1.0395   17.3409 C.ar    1  UNL1        0.1788
     17 C           3.3486   -4.3487   19.4197 C.3     1  UNL1        0.0197
     18 C           4.2028   -3.3334   20.1194 C.3     1  UNL1        0.0827
     19 N           5.2845   -3.7816   21.0571 N.3     1  UNL1       -0.2696
     20 C           6.6805   -3.9874   20.5481 C.3     1  UNL1        0.0897
     21 C           4.9702   -4.0240   22.5036 C.3     1  UNL1        0.0897
     22 O           0.1721    2.2254   26.0875 O.3     1  UNL1       -0.4751
     23 C          -0.6957    1.5189   27.0865 C.3     1  UNL1        0.2103
     24 C          -0.1526    1.1760   28.4420 C.3     1  UNL1        0.0724
     25 C          -0.8746   -0.1381   28.3988 C.3     1  UNL1        0.0093
     26 C           0.5695    2.4900   28.4851 C.3     1  UNL1        0.0093
     27 C           0.3906    0.8330   29.7974 C.2     1  UNL1        0.0532
     28 O           1.3608   -0.3006   29.9518 O.co2   1  UNL1       -0.5491
     29 O          -0.0364    1.6236   30.9985 O.co2   1  UNL1       -0.5491
@<TRIPOS>UNITY_ATOM_ATTR
28 1
charge -1
@<TRIPOS>BOND
     1    18    17    1
     2    18    11    1
     3    11     1    1
     4     1     2   ar
     5     2     3   ar
     6     3     4   ar
     7     4     5   ar
     8     5     6   ar
     9     6    22    1
    10    22    23    1
    11    23    24    1
    12    24    25    1
    13    24    26    1
    14    24    27    1
    15    27    28   ar
    16    27    29   ar
    17     6     7   ar
    18     7     8   ar
    19     8     9   ar
    20     9    10   ar
    21    11    12    1
    22    12    13   ar
    23    13    14   ar
    24    14    15   ar
    25    15    16   ar
    26    18    19    1
    27    19    20    1
    28    19    21    1
    29    10     1   ar
    30    16    12   ar
    31     9     4   ar
@<TRIPOS>MOLECULE
*****
 29 31 0 0 0
SMALL
GASTEIGER

@<TRIPOS>ATOM
      1 C          -8.6109  -18.2894   22.3326 C.ar    1  UNL1       -0.0004
      2 C          -8.0274  -17.1166   23.0633 C.ar    1  UNL1       -0.0024
      3 C          -6.5401  -16.9888   23.2099 C.ar    1  UNL1       -0.0002
      4 C          -5.6363  -18.0338   22.6257 C.ar    1  UNL1        0.0030
      5 C          -4.1489  -17.9059   22.7724 C.ar    1  UNL1        0.0369
      6 C          -3.2451  -18.9509   22.1882 C.ar    1  UNL1        0.1386
      7 C          -3.8288  -20.1237   21.4575 C.ar    1  UNL1        0.0369
      8 C          -5.3161  -20.2515   21.3109 C.ar    1  UNL1        0.0031
      9 C          -6.2198  -19.2066   21.8950 C.ar    1  UNL1       -0.0001
     10 C          -7.7071  -19.3344   21.7485 C.ar    1  UNL1       -0.0024
     11 C         -10.0983  -18.4172   22.1860 C.3     1  UNL1        0.1240
     12 N         -10.8298  -17.5654   21.1913 N.ar    1  UNL1       -0.3045
     13 C         -11.5121  -16.2612   21.4804 C.ar    1  UNL1        0.0983
     14 C         -12.1115  -15.7580   20.2007 C.ar    1  UNL1        0.1193
     15 N         -11.7997  -16.7512   19.1208 N.ar    1  UNL1       -0.2223
     16 C         -11.0076  -17.8682   19.7330 C.ar    1  UNL1        0.1788
     17 C         -11.1834  -20.7576   22.4952 C.3     1  UNL1        0.0197
     18 C         -10.8541  -19.3969   23.0339 C.3     1  UNL1        0.0827
     19 N         -11.2805  -19.0159   24.4206 N.3     1  UNL1       -0.2696
     20 C         -12.7210  -18.7080   24.7043 C.3     1  UNL1        0.0897
     21 C         -10.2667  -18.9428   25.5236 C.3     1  UNL1        0.0897
     22 O          -1.7578  -18.8231   22.3348 O.3     1  UNL1       -0.4751
     23 C          -0.9917  -17.9013   21.4328 C.3     1  UNL1        0.2103
     24 C          -1.4598  -17.6673   20.0271 C.3     1  UNL1        0.0724
     25 C          -1.0333  -19.0561   19.6539 C.3     1  UNL1        0.0093
     26 C          -1.8864  -16.2785   20.4003 C.3     1  UNL1        0.0093
     27 C          -1.9280  -17.4333   18.6214 C.2     1  UNL1        0.0532
     28 O          -1.0821  -17.8783   17.4653 O.co2   1  UNL1       -0.5491
     29 O          -3.2419  -16.7543   18.3717 O.co2   1  UNL1       -0.5491
@<TRIPOS>UNITY_ATOM_ATTR
28 1
charge -1
@<TRIPOS>BOND
     1    18    17    1
     2    18    11    1
     3    11     1    1
     4     1     2   ar
     5     2     3   ar
     6     3     4   ar
     7     4     5   ar
     8     5     6   ar
     9     6    22    1
    10    22    23    1
    11    23    24    1
    12    24    25    1
    13    24    26    1
    14    24    27    1
    15    27    28   ar
    16    27    29   ar
    17     6     7   ar
    18     7     8   ar
    19     8     9   ar
    20     9    10   ar
    21    11    12    1
    22    12    13   ar
    23    13    14   ar
    24    14    15   ar
    25    15    16   ar
    26    18    19    1
    27    19    20    1
    28    19    21    1
    29    10     1   ar
    30    16    12   ar
    31     9     4   ar
@<TRIPOS>MOLECULE
*****
 29 31 0 0 0
SMALL
GASTEIGER

@<TRIPOS>ATOM
      1 C           2.9580   -0.6551   20.3799 C.ar    1  UNL1       -0.0004
      2 C           1.6699    0.0352   20.0420 C.ar    1  UNL1       -0.0024
      3 C           0.8674    0.6965   21.1230 C.ar    1  UNL1       -0.0002
      4 C           1.3531    0.6675   22.5419 C.ar    1  UNL1        0.0030
      5 C           0.5505    1.3289   23.6229 C.ar    1  UNL1        0.0369
      6 C           1.0361    1.2999   25.0419 C.ar    1  UNL1        0.1386
      7 C           2.3243    0.6095   25.3797 C.ar    1  UNL1        0.0369
      8 C           3.1268   -0.0518   24.2987 C.ar    1  UNL1        0.0031
      9 C           2.6412   -0.0228   22.8798 C.ar    1  UNL1       -0.0001
     10 C           3.4436   -0.6841   21.7988 C.ar    1  UNL1       -0.0024
     11 C           3.7606   -1.3164   19.2988 C.3     1  UNL1        0.1240
     12 N           4.1170   -2.7691   19.4115 N.ar    1  UNL1       -0.3045
     13 C           3.1930   -3.9252   19.1669 C.ar    1  UNL1        0.0983
     14 C           3.9649   -5.1914   19.3927 C.ar    1  UNL1        0.1193
     15 N           5.3659   -4.8179   19.7769 N.ar    1  UNL1       -0.2223
     16 C           5.4599   -3.3209   19.7885 C.ar    1  UNL1        0.1788
     17 C           3.7458   -0.9149   16.7320 C.3     1  UNL1        0.0197
     18 C           4.2067   -0.5251   18.1052 C.3     1  UNL1        0.0827
     19 N           5.1137    0.6560   18.2848 N.3     1  UNL1       -0.2696
     20 C           6.5996    0.4585   18.3436 C.3     1  UNL1        0.0897
     21 C           4.5350    2.0346   18.4055 C.3     1  UNL1        0.0897
     22 O           0.2336    1.9612   26.1229 O.3     1  UNL1       -0.4751
     23 C          -0.5323    1.1261   27.1059 C.3     1  UNL1        0.2103
     24 C          -0.0150    0.9486   28.5026 C.3     1  UNL1        0.0724
     25 C          -0.7867   -0.3317   28.6256 C.3     1  UNL1        0.0093
     26 C           0.7567    2.2289   28.3795 C.3     1  UNL1        0.0093
     27 C           0.5023    0.7711   29.8993 C.2     1  UNL1        0.0532
     28 O           0.0109    1.6637   31.0002 O.co2   1  UNL1       -0.5491
     29 O           1.5109   -0.2990   30.1952 O.co2   1  UNL1       -0.5491
@<TRIPOS>UNITY_ATOM_ATTR
28 1
charge -1
@<TRIPOS>BOND
     1    18    17    1
     2    18    11    1
     3    11     1    1
     4     1     2   ar
     5     2     3   ar
     6     3     4   ar
     7     4     5   ar
     8     5     6   ar
     9     6    22    1
    10    22    23    1
    11    23    24    1
    12    24    25    1
    13    24    26    1
    14    24    27    1
    15    27    28   ar
    16    27    29   ar
    17     6     7   ar
    18     7     8   ar
    19     8     9   ar
    20     9    10   ar
    21    11    12    1
    22    12    13   ar
    23    13    14   ar
    24    14    15   ar
    25    15    16   ar
    26    18    19    1
    27    19    20    1
    28    19    21    1
    29    10     1   ar
    30    16    12   ar
    31     9     4   ar
@<TRIPOS>MOLECULE
*****
 29 31 0 0 0
SMALL
GASTEIGER

@<TRIPOS>ATOM
      1 C           2.7676   -0.5250   20.2207 C.ar    1  UNL1       -0.0004
      2 C           1.5070    0.0995   19.7007 C.ar    1  UNL1       -0.0024
      3 C           0.5755    0.8041   20.6418 C.ar    1  UNL1       -0.0002
      4 C           0.9047    0.8841   22.1031 C.ar    1  UNL1        0.0030
      5 C          -0.0269    1.5888   23.0443 C.ar    1  UNL1        0.0369
      6 C           0.3023    1.6688   24.5055 C.ar    1  UNL1        0.1386
      7 C           1.5631    1.0441   25.0256 C.ar    1  UNL1        0.0369
      8 C           2.4946    0.3395   24.0844 C.ar    1  UNL1        0.0031
      9 C           2.1654    0.2595   22.6232 C.ar    1  UNL1       -0.0001
     10 C           3.0968   -0.4450   21.6820 C.ar    1  UNL1       -0.0024
     11 C           3.6992   -1.2297   19.2795 C.3     1  UNL1        0.1240
     12 N           4.0439   -2.6720   19.5052 N.ar    1  UNL1       -0.3045
     13 C           3.1939   -3.8504   19.1327 C.ar    1  UNL1        0.0983
     14 C           3.9238   -5.0958   19.5403 C.ar    1  UNL1        0.1193
     15 N           5.2250   -4.6872   20.1648 N.ar    1  UNL1       -0.2223
     16 C           5.2992   -3.1891   20.1431 C.ar    1  UNL1        0.1788
     17 C           3.8658   -0.8421   16.7159 C.3     1  UNL1        0.0197
     18 C           4.2860   -0.4920   18.1127 C.3     1  UNL1        0.0827
     19 N           5.2929    0.5957   18.3427 N.3     1  UNL1       -0.2696
     20 C           4.9321    2.0239   18.0593 C.3     1  UNL1        0.0897
     21 C           6.6607    0.2554   18.8559 C.3     1  UNL1        0.0897
     22 O          -0.6291    2.3734   25.4467 O.3     1  UNL1       -0.4751
     23 C          -1.4713    3.5133   24.9552 C.3     1  UNL1        0.2103
     24 C          -2.8487    3.7223   25.5111 C.3     1  UNL1        0.0724
     25 C          -2.2574    4.0750   26.8437 C.3     1  UNL1        0.0093
     26 C          -3.4400    3.3695   24.1785 C.3     1  UNL1        0.0093
     27 C          -4.2261    3.9313   26.0670 C.2     1  UNL1        0.0532
     28 O          -4.4044    4.6028   27.3964 O.co2   1  UNL1       -0.5491
     29 O          -5.4252    3.4688   25.2935 O.co2   1  UNL1       -0.5491
@<TRIPOS>UNITY_ATOM_ATTR
28 1
charge -1
@<TRIPOS>BOND
     1    18    17    1
     2    18    11    1
     3    11     1    1
     4     1     2   ar
     5     2     3   ar
     6     3     4   ar
     7     4     5   ar
     8     5     6   ar
     9     6    22    1
    10    22    23    1
    11    23    24    1
    12    24    25    1
    13    24    26    1
    14    24    27    1
    15    27    28   ar
    16    27    29   ar
    17     6     7   ar
    18     7     8   ar
    19     8     9   ar
    20     9    10   ar
    21    11    12    1
    22    12    13   ar
    23    13    14   ar
    24    14    15   ar
    25    15    16   ar
    26    18    19    1
    27    19    20    1
    28    19    21    1
    29    10     1   ar
    30    16    12   ar
    31     9     4   ar
@<TRIPOS>MOLECULE
*****
 29 31 0 0 0
SMALL
GASTEIGER

@<TRIPOS>ATOM
      1 C           1.5561    1.1978   25.4009 C.ar    1  UNL1       -0.0004
      2 C           0.6290    1.7812   24.3762 C.ar    1  UNL1       -0.0024
      3 C           0.7199    1.3407   22.9453 C.ar    1  UNL1       -0.0002
      4 C           1.7380    0.3168   22.5390 C.ar    1  UNL1        0.0030
      5 C           1.8290   -0.1237   21.1080 C.ar    1  UNL1        0.0369
      6 C           2.8471   -1.1476   20.7018 C.ar    1  UNL1        0.1386
      7 C           3.7743   -1.7310   21.7265 C.ar    1  UNL1        0.0369
      8 C           3.6833   -1.2905   23.1575 C.ar    1  UNL1        0.0031
      9 C           2.6652   -0.2666   23.5637 C.ar    1  UNL1       -0.0001
     10 C           2.5742    0.1739   24.9947 C.ar    1  UNL1       -0.0024
     11 C           1.4651    1.6383   26.8319 C.3     1  UNL1        0.1240
     12 N           0.4921    0.9744   27.7606 N.ar    1  UNL1       -0.3045
     13 C          -0.9739    1.2750   27.8637 C.ar    1  UNL1        0.0983
     14 C          -1.5578    0.3797   28.9160 C.ar    1  UNL1        0.1193
     15 N          -0.4527   -0.4743   29.4634 N.ar    1  UNL1       -0.2223
     16 C           0.8142   -0.1067   28.7493 C.ar    1  UNL1        0.1788
     17 C           3.1427    3.5666   26.3655 C.3     1  UNL1        0.0197
     18 C           2.3471    2.7427   27.3342 C.3     1  UNL1        0.0827
     19 N           2.4337    3.0232   28.8052 N.3     1  UNL1       -0.2696
     20 C           3.4810    2.3448   29.6377 C.3     1  UNL1        0.0897
     21 C           1.4730    3.9820   29.4437 C.3     1  UNL1        0.0897
     22 O           2.9381   -1.5881   19.2708 O.3     1  UNL1       -0.4751
     23 C           3.9852   -2.5790   18.8562 C.3     1  UNL1        0.2103
     24 C           5.3109   -2.0991   18.3442 C.3     1  UNL1        0.0724
     25 C           4.6130   -1.0832   17.4893 C.3     1  UNL1        0.0093
     26 C           6.0088   -3.1150   19.1990 C.3     1  UNL1        0.0093
     27 C           6.6366   -1.6193   17.8322 C.2     1  UNL1        0.0532
     28 O           7.9001   -2.3001   18.2683 O.co2   1  UNL1       -0.5491
     29 O           6.6989   -0.4586   16.8840 O.co2   1  UNL1       -0.5491
@<TRIPOS>UNITY_ATOM_ATTR
28 1
charge -1
@<TRIPOS>BOND
     1    18    17    1
     2    18    11    1
     3    11     1    1
     4     1     2   ar
     5     2     3   ar
     6     3     4   ar
     7     4     5   ar
     8     5     6   ar
     9     6    22    1
    10    22    23    1
    11    23    24    1
    12    24    25    1
    13    24    26    1
    14    24    27    1
    15    27    28   ar
    16    27    29   ar
    17     6     7   ar
    18     7     8   ar
    19     8     9   ar
    20     9    10   ar
    21    11    12    1
    22    12    13   ar
    23    13    14   ar
    24    14    15   ar
    25    15    16   ar
    26    18    19    1
    27    19    20    1
    28    19    21    1
    29    10     1   ar
    30    16    12   ar
    31     9     4   ar
@<TRIPOS>MOLECULE
*****
 29 31 0 0 0
SMALL
GASTEIGER

@<TRIPOS>ATOM
      1 C           4.3766   -2.2543   21.7389 C.ar    1  UNL1       -0.0004
      2 C           3.9271   -1.6842   23.0515 C.ar    1  UNL1       -0.0024
      3 C           4.6053   -2.1022   24.3223 C.ar    1  UNL1       -0.0002
      4 C           5.7331   -3.0904   24.2807 C.ar    1  UNL1        0.0030
      5 C           6.4113   -3.5084   25.5517 C.ar    1  UNL1        0.0369
      6 C           7.5390   -4.4966   25.5100 C.ar    1  UNL1        0.1386
      7 C           7.9885   -5.0667   24.1973 C.ar    1  UNL1        0.0369
      8 C           7.3103   -4.6487   22.9264 C.ar    1  UNL1        0.0031
      9 C           6.1825   -3.6605   22.9681 C.ar    1  UNL1       -0.0001
     10 C           5.5043   -3.2425   21.6972 C.ar    1  UNL1       -0.0024
     11 C           3.6983   -1.8363   20.4679 C.3     1  UNL1        0.1240
     12 N           2.7732   -0.6555   20.4648 N.ar    1  UNL1       -0.3045
     13 C           3.1844    0.7867   20.4937 C.ar    1  UNL1        0.0983
     14 C           1.9398    1.6239   20.4790 C.ar    1  UNL1        0.1193
     15 N           0.7595    0.6991   20.4410 N.ar    1  UNL1       -0.2223
     16 C           1.2746   -0.7097   20.4322 C.ar    1  UNL1        0.1788
     17 C           3.3792   -3.9780   19.0322 C.3     1  UNL1        0.0197
     18 C           3.9452   -2.5990   19.2002 C.3     1  UNL1        0.0827
     19 N           4.7580   -1.9828   18.1003 N.3     1  UNL1       -0.2696
     20 C           6.2149   -2.3148   17.9682 C.3     1  UNL1        0.0897
     21 C           4.1141   -1.0347   17.1327 C.3     1  UNL1        0.0897
     22 O           8.2173   -4.9146   26.7809 O.3     1  UNL1       -0.4751
     23 C           7.6415   -6.0258   27.6079 C.3     1  UNL1        0.2103
     24 C           7.8261   -6.0260   29.0964 C.3     1  UNL1        0.0724
     25 C           6.5832   -5.2005   29.2507 C.3     1  UNL1        0.0093
     26 C           9.0689   -6.8515   28.9422 C.3     1  UNL1        0.0093
     27 C           8.0107   -6.0262   30.5850 C.2     1  UNL1        0.0532
     28 O           6.8167   -6.1139   31.4888 O.co2   1  UNL1       -0.5491
     29 O           9.3892   -5.9388   31.1699 O.co2   1  UNL1       -0.5491
@<TRIPOS>UNITY_ATOM_ATTR
28 1
charge -1
@<TRIPOS>BOND
     1    18    17    1
     2    18    11    1
     3    11     1    1
     4     1     2   ar
     5     2     3   ar
     6     3     4   ar
     7     4     5   ar
     8     5     6   ar
     9     6    22    1
    10    22    23    1
    11    23    24    1
    12    24    25    1
    13    24    26    1
    14    24    27    1
    15    27    28   ar
    16    27    29   ar
    17     6     7   ar
    18     7     8   ar
    19     8     9   ar
    20     9    10   ar
    21    11    12    1
    22    12    13   ar
    23    13    14   ar
    24    14    15   ar
    25    15    16   ar
    26    18    19    1
    27    19    20    1
    28    19    21    1
    29    10     1   ar
    30    16    12   ar
    31     9     4   ar
@<TRIPOS>MOLECULE
*****
 29 31 0 0 0
SMALL
GASTEIGER

@<TRIPOS>ATOM
      1 C           2.9332   -1.1233   20.9599 C.ar    1  UNL1       -0.0004
      2 C           1.9253   -0.7208   19.9245 C.ar    1  UNL1       -0.0024
      3 C           0.8840    0.3081   20.2516 C.ar    1  UNL1       -0.0002
      4 C           0.8506    0.9345   21.6141 C.ar    1  UNL1        0.0030
      5 C          -0.1908    1.9634   21.9412 C.ar    1  UNL1        0.0369
      6 C          -0.2243    2.5898   23.3037 C.ar    1  UNL1        0.1386
      7 C           0.7837    2.1873   24.3392 C.ar    1  UNL1        0.0369
      8 C           1.8250    1.1584   24.0121 C.ar    1  UNL1        0.0031
      9 C           1.8584    0.5320   22.6495 C.ar    1  UNL1       -0.0001
     10 C           2.8997   -0.4969   22.3224 C.ar    1  UNL1       -0.0024
     11 C           3.9746   -2.1522   20.6328 C.3     1  UNL1        0.1240
     12 N           4.9567   -2.5847   21.6808 N.ar    1  UNL1       -0.3045
     13 C           6.3532   -2.0637   21.8490 C.ar    1  UNL1        0.0983
     14 C           6.9744   -2.7711   23.0168 C.ar    1  UNL1        0.1193
     15 N           5.9617   -3.7293   23.5704 N.ar    1  UNL1       -0.2223
     16 C           4.7148   -3.6141   22.7447 C.ar    1  UNL1        0.1788
     17 C           3.3130   -4.0311   18.9648 C.3     1  UNL1        0.0197
     18 C           4.0338   -2.7486   19.2578 C.3     1  UNL1        0.0827
     19 N           4.8137   -2.0625   18.1756 N.3     1  UNL1       -0.2696
     20 C           4.1142   -1.1560   17.2066 C.3     1  UNL1        0.0897
     21 C           6.2931   -2.2829   18.0625 C.3     1  UNL1        0.0897
     22 O          -1.2656    3.6187   23.6308 O.3     1  UNL1       -0.4751
     23 C          -1.4974    4.0244   25.0562 C.3     1  UNL1        0.2103
     24 C          -2.8935    4.0847   25.6013 C.3     1  UNL1        0.0724
     25 C          -3.4151    3.4779   24.3326 C.3     1  UNL1        0.0093
     26 C          -2.3720    4.6916   26.8700 C.3     1  UNL1        0.0093
     27 C          -4.2897    4.1451   26.1463 C.2     1  UNL1        0.0532
     28 O          -4.5540    4.8225   27.4583 O.co2   1  UNL1       -0.5491
     29 O          -5.4215    3.5280   25.3794 O.co2   1  UNL1       -0.5491
@<TRIPOS>UNITY_ATOM_ATTR
28 1
charge -1
@<TRIPOS>BOND
     1    18    17    1
     2    18    11    1
     3    11     1    1
     4     1     2   ar
     5     2     3   ar
     6     3     4   ar
     7     4     5   ar
     8     5     6   ar
     9     6    22    1
    10    22    23    1
    11    23    24    1
    12    24    25    1
    13    24    26    1
    14    24    27    1
    15    27    28   ar
    16    27    29   ar
    17     6     7   ar
    18     7     8   ar
    19     8     9   ar
    20     9    10   ar
    21    11    12    1
    22    12    13   ar
    23    13    14   ar
    24    14    15   ar
    25    15    16   ar
    26    18    19    1
    27    19    20    1
    28    19    21    1
    29    10     1   ar
    30    16    12   ar
    31     9     4   ar
