@<TRIPOS>MOLECULE
*****
 21 23 0 0 0
SMALL
GASTEIGER

@<TRIPOS>ATOM
      1 N          -8.6431  -17.0039   22.6230 N.3     1  UNL1       -0.2700
      2 C         -10.1158  -17.1749   22.8515 C.3     1  UNL1        0.0628
      3 C         -10.6137  -18.2720   23.7450 C.3     1  UNL1        0.0481
      4 C         -12.0863  -18.4429   23.9736 C.3     1  UNL1        0.1435
      5 O         -13.0609  -17.5167   23.3086 O.3     1  UNL1       -0.3537
      6 C         -12.5630  -16.4196   22.4151 C.3     1  UNL1        0.1435
      7 C         -11.0904  -16.2487   22.1865 C.3     1  UNL1        0.0481
      8 C          -7.8613  -18.0817   21.9321 C.3     1  UNL1        0.0748
      9 C          -6.4649  -18.5125   22.2701 C.3     1  UNL1        0.0344
     10 C          -6.0792  -19.6149   21.3289 C.3     1  UNL1        0.0700
     11 N          -7.2373  -19.8654   20.4090 N.3     1  UNL1       -0.2963
     12 C          -8.3387  -18.9178   20.7819 C.3     1  UNL1        0.0847
     13 H          -7.5591  -20.8278   20.5118 H       1  UNL1        0.1233
     14 C          -7.9523  -15.7553   23.0853 C.3     1  UNL1        0.0988
     15 C          -5.0582  -15.4629   23.8192 C.3     1  UNL1        0.0307
     16 C          -6.1077  -15.4608   24.8910 C.ar    1  UNL1       -0.0245
     17 C          -5.7101  -15.3125   26.3297 C.ar    1  UNL1       -0.0045
     18 C          -6.7596  -15.3104   27.4014 C.ar    1  UNL1       -0.0003
     19 C          -8.2066  -15.4566   27.0345 C.ar    1  UNL1       -0.0003
     20 C          -8.6042  -15.6049   25.5958 C.ar    1  UNL1       -0.0032
     21 C          -7.5547  -15.6070   24.5240 C.ar    1  UNL1       -0.0101
@<TRIPOS>BOND
     1    15    16    1
     2    16    17   ar
     3    17    18   ar
     4    18    19   ar
     5    19    20   ar
     6    20    21   ar
     7    21    14    1
     8    14     1    1
     9     1     2    1
    10     2     3    1
    11     3     4    1
    12     4     5    1
    13     5     6    1
    14     6     7    1
    15     8     1    1
    16     8     9    1
    17     9    10    1
    18    10    11    1
    19    11    12    1
    20    21    16   ar
    21     7     2    1
    22    12     8    1
    23    11    13    1
@<TRIPOS>MOLECULE
*****
 21 23 0 0 0
SMALL
GASTEIGER

@<TRIPOS>ATOM
      1 N          -8.5650  -17.5511   22.9968 N.3     1  UNL1       -0.2700
      2 C          -7.7840  -18.3758   22.0171 C.3     1  UNL1        0.0628
      3 C          -8.4571  -18.9244   20.7940 C.3     1  UNL1        0.0481
      4 C          -7.6761  -19.7492   19.8143 C.3     1  UNL1        0.1435
      5 O          -6.2220  -20.0253   20.0577 O.3     1  UNL1       -0.3537
      6 C          -5.5489  -19.4767   21.2808 C.3     1  UNL1        0.1435
      7 C          -6.3299  -18.6520   22.2605 C.3     1  UNL1        0.0481
      8 C          -9.7885  -18.1220   23.6503 C.3     1  UNL1        0.0748
      9 C         -11.2067  -17.7249   23.3659 C.3     1  UNL1        0.0344
     10 C         -12.1033  -18.5478   24.2428 C.3     1  UNL1        0.0700
     11 N         -11.2392  -19.4535   25.0692 N.3     1  UNL1       -0.2963
     12 C          -9.8086  -19.1904   24.7030 C.3     1  UNL1        0.0847
     13 H         -11.4729  -20.4272   24.8747 H       1  UNL1        0.1233
     14 C          -8.1226  -16.1554   23.3229 C.3     1  UNL1        0.0988
     15 C          -5.2220  -15.5828   23.8316 C.3     1  UNL1        0.0307
     16 C          -6.2056  -15.5348   24.9631 C.ar    1  UNL1       -0.0245
     17 C          -5.7389  -15.2006   26.3488 C.ar    1  UNL1       -0.0045
     18 C          -6.7225  -15.1526   27.4803 C.ar    1  UNL1       -0.0003
     19 C          -8.1728  -15.4389   27.2260 C.ar    1  UNL1       -0.0003
     20 C          -8.6395  -15.7732   25.8402 C.ar    1  UNL1       -0.0032
     21 C          -7.6559  -15.8211   24.7088 C.ar    1  UNL1       -0.0101
@<TRIPOS>BOND
     1    15    16    1
     2    16    17   ar
     3    17    18   ar
     4    18    19   ar
     5    19    20   ar
     6    20    21   ar
     7    21    14    1
     8    14     1    1
     9     1     2    1
    10     2     3    1
    11     3     4    1
    12     4     5    1
    13     5     6    1
    14     6     7    1
    15     8     1    1
    16     8     9    1
    17     9    10    1
    18    10    11    1
    19    11    12    1
    20    21    16   ar
    21     7     2    1
    22    12     8    1
    23    11    13    1
@<TRIPOS>MOLECULE
*****
 21 23 0 0 0
SMALL
GASTEIGER

@<TRIPOS>ATOM
      1 N          -7.6939  -18.0881   22.7279 N.3     1  UNL1       -0.2700
      2 C          -6.3671  -18.4463   22.1265 C.3     1  UNL1        0.0628
      3 C          -5.1010  -18.1579   22.8773 C.3     1  UNL1        0.0481
      4 C          -3.7743  -18.5160   22.2760 C.3     1  UNL1        0.1435
      5 O          -3.7138  -19.1625   20.9239 O.3     1  UNL1       -0.3537
      6 C          -4.9799  -19.4509   20.1730 C.3     1  UNL1        0.1435
      7 C          -6.3066  -19.0927   20.7743 C.3     1  UNL1        0.0481
      8 C          -7.8583  -16.7913   23.4635 C.3     1  UNL1        0.0748
      9 C          -8.3938  -16.6288   24.8552 C.3     1  UNL1        0.0344
     10 C          -8.3825  -15.1663   25.1884 C.3     1  UNL1        0.0700
     11 N          -7.8400  -14.4249   24.0026 N.3     1  UNL1       -0.2963
     12 C          -7.5160  -15.4292   22.9366 C.3     1  UNL1        0.0847
     13 H          -6.9960  -13.9175   24.2682 H       1  UNL1        0.1233
     14 C          -8.8561  -19.0268   22.5936 C.3     1  UNL1        0.0988
     15 C         -11.0944  -19.1043   24.5897 C.3     1  UNL1        0.0307
     16 C         -11.3287  -18.5353   23.2217 C.ar    1  UNL1       -0.0245
     17 C         -12.6822  -18.0050   22.8518 C.ar    1  UNL1       -0.0045
     18 C         -12.9166  -17.4360   21.4838 C.ar    1  UNL1       -0.0003
     19 C         -11.7975  -17.3972   20.4858 C.ar    1  UNL1       -0.0003
     20 C         -10.4440  -17.9275   20.8557 C.ar    1  UNL1       -0.0032
     21 C         -10.2096  -18.4965   22.2237 C.ar    1  UNL1       -0.0101
@<TRIPOS>BOND
     1    15    16    1
     2    16    17   ar
     3    17    18   ar
     4    18    19   ar
     5    19    20   ar
     6    20    21   ar
     7    21    14    1
     8    14     1    1
     9     1     2    1
    10     2     3    1
    11     3     4    1
    12     4     5    1
    13     5     6    1
    14     6     7    1
    15     8     1    1
    16     8     9    1
    17     9    10    1
    18    10    11    1
    19    11    12    1
    20    21    16   ar
    21     7     2    1
    22    12     8    1
    23    11    13    1
@<TRIPOS>MOLECULE
*****
 21 23 0 0 0
SMALL
GASTEIGER

@<TRIPOS>ATOM
      1 N          -7.8708  -18.5919   22.6182 N.3     1  UNL1       -0.2700
      2 C          -6.5975  -19.0969   22.0067 C.3     1  UNL1        0.0628
      3 C          -6.6463  -20.1148   20.9060 C.3     1  UNL1        0.0481
      4 C          -5.3731  -20.6198   20.2946 C.3     1  UNL1        0.1435
      5 O          -4.0512  -20.1068   20.7838 O.3     1  UNL1       -0.3537
      6 C          -4.0024  -19.0889   21.8844 C.3     1  UNL1        0.1435
      7 C          -5.2756  -18.5840   22.4959 C.3     1  UNL1        0.0481
      8 C          -7.9587  -17.1762   23.1060 C.3     1  UNL1        0.0748
      9 C          -8.1095  -16.7435   24.5343 C.3     1  UNL1        0.0344
     10 C          -8.1551  -15.2444   24.5622 C.3     1  UNL1        0.0700
     11 N          -8.0325  -14.7507   23.1511 N.3     1  UNL1       -0.2963
     12 C          -7.9110  -15.9445   22.2512 C.3     1  UNL1        0.0847
     13 H          -7.2034  -14.1633   23.0607 H       1  UNL1        0.1233
     14 C          -9.0562  -19.5027   22.7419 C.3     1  UNL1        0.0988
     15 C         -10.3463  -18.5236   20.2166 C.3     1  UNL1        0.0307
     16 C         -11.0868  -18.4398   21.5184 C.ar    1  UNL1       -0.0245
     17 C         -12.4723  -17.8664   21.5576 C.ar    1  UNL1       -0.0045
     18 C         -13.2128  -17.7826   22.8593 C.ar    1  UNL1       -0.0003
     19 C         -12.5678  -18.2721   24.1220 C.ar    1  UNL1       -0.0003
     20 C         -11.1823  -18.8455   24.0828 C.ar    1  UNL1       -0.0032
     21 C         -10.4418  -18.9293   22.7810 C.ar    1  UNL1       -0.0101
@<TRIPOS>BOND
     1    15    16    1
     2    16    17   ar
     3    17    18   ar
     4    18    19   ar
     5    19    20   ar
     6    20    21   ar
     7    21    14    1
     8    14     1    1
     9     1     2    1
    10     2     3    1
    11     3     4    1
    12     4     5    1
    13     5     6    1
    14     6     7    1
    15     8     1    1
    16     8     9    1
    17     9    10    1
    18    10    11    1
    19    11    12    1
    20    21    16   ar
    21     7     2    1
    22    12     8    1
    23    11    13    1
@<TRIPOS>MOLECULE
*****
 21 23 0 0 0
SMALL
GASTEIGER

@<TRIPOS>ATOM
      1 N          -7.2220  -17.8682   22.2430 N.3     1  UNL1       -0.2700
      2 C          -8.5342  -18.5946   22.2642 C.3     1  UNL1        0.0628
      3 C          -9.5439  -18.3508   21.1820 C.3     1  UNL1        0.0481
      4 C         -10.8561  -19.0773   21.2031 C.3     1  UNL1        0.1435
      5 O         -11.1586  -20.0474   22.3064 O.3     1  UNL1       -0.3537
      6 C         -10.1488  -20.2912   23.3885 C.3     1  UNL1        0.1435
      7 C          -8.8367  -19.5648   23.3674 C.3     1  UNL1        0.0481
      8 C          -5.9757  -18.5833   21.8124 C.3     1  UNL1        0.0748
      9 C          -4.6966  -18.6723   22.5909 C.3     1  UNL1        0.0344
     10 C          -3.7201  -19.4790   21.7873 C.3     1  UNL1        0.0700
     11 N          -4.3956  -19.8884   20.5122 N.3     1  UNL1       -0.2963
     12 C          -5.7897  -19.3349   20.5277 C.3     1  UNL1        0.0847
     13 H          -4.4280  -20.9060   20.4488 H       1  UNL1        0.1233
     14 C          -7.1561  -16.4267   22.6525 C.3     1  UNL1        0.0988
     15 C          -9.5570  -16.1207   24.4251 C.3     1  UNL1        0.0307
     16 C          -8.1807  -15.9117   24.9838 C.ar    1  UNL1       -0.0245
     17 C          -8.0048  -15.5498   26.4288 C.ar    1  UNL1       -0.0045
     18 C          -6.6285  -15.3409   26.9875 C.ar    1  UNL1       -0.0003
     19 C          -5.4281  -15.4939   26.1012 C.ar    1  UNL1       -0.0003
     20 C          -5.6039  -15.8558   24.6563 C.ar    1  UNL1       -0.0032
     21 C          -6.9802  -16.0647   24.0976 C.ar    1  UNL1       -0.0101
@<TRIPOS>BOND
     1    15    16    1
     2    16    17   ar
     3    17    18   ar
     4    18    19   ar
     5    19    20   ar
     6    20    21   ar
     7    21    14    1
     8    14     1    1
     9     1     2    1
    10     2     3    1
    11     3     4    1
    12     4     5    1
    13     5     6    1
    14     6     7    1
    15     8     1    1
    16     8     9    1
    17     9    10    1
    18    10    11    1
    19    11    12    1
    20    21    16   ar
    21     7     2    1
    22    12     8    1
    23    11    13    1
@<TRIPOS>MOLECULE
*****
 21 23 0 0 0
SMALL
GASTEIGER

@<TRIPOS>ATOM
      1 N          -5.9843  -18.8153   22.2319 N.3     1  UNL1       -0.2700
      2 C          -6.1499  -17.4864   22.9078 C.3     1  UNL1        0.0628
      3 C          -4.9799  -16.8403   23.5886 C.3     1  UNL1        0.0481
      4 C          -5.1454  -15.5115   24.2644 C.3     1  UNL1        0.1435
      5 O          -6.4811  -14.8288   24.2595 O.3     1  UNL1       -0.3537
      6 C          -7.6511  -15.4750   23.5787 C.3     1  UNL1        0.1435
      7 C          -7.4855  -16.8038   22.9028 C.3     1  UNL1        0.0481
      8 C          -4.7685  -19.0852   21.3959 C.3     1  UNL1        0.0748
      9 C          -4.6891  -18.9960   19.9006 C.3     1  UNL1        0.0344
     10 C          -3.2901  -19.3472   19.4889 C.3     1  UNL1        0.0700
     11 N          -2.5049  -19.6535   20.7297 N.3     1  UNL1       -0.2963
     12 C          -3.4186  -19.4916   21.9082 C.3     1  UNL1        0.0847
     13 H          -1.7188  -19.0085   20.8099 H       1  UNL1        0.1233
     14 C          -7.0345  -19.8743   22.3921 C.3     1  UNL1        0.0988
     15 C          -9.5349  -20.2160   24.0142 C.3     1  UNL1        0.0307
     16 C          -9.6273  -19.8738   22.5567 C.ar    1  UNL1       -0.0245
     17 C         -10.9700  -19.7024   21.9102 C.ar    1  UNL1       -0.0045
     18 C         -11.0624  -19.3601   20.4527 C.ar    1  UNL1       -0.0003
     19 C          -9.8123  -19.1892   19.6417 C.ar    1  UNL1       -0.0003
     20 C          -8.4696  -19.3606   20.2881 C.ar    1  UNL1       -0.0032
     21 C          -8.3772  -19.7029   21.7456 C.ar    1  UNL1       -0.0101
@<TRIPOS>BOND
     1    15    16    1
     2    16    17   ar
     3    17    18   ar
     4    18    19   ar
     5    19    20   ar
     6    20    21   ar
     7    21    14    1
     8    14     1    1
     9     1     2    1
    10     2     3    1
    11     3     4    1
    12     4     5    1
    13     5     6    1
    14     6     7    1
    15     8     1    1
    16     8     9    1
    17     9    10    1
    18    10    11    1
    19    11    12    1
    20    21    16   ar
    21     7     2    1
    22    12     8    1
    23    11    13    1
@<TRIPOS>MOLECULE
*****
 21 23 0 0 0
SMALL
GASTEIGER

@<TRIPOS>ATOM
      1 N          -7.5389  -18.4246   22.6487 N.3     1  UNL1       -0.2700
      2 C          -7.2967  -17.1418   23.3876 C.3     1  UNL1        0.0628
      3 C          -8.4269  -16.4640   24.1041 C.3     1  UNL1        0.0481
      4 C          -8.1848  -15.1813   24.8429 C.3     1  UNL1        0.1435
      5 O          -6.8124  -14.5764   24.8654 O.3     1  UNL1       -0.3537
      6 C          -5.6822  -15.2541   24.1490 C.3     1  UNL1        0.1435
      7 C          -5.9243  -16.5368   23.4101 C.3     1  UNL1        0.0481
      8 C          -6.4941  -18.9617   21.7161 C.3     1  UNL1        0.0748
      9 C          -5.2043  -19.6133   22.1183 C.3     1  UNL1        0.0344
     10 C          -4.4686  -19.9958   20.8683 C.3     1  UNL1        0.0700
     11 N          -5.3038  -19.5806   19.6935 N.3     1  UNL1       -0.2963
     12 C          -6.5556  -18.9415   20.2175 C.3     1  UNL1        0.0847
     13 H          -5.5415  -20.3980   19.1316 H       1  UNL1        0.1233
     14 C          -8.8260  -19.1702   22.8425 C.3     1  UNL1        0.0988
     15 C         -11.2487  -18.9675   24.6002 C.3     1  UNL1        0.0307
     16 C         -11.3172  -18.5109   23.1730 C.ar    1  UNL1       -0.0245
     17 C         -12.5970  -17.9530   22.6247 C.ar    1  UNL1       -0.0045
     18 C         -12.6655  -17.4964   21.1975 C.ar    1  UNL1       -0.0003
     19 C         -11.4542  -17.5978   20.3187 C.ar    1  UNL1       -0.0003
     20 C         -10.1744  -18.1557   20.8670 C.ar    1  UNL1       -0.0032
     21 C         -10.1059  -18.6123   22.2942 C.ar    1  UNL1       -0.0101
@<TRIPOS>BOND
     1    15    16    1
     2    16    17   ar
     3    17    18   ar
     4    18    19   ar
     5    19    20   ar
     6    20    21   ar
     7    21    14    1
     8    14     1    1
     9     1     2    1
    10     2     3    1
    11     3     4    1
    12     4     5    1
    13     5     6    1
    14     6     7    1
    15     8     1    1
    16     8     9    1
    17     9    10    1
    18    10    11    1
    19    11    12    1
    20    21    16   ar
    21     7     2    1
    22    12     8    1
    23    11    13    1
@<TRIPOS>MOLECULE
*****
 21 23 0 0 0
SMALL
GASTEIGER

@<TRIPOS>ATOM
      1 N          -9.3725  -17.5638   23.0816 N.3     1  UNL1       -0.2700
      2 C         -10.5398  -17.2557   22.1915 C.3     1  UNL1        0.0628
      3 C         -10.3919  -16.2619   21.0776 C.3     1  UNL1        0.0481
      4 C         -11.5592  -15.9538   20.1875 C.3     1  UNL1        0.1435
      5 O         -12.8744  -16.6393   20.4112 O.3     1  UNL1       -0.3537
      6 C         -13.0224  -17.6330   21.5250 C.3     1  UNL1        0.1435
      7 C         -11.8551  -17.9412   22.4152 C.3     1  UNL1        0.0481
      8 C          -8.2938  -18.4930   22.6092 C.3     1  UNL1        0.0748
      9 C          -8.1696  -19.9475   22.9541 C.3     1  UNL1        0.0344
     10 C          -6.9490  -20.4843   22.2670 C.3     1  UNL1        0.0700
     11 N          -6.3189  -19.3615   21.4974 N.3     1  UNL1       -0.2963
     12 C          -7.1500  -18.1308   21.7089 C.3     1  UNL1        0.0847
     13 H          -6.2919  -19.5946   20.5048 H       1  UNL1        0.1233
     14 C          -9.2838  -16.9428   24.4441 C.3     1  UNL1        0.0988
     15 C          -8.6419  -16.7609   27.3690 C.3     1  UNL1        0.0307
     16 C          -7.6848  -16.2074   26.3553 C.ar    1  UNL1       -0.0245
     17 C          -6.4068  -15.5629   26.8040 C.ar    1  UNL1       -0.0045
     18 C          -5.4497  -15.0095   25.7903 C.ar    1  UNL1       -0.0003
     19 C          -5.7706  -15.1004   24.3279 C.ar    1  UNL1       -0.0003
     20 C          -7.0486  -15.7449   23.8792 C.ar    1  UNL1       -0.0032
     21 C          -8.0057  -16.2984   24.8929 C.ar    1  UNL1       -0.0101
@<TRIPOS>BOND
     1    15    16    1
     2    16    17   ar
     3    17    18   ar
     4    18    19   ar
     5    19    20   ar
     6    20    21   ar
     7    21    14    1
     8    14     1    1
     9     1     2    1
    10     2     3    1
    11     3     4    1
    12     4     5    1
    13     5     6    1
    14     6     7    1
    15     8     1    1
    16     8     9    1
    17     9    10    1
    18    10    11    1
    19    11    12    1
    20    21    16   ar
    21     7     2    1
    22    12     8    1
    23    11    13    1
@<TRIPOS>MOLECULE
*****
 21 23 0 0 0
SMALL
GASTEIGER

@<TRIPOS>ATOM
      1 N          -8.1018  -18.8247   22.6208 N.3     1  UNL1       -0.2700
      2 C          -8.0858  -17.4715   23.2678 C.3     1  UNL1        0.0628
      3 C          -7.6762  -16.2659   22.4749 C.3     1  UNL1        0.0481
      4 C          -7.6602  -14.9127   23.1218 C.3     1  UNL1        0.1435
      5 O          -8.0538  -14.7651   24.5616 O.3     1  UNL1       -0.3537
      6 C          -8.4635  -15.9707   25.3546 C.3     1  UNL1        0.1435
      7 C          -8.4795  -17.3239   24.7077 C.3     1  UNL1        0.0481
      8 C          -6.8855  -19.3258   21.9000 C.3     1  UNL1        0.0748
      9 C          -6.8807  -20.1661   20.6575 C.3     1  UNL1        0.0344
     10 C          -5.4527  -20.4342   20.2847 C.3     1  UNL1        0.0700
     11 N          -4.5749  -19.7596   21.2968 N.3     1  UNL1       -0.2963
     12 C          -5.4605  -19.0746   22.2951 C.3     1  UNL1        0.0847
     13 H          -3.9783  -19.0732   20.8349 H       1  UNL1        0.1233
     14 C          -9.3340  -19.6769   22.6947 C.3     1  UNL1        0.0988
     15 C         -10.5998  -18.4918   20.2465 C.3     1  UNL1        0.0307
     16 C         -11.3190  -18.4414   21.5619 C.ar    1  UNL1       -0.0245
     17 C         -12.6711  -17.7984   21.6532 C.ar    1  UNL1       -0.0045
     18 C         -13.3904  -17.7480   22.9685 C.ar    1  UNL1       -0.0003
     19 C         -12.7576  -18.3405   24.1926 C.ar    1  UNL1       -0.0003
     20 C         -11.4054  -18.9835   24.1013 C.ar    1  UNL1       -0.0032
     21 C         -10.6862  -19.0339   22.7859 C.ar    1  UNL1       -0.0101
@<TRIPOS>BOND
     1    15    16    1
     2    16    17   ar
     3    17    18   ar
     4    18    19   ar
     5    19    20   ar
     6    20    21   ar
     7    21    14    1
     8    14     1    1
     9     1     2    1
    10     2     3    1
    11     3     4    1
    12     4     5    1
    13     5     6    1
    14     6     7    1
    15     8     1    1
    16     8     9    1
    17     9    10    1
    18    10    11    1
    19    11    12    1
    20    21    16   ar
    21     7     2    1
    22    12     8    1
    23    11    13    1
