@<TRIPOS>MOLECULE
*****
 22 24 0 0 0
SMALL
GASTEIGER

@<TRIPOS>ATOM
      1 N           0.1896  -17.0662   19.9704 N.pl3   1  UNL1       -0.3375
      2 C          -1.1344  -17.6738   20.3278 C.ar    1  UNL1        0.1567
      3 N          -1.6782  -17.8496   21.7147 N.ar    1  UNL1       -0.2245
      4 C          -3.0270  -18.4967   21.6051 C.ar    1  UNL1        0.0894
      5 C          -4.0288  -18.9109   22.6419 C.ar    1  UNL1        0.0228
      6 C          -5.3203  -19.5491   22.2242 C.ar    1  UNL1        0.0385
      7 C          -5.6101  -19.7732   20.7696 C.ar    1  UNL1        0.1397
      8 C          -4.6084  -19.3591   19.7328 C.ar    1  UNL1        0.0450
      9 C          -3.3169  -18.7208   20.1506 C.ar    1  UNL1        0.0527
     10 S          -2.1472  -18.2122   19.3612 S.2     1  UNL1       -0.0519
     11 H           0.7889  -16.7394   20.6799 H       1  UNL1        0.1442
     12 H           0.4594  -16.9942   19.0264 H       1  UNL1        0.1442
     13 O          -6.9017  -20.4114   20.3519 O.3     1  UNL1       -0.4706
     14 C          -8.0202  -19.5639   19.8220 C.3     1  UNL1        0.2320
     15 C          -9.1797  -19.2135   20.7068 C.ar    1  UNL1        0.0221
     16 C         -10.4790  -18.7724   20.1009 C.ar    1  UNL1        0.0002
     17 C         -11.6385  -18.4221   20.9856 C.ar    1  UNL1        0.0120
     18 C         -11.4986  -18.5128   22.4763 C.ar    1  UNL1        0.0682
     19 CL        -12.6582  -18.1624   23.3611 Cl      1  UNL1       -0.0814
     20 C         -10.1993  -18.9539   23.0823 C.ar    1  UNL1        0.0680
     21 CL        -10.0595  -19.0447   24.5730 Cl      1  UNL1       -0.0814
     22 C          -9.0399  -19.3043   22.1975 C.ar    1  UNL1        0.0116
@<TRIPOS>BOND
     1     1     2    1
     2     2     3   ar
     3     3     4   ar
     4     4     5   ar
     5     5     6   ar
     6     6     7   ar
     7     7    13    1
     8    13    14    1
     9    14    15    1
    10    15    16   ar
    11    16    17   ar
    12    17    18   ar
    13    18    19    1
    14    18    20   ar
    15    20    21    1
    16    20    22   ar
    17     7     8   ar
    18     8     9   ar
    19     9    10   ar
    20    10     2   ar
    21     9     4   ar
    22    22    15   ar
    23     1    11    1
    24     1    12    1
@<TRIPOS>MOLECULE
*****
 22 24 0 0 0
SMALL
GASTEIGER

@<TRIPOS>ATOM
      1 N           0.3330  -17.1360   20.0996 N.pl3   1  UNL1       -0.3375
      2 C          -1.0114  -17.7644   20.3179 C.ar    1  UNL1        0.1567
      3 N          -1.5820  -18.9166   19.5455 N.ar    1  UNL1       -0.2245
      4 C          -2.9446  -19.2152   20.0972 C.ar    1  UNL1        0.0894
      5 C          -3.9731  -20.2432   19.7296 C.ar    1  UNL1        0.0228
      6 C          -5.2731  -20.3035   20.4754 C.ar    1  UNL1        0.0385
      7 C          -5.5446  -19.3358   21.5889 C.ar    1  UNL1        0.1397
      8 C          -4.5160  -18.3077   21.9565 C.ar    1  UNL1        0.0450
      9 C          -3.2160  -18.2474   21.2107 C.ar    1  UNL1        0.0527
     10 S          -2.0213  -17.3508   21.3471 S.2     1  UNL1       -0.0519
     11 H           0.9285  -17.4799   19.3950 H       1  UNL1        0.1442
     12 H           0.6199  -16.3797   20.6608 H       1  UNL1        0.1442
     13 O          -6.8447  -19.3961   22.3347 O.3     1  UNL1       -0.4706
     14 C          -7.5431  -18.1283   22.7283 C.3     1  UNL1        0.2320
     15 C          -9.0098  -18.1463   23.0422 C.ar    1  UNL1        0.0221
     16 C          -9.6010  -19.2996   23.7973 C.ar    1  UNL1        0.0002
     17 C         -11.0677  -19.3176   24.1112 C.ar    1  UNL1        0.0120
     18 C         -11.9431  -18.1823   23.6699 C.ar    1  UNL1        0.0682
     19 CL        -13.4098  -18.2003   23.9838 Cl      1  UNL1       -0.0814
     20 C         -11.3519  -17.0290   22.9148 C.ar    1  UNL1        0.0680
     21 CL        -12.2273  -15.8937   22.4735 Cl      1  UNL1       -0.0814
     22 C          -9.8852  -17.0110   22.6009 C.ar    1  UNL1        0.0116
@<TRIPOS>BOND
     1     1     2    1
     2     2     3   ar
     3     3     4   ar
     4     4     5   ar
     5     5     6   ar
     6     6     7   ar
     7     7    13    1
     8    13    14    1
     9    14    15    1
    10    15    16   ar
    11    16    17   ar
    12    17    18   ar
    13    18    19    1
    14    18    20   ar
    15    20    21    1
    16    20    22   ar
    17     7     8   ar
    18     8     9   ar
    19     9    10   ar
    20    10     2   ar
    21     9     4   ar
    22    22    15   ar
    23     1    11    1
    24     1    12    1
@<TRIPOS>MOLECULE
*****
 22 24 0 0 0
SMALL
GASTEIGER

@<TRIPOS>ATOM
      1 N         -12.8814  -15.8534   19.6886 N.pl3   1  UNL1       -0.3375
      2 C         -11.6682  -16.4805   20.3090 C.ar    1  UNL1        0.1567
      3 N         -10.8015  -15.8656   21.3677 N.ar    1  UNL1       -0.2245
      4 C          -9.7064  -16.8377   21.6926 C.ar    1  UNL1        0.0894
      5 C          -8.5608  -16.7729   22.6588 C.ar    1  UNL1        0.0228
      6 C          -7.6051  -17.9239   22.7672 C.ar    1  UNL1        0.0385
      7 C          -7.7949  -19.1397   21.9093 C.ar    1  UNL1        0.1397
      8 C          -8.9405  -19.2045   20.9431 C.ar    1  UNL1        0.0450
      9 C          -9.8962  -18.0535   20.8348 C.ar    1  UNL1        0.0527
     10 S         -11.1086  -17.8327   19.9797 S.2     1  UNL1       -0.0519
     11 H         -13.1716  -14.9565   19.9727 H       1  UNL1        0.1442
     12 H         -13.3874  -16.3386   18.9975 H       1  UNL1        0.1442
     13 O          -6.8392  -20.2907   22.0177 O.3     1  UNL1       -0.4706
     14 C          -5.7159  -20.4281   21.0331 C.3     1  UNL1        0.2320
     15 C          -4.5900  -19.4370   21.0367 C.ar    1  UNL1        0.0221
     16 C          -4.1411  -18.8165   22.3264 C.ar    1  UNL1        0.0002
     17 C          -3.0152  -17.8254   22.3299 C.ar    1  UNL1        0.0120
     18 C          -2.3381  -17.4549   21.0437 C.ar    1  UNL1        0.0682
     19 CL         -1.2122  -16.4638   21.0473 Cl      1  UNL1       -0.0814
     20 C          -2.7870  -18.0754   19.7540 C.ar    1  UNL1        0.0680
     21 CL         -2.1100  -17.7049   18.4678 Cl      1  UNL1       -0.0814
     22 C          -3.9129  -19.0665   19.7505 C.ar    1  UNL1        0.0116
@<TRIPOS>BOND
     1     1     2    1
     2     2     3   ar
     3     3     4   ar
     4     4     5   ar
     5     5     6   ar
     6     6     7   ar
     7     7    13    1
     8    13    14    1
     9    14    15    1
    10    15    16   ar
    11    16    17   ar
    12    17    18   ar
    13    18    19    1
    14    18    20   ar
    15    20    21    1
    16    20    22   ar
    17     7     8   ar
    18     8     9   ar
    19     9    10   ar
    20    10     2   ar
    21     9     4   ar
    22    22    15   ar
    23     1    11    1
    24     1    12    1
@<TRIPOS>MOLECULE
*****
 22 24 0 0 0
SMALL
GASTEIGER

@<TRIPOS>ATOM
      1 N         -14.0793  -17.8046   24.2378 N.pl3   1  UNL1       -0.3375
      2 C         -12.7743  -18.1917   23.6076 C.ar    1  UNL1        0.1567
      3 N         -12.4014  -18.0055   22.1667 N.ar    1  UNL1       -0.2245
      4 C         -11.0097  -18.5316   21.9762 C.ar    1  UNL1        0.0894
      5 C         -10.1232  -18.6111   20.7688 C.ar    1  UNL1        0.0228
      6 C          -8.7494  -19.2020   20.8847 C.ar    1  UNL1        0.0385
      7 C          -8.2621  -19.7134   22.2080 C.ar    1  UNL1        0.1397
      8 C          -9.1486  -19.6338   23.4154 C.ar    1  UNL1        0.0450
      9 C         -10.5224  -19.0430   23.2995 C.ar    1  UNL1        0.0527
     10 S         -11.6129  -18.8329   24.3077 S.2     1  UNL1       -0.0519
     11 H         -14.7845  -17.3869   23.6924 H       1  UNL1        0.1442
     12 H         -14.2305  -17.9682   25.1967 H       1  UNL1        0.1442
     13 O          -6.8882  -20.3043   22.3238 O.3     1  UNL1       -0.4706
     14 C          -5.9608  -20.2831   21.1451 C.3     1  UNL1        0.2320
     15 C          -4.7806  -19.3573   21.1359 C.ar    1  UNL1        0.0221
     16 C          -4.3964  -18.6193   22.3840 C.ar    1  UNL1        0.0002
     17 C          -3.2163  -17.6936   22.3747 C.ar    1  UNL1        0.0120
     18 C          -2.4202  -17.5058   21.1173 C.ar    1  UNL1        0.0682
     19 CL         -1.2400  -16.5800   21.1081 Cl      1  UNL1       -0.0814
     20 C          -2.8044  -18.2437   19.8692 C.ar    1  UNL1        0.0680
     21 CL         -2.0083  -18.0559   18.6118 Cl      1  UNL1       -0.0814
     22 C          -3.9845  -19.1694   19.8785 C.ar    1  UNL1        0.0116
@<TRIPOS>BOND
     1     1     2    1
     2     2     3   ar
     3     3     4   ar
     4     4     5   ar
     5     5     6   ar
     6     6     7   ar
     7     7    13    1
     8    13    14    1
     9    14    15    1
    10    15    16   ar
    11    16    17   ar
    12    17    18   ar
    13    18    19    1
    14    18    20   ar
    15    20    21    1
    16    20    22   ar
    17     7     8   ar
    18     8     9   ar
    19     9    10   ar
    20    10     2   ar
    21     9     4   ar
    22    22    15   ar
    23     1    11    1
    24     1    12    1
@<TRIPOS>MOLECULE
*****
 22 24 0 0 0
SMALL
GASTEIGER

@<TRIPOS>ATOM
      1 N         -13.0118  -16.3824   20.5454 N.pl3   1  UNL1       -0.3375
      2 C         -11.9170  -17.2581   21.0789 C.ar    1  UNL1        0.1567
      3 N         -12.0179  -18.1726   22.2636 N.ar    1  UNL1       -0.2245
      4 C         -10.6924  -18.8527   22.4384 C.ar    1  UNL1        0.0894
      5 C         -10.2043  -19.8582   23.4388 C.ar    1  UNL1        0.0228
      6 C          -8.7963  -20.3694   23.3625 C.ar    1  UNL1        0.0385
      7 C          -7.8762  -19.8753   22.2858 C.ar    1  UNL1        0.1397
      8 C          -8.3643  -18.8699   21.2854 C.ar    1  UNL1        0.0450
      9 C          -9.7723  -18.3586   21.3617 C.ar    1  UNL1        0.0527
     10 S         -10.5292  -17.3731   20.5215 S.2     1  UNL1       -0.0519
     11 H         -13.8940  -16.3759   20.9823 H       1  UNL1        0.1442
     12 H         -12.8481  -15.8142   19.7582 H       1  UNL1        0.1442
     13 O          -6.4681  -20.3866   22.2096 O.3     1  UNL1       -0.4706
     14 C          -5.3243  -19.4936   22.5892 C.3     1  UNL1        0.2320
     15 C          -4.3341  -19.0598   21.5492 C.ar    1  UNL1        0.0221
     16 C          -4.3306  -19.7123   20.1986 C.ar    1  UNL1        0.0002
     17 C          -3.3405  -19.2785   19.1587 C.ar    1  UNL1        0.0120
     18 C          -2.3539  -18.1922   19.4694 C.ar    1  UNL1        0.0682
     19 CL         -1.3638  -17.7584   18.4294 Cl      1  UNL1       -0.0814
     20 C          -2.3574  -17.5397   20.8200 C.ar    1  UNL1        0.0680
     21 CL         -1.3708  -16.4534   21.1307 Cl      1  UNL1       -0.0814
     22 C          -3.3475  -17.9735   21.8599 C.ar    1  UNL1        0.0116
@<TRIPOS>BOND
     1     1     2    1
     2     2     3   ar
     3     3     4   ar
     4     4     5   ar
     5     5     6   ar
     6     6     7   ar
     7     7    13    1
     8    13    14    1
     9    14    15    1
    10    15    16   ar
    11    16    17   ar
    12    17    18   ar
    13    18    19    1
    14    18    20   ar
    15    20    21    1
    16    20    22   ar
    17     7     8   ar
    18     8     9   ar
    19     9    10   ar
    20    10     2   ar
    21     9     4   ar
    22    22    15   ar
    23     1    11    1
    24     1    12    1
@<TRIPOS>MOLECULE
*****
 22 24 0 0 0
SMALL
GASTEIGER

@<TRIPOS>ATOM
      1 N          -7.6615  -14.7049   27.3387 N.pl3   1  UNL1       -0.3375
      2 C          -8.0023  -15.5739   26.1646 C.ar    1  UNL1        0.1567
      3 N          -9.0286  -16.6677   26.1456 N.ar    1  UNL1       -0.2245
      4 C          -9.0373  -17.2716   24.7726 C.ar    1  UNL1        0.0894
      5 C          -9.8430  -18.3844   24.1706 C.ar    1  UNL1        0.0228
      6 C          -9.6276  -18.7768   22.7390 C.ar    1  UNL1        0.0385
      7 C          -8.6066  -18.0562   21.9093 C.ar    1  UNL1        0.1397
      8 C          -7.8010  -16.9433   22.5112 C.ar    1  UNL1        0.0450
      9 C          -8.0163  -16.5510   23.9429 C.ar    1  UNL1        0.0527
     10 S          -7.3767  -15.5018   24.8032 S.2     1  UNL1       -0.0519
     11 H          -8.1300  -14.8293   28.1956 H       1  UNL1        0.1442
     12 H          -6.9693  -14.0101   27.2524 H       1  UNL1        0.1442
     13 O          -8.3913  -18.4486   20.4775 O.3     1  UNL1       -0.4706
     14 C          -7.3781  -19.4993   20.1321 C.3     1  UNL1        0.2320
     15 C          -5.9568  -19.3492   20.5877 C.ar    1  UNL1        0.0221
     16 C          -5.5969  -19.6103   22.0203 C.ar    1  UNL1        0.0002
     17 C          -4.1757  -19.4603   22.4759 C.ar    1  UNL1        0.0120
     18 C          -3.1144  -19.0491   21.4989 C.ar    1  UNL1        0.0682
     19 CL         -1.6931  -18.8990   21.9545 Cl      1  UNL1       -0.0814
     20 C          -3.4742  -18.7880   20.0663 C.ar    1  UNL1        0.0680
     21 CL         -2.4129  -18.3768   19.0894 Cl      1  UNL1       -0.0814
     22 C          -4.8955  -18.9380   19.6108 C.ar    1  UNL1        0.0116
@<TRIPOS>BOND
     1     1     2    1
     2     2     3   ar
     3     3     4   ar
     4     4     5   ar
     5     5     6   ar
     6     6     7   ar
     7     7    13    1
     8    13    14    1
     9    14    15    1
    10    15    16   ar
    11    16    17   ar
    12    17    18   ar
    13    18    19    1
    14    18    20   ar
    15    20    21    1
    16    20    22   ar
    17     7     8   ar
    18     8     9   ar
    19     9    10   ar
    20    10     2   ar
    21     9     4   ar
    22    22    15   ar
    23     1    11    1
    24     1    12    1
@<TRIPOS>MOLECULE
*****
 22 24 0 0 0
SMALL
GASTEIGER

@<TRIPOS>ATOM
      1 N          -9.1553  -14.9384   25.1414 N.pl3   1  UNL1       -0.3375
      2 C          -8.9257  -15.9510   24.0589 C.ar    1  UNL1        0.1567
      3 N          -9.9732  -16.5238   23.1508 N.ar    1  UNL1       -0.2245
      4 C          -9.3032  -17.4954   22.2250 C.ar    1  UNL1        0.0894
      5 C          -9.8352  -18.3585   21.1196 C.ar    1  UNL1        0.0228
      6 C          -8.9056  -19.2493   20.3501 C.ar    1  UNL1        0.0385
      7 C          -7.4439  -19.2770   20.6860 C.ar    1  UNL1        0.1397
      8 C          -6.9119  -18.4140   21.7915 C.ar    1  UNL1        0.0450
      9 C          -7.8416  -17.5232   22.5610 C.ar    1  UNL1        0.0527
     10 S          -7.6083  -16.5687   23.6943 S.2     1  UNL1       -0.0519
     11 H         -10.0614  -14.5903   25.3057 H       1  UNL1        0.1442
     12 H          -8.3998  -14.6218   25.6876 H       1  UNL1        0.1442
     13 O          -6.5143  -20.1679   19.9164 O.3     1  UNL1       -0.4706
     14 C          -5.2585  -20.6764   20.5602 C.3     1  UNL1        0.2320
     15 C          -4.0113  -19.8434   20.5328 C.ar    1  UNL1        0.0221
     16 C          -3.1843  -19.6903   21.7748 C.ar    1  UNL1        0.0002
     17 C          -1.9371  -18.8574   21.7474 C.ar    1  UNL1        0.0120
     18 C          -1.5170  -18.1775   20.4780 C.ar    1  UNL1        0.0682
     19 CL         -0.2698  -17.3445   20.4507 Cl      1  UNL1       -0.0814
     20 C          -2.3441  -18.3306   19.2361 C.ar    1  UNL1        0.0680
     21 CL         -1.9239  -17.6507   17.9667 Cl      1  UNL1       -0.0814
     22 C          -3.5912  -19.1636   19.2634 C.ar    1  UNL1        0.0116
@<TRIPOS>BOND
     1     1     2    1
     2     2     3   ar
     3     3     4   ar
     4     4     5   ar
     5     5     6   ar
     6     6     7   ar
     7     7    13    1
     8    13    14    1
     9    14    15    1
    10    15    16   ar
    11    16    17   ar
    12    17    18   ar
    13    18    19    1
    14    18    20   ar
    15    20    21    1
    16    20    22   ar
    17     7     8   ar
    18     8     9   ar
    19     9    10   ar
    20    10     2   ar
    21     9     4   ar
    22    22    15   ar
    23     1    11    1
    24     1    12    1
@<TRIPOS>MOLECULE
*****
 22 24 0 0 0
SMALL
GASTEIGER

@<TRIPOS>ATOM
      1 N          -5.1030  -15.1711   25.2081 N.pl3   1  UNL1       -0.3375
      2 C          -5.3318  -16.2484   24.1897 C.ar    1  UNL1        0.1567
      3 N          -4.3152  -17.2449   23.7167 N.ar    1  UNL1       -0.2245
      4 C          -4.9724  -18.1307   22.7001 C.ar    1  UNL1        0.0894
      5 C          -4.4591  -19.2881   21.8959 C.ar    1  UNL1        0.0228
      6 C          -5.3686  -19.9965   20.9362 C.ar    1  UNL1        0.0385
      7 C          -6.7914  -19.5475   20.7809 C.ar    1  UNL1        0.1397
      8 C          -7.3046  -18.3901   21.5851 C.ar    1  UNL1        0.0450
      9 C          -6.3952  -17.6817   22.5448 C.ar    1  UNL1        0.0527
     10 S          -6.6172  -16.5184   23.4654 S.2     1  UNL1       -0.0519
     11 H          -4.2192  -15.0728   25.6306 H       1  UNL1        0.1442
     12 H          -5.8366  -14.5624   25.4540 H       1  UNL1        0.1442
     13 O          -7.7009  -20.2560   19.8212 O.3     1  UNL1       -0.4706
     14 C          -8.9232  -19.5632   19.2959 C.3     1  UNL1        0.2320
     15 C         -10.0034  -19.1282   20.2416 C.ar    1  UNL1        0.0221
     16 C         -10.3394  -19.9717   21.4355 C.ar    1  UNL1        0.0002
     17 C         -11.4195  -19.5366   22.3810 C.ar    1  UNL1        0.0120
     18 C         -12.1635  -18.2580   22.1326 C.ar    1  UNL1        0.0682
     19 CL        -13.2437  -17.8230   23.0782 Cl      1  UNL1       -0.0814
     20 C         -11.8275  -17.4146   20.9387 C.ar    1  UNL1        0.0680
     21 CL        -12.5715  -16.1360   20.6903 Cl      1  UNL1       -0.0814
     22 C         -10.7474  -17.8496   19.9932 C.ar    1  UNL1        0.0116
@<TRIPOS>BOND
     1     1     2    1
     2     2     3   ar
     3     3     4   ar
     4     4     5   ar
     5     5     6   ar
     6     6     7   ar
     7     7    13    1
     8    13    14    1
     9    14    15    1
    10    15    16   ar
    11    16    17   ar
    12    17    18   ar
    13    18    19    1
    14    18    20   ar
    15    20    21    1
    16    20    22   ar
    17     7     8   ar
    18     8     9   ar
    19     9    10   ar
    20    10     2   ar
    21     9     4   ar
    22    22    15   ar
    23     1    11    1
    24     1    12    1
@<TRIPOS>MOLECULE
*****
 22 24 0 0 0
SMALL
GASTEIGER

@<TRIPOS>ATOM
      1 N         -19.4007   -9.5391   19.9598 N.pl3   1  UNL1       -0.3375
      2 C         -18.1562   -9.1333   19.2273 C.ar    1  UNL1        0.1567
      3 N         -18.1001   -8.4896   17.8736 N.ar    1  UNL1       -0.2245
      4 C         -16.6585   -8.2584   17.5296 C.ar    1  UNL1        0.0894
      5 C         -15.9982   -7.6566   16.3247 C.ar    1  UNL1        0.0228
      6 C         -14.5030   -7.5555   16.2610 C.ar    1  UNL1        0.0385
      7 C         -13.6681   -8.0563   17.4021 C.ar    1  UNL1        0.1397
      8 C         -14.3284   -8.6581   18.6070 C.ar    1  UNL1        0.0450
      9 C         -15.8236   -8.7591   18.6707 C.ar    1  UNL1        0.0527
     10 S         -16.7492   -9.2998   19.7200 S.2     1  UNL1       -0.0519
     11 H         -20.2837   -9.3876   19.5516 H       1  UNL1        0.1442
     12 H         -19.3345   -9.9569   20.8488 H       1  UNL1        0.1442
     13 O         -12.1728   -7.9552   17.3383 O.3     1  UNL1       -0.4706
     14 C         -11.4189   -7.2798   18.4452 C.3     1  UNL1        0.2320
     15 C         -11.4616   -5.7863   18.5794 C.ar    1  UNL1        0.0221
     16 C         -10.4192   -4.9428   17.9071 C.ar    1  UNL1        0.0002
     17 C         -10.4620   -3.4495   18.0413 C.ar    1  UNL1        0.0120
     18 C         -11.5470   -2.7996   18.8478 C.ar    1  UNL1        0.0682
     19 CL        -11.5897   -1.3062   18.9819 Cl      1  UNL1       -0.0814
     20 C         -12.5893   -3.6431   19.5201 C.ar    1  UNL1        0.0680
     21 CL        -13.6743   -2.9933   20.3265 Cl      1  UNL1       -0.0814
     22 C         -12.5466   -5.1365   19.3859 C.ar    1  UNL1        0.0116
@<TRIPOS>BOND
     1     1     2    1
     2     2     3   ar
     3     3     4   ar
     4     4     5   ar
     5     5     6   ar
     6     6     7   ar
     7     7    13    1
     8    13    14    1
     9    14    15    1
    10    15    16   ar
    11    16    17   ar
    12    17    18   ar
    13    18    19    1
    14    18    20   ar
    15    20    21    1
    16    20    22   ar
    17     7     8   ar
    18     8     9   ar
    19     9    10   ar
    20    10     2   ar
    21     9     4   ar
    22    22    15   ar
    23     1    11    1
    24     1    12    1
