@<TRIPOS>MOLECULE
*****
 15 16 0 0 0
SMALL
GASTEIGER

@<TRIPOS>ATOM
      1 C           6.8679  -13.1089   28.8156 C.ar    1  UNL1        0.1677
      2 C           6.4646  -11.7444   28.3405 C.ar    1  UNL1        0.0424
      3 C           4.9754  -11.7376   28.1610 C.ar    1  UNL1        0.0407
      4 C           4.4584  -13.0978   28.5250 C.ar    1  UNL1        0.1469
      5 O           5.6280  -13.9453   28.9296 O.2     1  UNL1       -0.4518
      6 C           3.0236  -13.5340   28.4905 C.ar    1  UNL1        0.0537
      7 C           1.9528  -12.6339   29.0320 C.ar    1  UNL1        0.0062
      8 C           0.5181  -13.0701   28.9975 C.ar    1  UNL1        0.0208
      9 C           0.1541  -14.4063   28.4215 C.ar    1  UNL1        0.0989
     10 N           1.2248  -15.3065   27.8799 N.ar    1  UNL1       -0.2422
     11 C           2.6596  -14.8703   27.9145 C.ar    1  UNL1        0.1019
     12 O           7.3241  -15.4961   30.5744 O.2     1  UNL1       -0.4086
     13 N           8.4939  -14.7516   30.0021 N.2     1  UNL1       -0.0814
     14 C           8.2658  -13.5580   29.1227 C.2     1  UNL1        0.1771
     15 H           7.4665  -16.2417   31.1237 H       1  UNL1        0.3278
@<TRIPOS>BOND
     1    12    13    1
     2    13    14    2
     3    14     1    1
     4     1     2   ar
     5     2     3   ar
     6     3     4   ar
     7     4     6    1
     8     6     7   ar
     9     7     8   ar
    10     8     9   ar
    11     9    10   ar
    12    10    11   ar
    13     4     5   ar
    14     5     1   ar
    15    11     6   ar
    16    12    15    1
@<TRIPOS>MOLECULE
*****
 15 16 0 0 0
SMALL
GASTEIGER

@<TRIPOS>ATOM
      1 C          -3.8686  -19.2613   19.7467 C.ar    1  UNL1        0.1677
      2 C          -4.1426  -20.7066   20.0402 C.ar    1  UNL1        0.0424
      3 C          -5.6125  -20.8564   20.2989 C.ar    1  UNL1        0.0407
      4 C          -6.2469  -19.5037   20.1654 C.ar    1  UNL1        0.1469
      5 O          -5.1691  -18.5179   19.8242 O.2     1  UNL1       -0.4518
      6 C          -7.7035  -19.1917   20.3422 C.ar    1  UNL1        0.0537
      7 C          -8.7023  -19.6779   19.3343 C.ar    1  UNL1        0.0062
      8 C         -10.1588  -19.3658   19.5111 C.ar    1  UNL1        0.0208
      9 C         -10.6164  -18.5676   20.6958 C.ar    1  UNL1        0.0989
     10 N          -9.6176  -18.0815   21.7037 N.ar    1  UNL1       -0.2422
     11 C          -8.1611  -18.3935   21.5269 C.ar    1  UNL1        0.1019
     12 O          -3.6985  -16.6475   18.2841 O.2     1  UNL1       -0.4086
     13 N          -2.4441  -17.3573   18.7000 N.2     1  UNL1       -0.0814
     14 C          -2.5292  -18.6642   19.4313 C.2     1  UNL1        0.1771
     15 H          -3.6453  -15.8311   17.8273 H       1  UNL1        0.3278
@<TRIPOS>BOND
     1    12    13    1
     2    13    14    2
     3    14     1    1
     4     1     2   ar
     5     2     3   ar
     6     3     4   ar
     7     4     6    1
     8     6     7   ar
     9     7     8   ar
    10     8     9   ar
    11     9    10   ar
    12    10    11   ar
    13     4     5   ar
    14     5     1   ar
    15    11     6   ar
    16    12    15    1
@<TRIPOS>MOLECULE
*****
 15 16 0 0 0
SMALL
GASTEIGER

@<TRIPOS>ATOM
      1 C         -11.4988  -17.2502   22.6884 C.ar    1  UNL1        0.1677
      2 C         -11.4044  -18.4282   23.6124 C.ar    1  UNL1        0.0424
      3 C         -10.2459  -18.1998   24.5375 C.ar    1  UNL1        0.0407
      4 C          -9.6244  -16.8808   24.1853 C.ar    1  UNL1        0.1469
      5 O         -10.3988  -16.2939   23.0426 O.2     1  UNL1       -0.4518
      6 C          -8.4370  -16.2581   24.8579 C.ar    1  UNL1        0.0537
      7 C          -8.3349  -16.2625   26.3544 C.ar    1  UNL1        0.0062
      8 C          -7.1475  -15.6397   27.0269 C.ar    1  UNL1        0.0208
      9 C          -6.0623  -15.0126   26.2029 C.ar    1  UNL1        0.0989
     10 N          -6.1644  -15.0081   24.7064 N.ar    1  UNL1       -0.2422
     11 C          -7.3518  -15.6309   24.0339 C.ar    1  UNL1        0.1019
     12 O         -10.6886  -16.0203   20.0749 O.2     1  UNL1       -0.4086
     13 N         -12.1099  -16.4467   20.2945 N.2     1  UNL1       -0.0814
     14 C         -12.5150  -17.0617   21.6013 C.2     1  UNL1        0.1771
     15 H         -10.4355  -15.6361   19.2586 H       1  UNL1        0.3278
@<TRIPOS>BOND
     1    12    13    1
     2    13    14    2
     3    14     1    1
     4     1     2   ar
     5     2     3   ar
     6     3     4   ar
     7     4     6    1
     8     6     7   ar
     9     7     8   ar
    10     8     9   ar
    11     9    10   ar
    12    10    11   ar
    13     4     5   ar
    14     5     1   ar
    15    11     6   ar
    16    12    15    1
@<TRIPOS>MOLECULE
*****
 15 16 0 0 0
SMALL
GASTEIGER

@<TRIPOS>ATOM
      1 C          -8.2023  -18.3593   21.6749 C.ar    1  UNL1        0.1677
      2 C          -8.0364  -19.7131   22.2992 C.ar    1  UNL1        0.0424
      3 C          -6.6079  -20.1341   22.1200 C.ar    1  UNL1        0.0407
      4 C          -5.8910  -19.0405   21.3851 C.ar    1  UNL1        0.1469
      5 O          -6.8764  -17.9437   21.1100 O.2     1  UNL1       -0.4518
      6 C          -4.4428  -19.0434   20.9939 C.ar    1  UNL1        0.0537
      7 C          -4.0450  -18.7027   19.5883 C.ar    1  UNL1        0.0062
      8 C          -2.5969  -18.7056   19.1972 C.ar    1  UNL1        0.0208
      9 C          -1.5467  -19.0491   20.2116 C.ar    1  UNL1        0.0989
     10 N          -1.9446  -19.3898   21.6172 N.ar    1  UNL1       -0.2422
     11 C          -3.3926  -19.3869   22.0083 C.ar    1  UNL1        0.1019
     12 O          -8.0865  -15.3702   21.4469 O.2     1  UNL1       -0.4086
     13 N          -9.4136  -16.0667   21.5105 N.2     1  UNL1       -0.0814
     14 C          -9.4715  -17.5613   21.6245 C.2     1  UNL1        0.1771
     15 H          -8.0504  -14.4366   21.3757 H       1  UNL1        0.3278
@<TRIPOS>BOND
     1    12    13    1
     2    13    14    2
     3    14     1    1
     4     1     2   ar
     5     2     3   ar
     6     3     4   ar
     7     4     6    1
     8     6     7   ar
     9     7     8   ar
    10     8     9   ar
    11     9    10   ar
    12    10    11   ar
    13     4     5   ar
    14     5     1   ar
    15    11     6   ar
    16    12    15    1
@<TRIPOS>MOLECULE
*****
 15 16 0 0 0
SMALL
GASTEIGER

@<TRIPOS>ATOM
      1 C          -6.8095  -19.5752   20.2736 C.ar    1  UNL1        0.1677
      2 C          -6.1103  -20.9020   20.2406 C.ar    1  UNL1        0.0424
      3 C          -4.6330  -20.6463   20.1967 C.ar    1  UNL1        0.0407
      4 C          -4.4190  -19.1617   20.2025 C.ar    1  UNL1        0.1469
      5 O          -5.7642  -18.4997   20.2500 O.2     1  UNL1       -0.4518
      6 C          -3.0927  -18.4618   20.1671 C.ar    1  UNL1        0.0537
      7 C          -2.7058  -17.5312   21.2780 C.ar    1  UNL1        0.0062
      8 C          -1.3795  -16.8314   21.2425 C.ar    1  UNL1        0.0208
      9 C          -0.4401  -17.0623   20.0961 C.ar    1  UNL1        0.0989
     10 N          -0.8270  -17.9930   18.9852 N.ar    1  UNL1       -0.2422
     11 C          -2.1533  -18.6928   19.0207 C.ar    1  UNL1        0.1019
     12 O          -7.9231  -17.0373   21.4221 O.2     1  UNL1       -0.4086
     13 N          -8.8503  -18.0926   20.8959 N.2     1  UNL1       -0.0814
     14 C          -8.2934  -19.3616   20.3216 C.2     1  UNL1        0.1771
     15 H          -8.2709  -16.2447   21.7808 H       1  UNL1        0.3278
@<TRIPOS>BOND
     1    12    13    1
     2    13    14    2
     3    14     1    1
     4     1     2   ar
     5     2     3   ar
     6     3     4   ar
     7     4     6    1
     8     6     7   ar
     9     7     8   ar
    10     8     9   ar
    11     9    10   ar
    12    10    11   ar
    13     4     5   ar
    14     5     1   ar
    15    11     6   ar
    16    12    15    1
@<TRIPOS>MOLECULE
*****
 15 16 0 0 0
SMALL
GASTEIGER

@<TRIPOS>ATOM
      1 C          -6.6209  -15.7428   24.0842 C.ar    1  UNL1        0.1677
      2 C          -7.4450  -15.3655   25.2794 C.ar    1  UNL1        0.0424
      3 C          -8.8787  -15.6821   24.9725 C.ar    1  UNL1        0.0407
      4 C          -8.9407  -16.2551   23.5877 C.ar    1  UNL1        0.1469
      5 O          -7.5453  -16.2926   23.0386 O.2     1  UNL1       -0.4518
      6 C         -10.1805  -16.7106   22.8767 C.ar    1  UNL1        0.0537
      7 C         -11.1354  -17.6452   23.5583 C.ar    1  UNL1        0.0062
      8 C         -12.3752  -18.1006   22.8473 C.ar    1  UNL1        0.0208
      9 C         -12.6599  -17.6216   21.4547 C.ar    1  UNL1        0.0989
     10 N         -11.7050  -16.6871   20.7730 N.ar    1  UNL1       -0.2422
     11 C         -10.4652  -16.2316   21.4840 C.ar    1  UNL1        0.1019
     12 O          -5.0385  -17.7790   22.5512 O.2     1  UNL1       -0.4086
     13 N          -4.3423  -16.6141   23.1904 N.2     1  UNL1       -0.0814
     14 C          -5.1335  -15.5960   23.9568 C.2     1  UNL1        0.1771
     15 H          -4.5443  -18.4149   22.0723 H       1  UNL1        0.3278
@<TRIPOS>BOND
     1    12    13    1
     2    13    14    2
     3    14     1    1
     4     1     2   ar
     5     2     3   ar
     6     3     4   ar
     7     4     6    1
     8     6     7   ar
     9     7     8   ar
    10     8     9   ar
    11     9    10   ar
    12    10    11   ar
    13     4     5   ar
    14     5     1   ar
    15    11     6   ar
    16    12    15    1
@<TRIPOS>MOLECULE
*****
 15 16 0 0 0
SMALL
GASTEIGER

@<TRIPOS>ATOM
      1 C          -3.4460  -19.0818   20.3423 C.ar    1  UNL1        0.1677
      2 C          -4.0217  -20.3940   19.8987 C.ar    1  UNL1        0.0424
      3 C          -5.3902  -20.5262   20.4985 C.ar    1  UNL1        0.0407
      4 C          -5.6603  -19.2956   21.3127 C.ar    1  UNL1        0.1469
      5 O          -4.4587  -18.4030   21.2162 O.2     1  UNL1       -0.4518
      6 C          -6.9122  -19.0082   22.0874 C.ar    1  UNL1        0.0537
      7 C          -7.8184  -20.1328   22.4925 C.ar    1  UNL1        0.0062
      8 C          -9.0702  -19.8454   23.2672 C.ar    1  UNL1        0.0208
      9 C          -9.4159  -18.4334   23.6368 C.ar    1  UNL1        0.0989
     10 N          -8.5098  -17.3088   23.2317 N.ar    1  UNL1       -0.2422
     11 C          -7.2579  -17.5962   22.4570 C.ar    1  UNL1        0.1019
     12 O          -2.5967  -16.3743   21.3159 O.2     1  UNL1       -0.4086
     13 N          -1.6701  -17.1893   20.4630 N.2     1  UNL1       -0.0814
     14 C          -2.0947  -18.5431   19.9763 C.2     1  UNL1        0.1771
     15 H          -2.3315  -15.5286   21.6200 H       1  UNL1        0.3278
@<TRIPOS>BOND
     1    12    13    1
     2    13    14    2
     3    14     1    1
     4     1     2   ar
     5     2     3   ar
     6     3     4   ar
     7     4     6    1
     8     6     7   ar
     9     7     8   ar
    10     8     9   ar
    11     9    10   ar
    12    10    11   ar
    13     4     5   ar
    14     5     1   ar
    15    11     6   ar
    16    12    15    1
@<TRIPOS>MOLECULE
*****
 15 16 0 0 0
SMALL
GASTEIGER

@<TRIPOS>ATOM
      1 C          -7.4287  -15.9310   25.9630 C.ar    1  UNL1        0.1677
      2 C          -8.3398  -16.7804   26.7988 C.ar    1  UNL1        0.0424
      3 C          -9.4184  -17.3198   25.9068 C.ar    1  UNL1        0.0407
      4 C          -9.1740  -16.8037   24.5197 C.ar    1  UNL1        0.1469
      5 O          -7.9443  -15.9454   24.5545 O.2     1  UNL1       -0.4518
      6 C         -10.0121  -17.0949   23.3102 C.ar    1  UNL1        0.0537
      7 C         -11.3764  -17.6974   23.4705 C.ar    1  UNL1        0.0062
      8 C         -12.2145  -17.9885   22.2611 C.ar    1  UNL1        0.0208
      9 C         -11.6883  -17.6772   20.8914 C.ar    1  UNL1        0.0989
     10 N         -10.3240  -17.0747   20.7311 N.ar    1  UNL1       -0.2422
     11 C          -9.4860  -16.7835   21.9405 C.ar    1  UNL1        0.1019
     12 O          -5.4937  -14.7586   23.9929 O.2     1  UNL1       -0.4086
     13 N          -5.2476  -14.6099   25.4652 N.2     1  UNL1       -0.0814
     14 C          -6.2152  -15.1961   26.4502 C.2     1  UNL1        0.1771
     15 H          -4.8893  -14.3924   23.3776 H       1  UNL1        0.3278
@<TRIPOS>BOND
     1    12    13    1
     2    13    14    2
     3    14     1    1
     4     1     2   ar
     5     2     3   ar
     6     3     4   ar
     7     4     6    1
     8     6     7   ar
     9     7     8   ar
    10     8     9   ar
    11     9    10   ar
    12    10    11   ar
    13     4     5   ar
    14     5     1   ar
    15    11     6   ar
    16    12    15    1
@<TRIPOS>MOLECULE
*****
 15 16 0 0 0
SMALL
GASTEIGER

@<TRIPOS>ATOM
      1 C          -9.6968  -18.2301   20.6185 C.ar    1  UNL1        0.1677
      2 C          -9.5573  -19.2847   19.5608 C.ar    1  UNL1        0.0424
      3 C          -8.1437  -19.7855   19.5893 C.ar    1  UNL1        0.0407
      4 C          -7.4095  -19.0406   20.6645 C.ar    1  UNL1        0.1469
      5 O          -8.3694  -18.0793   21.3006 O.2     1  UNL1       -0.4518
      6 C          -5.9684  -19.2247   21.0381 C.ar    1  UNL1        0.0537
      7 C          -5.4428  -18.6343   22.3129 C.ar    1  UNL1        0.0062
      8 C          -4.0017  -18.8184   22.6863 C.ar    1  UNL1        0.0208
      9 C          -3.0864  -19.5929   21.7851 C.ar    1  UNL1        0.0989
     10 N          -3.6120  -20.1833   20.5103 N.ar    1  UNL1       -0.2422
     11 C          -5.0531  -19.9992   20.1368 C.ar    1  UNL1        0.1019
     12 O          -9.5541  -15.2729   21.1027 O.2     1  UNL1       -0.4086
     13 N         -10.8733  -15.9828   21.1801 N.2     1  UNL1       -0.0814
     14 C         -10.9446  -17.4614   20.9380 C.2     1  UNL1        0.1771
     15 H          -9.5095  -14.3493   21.2539 H       1  UNL1        0.3278
@<TRIPOS>BOND
     1    12    13    1
     2    13    14    2
     3    14     1    1
     4     1     2   ar
     5     2     3   ar
     6     3     4   ar
     7     4     6    1
     8     6     7   ar
     9     7     8   ar
    10     8     9   ar
    11     9    10   ar
    12    10    11   ar
    13     4     5   ar
    14     5     1   ar
    15    11     6   ar
    16    12    15    1
