@<TRIPOS>MOLECULE
*****
 39 43 0 0 0
SMALL
GASTEIGER

@<TRIPOS>ATOM
      1 C           0.6758    5.9069   17.4707 C.3     1  UNL1        0.0310
      2 C           1.2205    4.5703   17.8791 C.ar    1  UNL1       -0.0218
      3 C           2.7029    4.3431   17.9128 C.ar    1  UNL1       -0.0030
      4 C           3.2476    3.0065   18.3213 C.ar    1  UNL1        0.0144
      5 C           2.3101    1.8972   18.6960 C.ar    1  UNL1        0.0506
      6 C           0.8278    2.1244   18.6623 C.ar    1  UNL1        0.0144
      7 C           0.2831    3.4610   18.2539 C.ar    1  UNL1       -0.0026
      8 C          -1.1993    3.6882   18.2202 C.ar    1  UNL1        0.0028
      9 C          -1.9043    3.8455   16.9055 C.ar    1  UNL1        0.0015
     10 C          -3.3865    4.0728   16.8718 C.ar    1  UNL1        0.0178
     11 C          -4.1639    4.1427   18.1527 C.ar    1  UNL1        0.0847
     12 C          -3.4590    3.9853   19.4673 C.ar    1  UNL1        0.1515
     13 C          -1.9766    3.7581   19.5011 C.ar    1  UNL1        0.0382
     14 O          -4.0394    4.0214   20.8500 O.3     1  UNL1       -0.4807
     15 C          -5.4682    4.2236   21.2596 C.3     1  UNL1        0.1466
     16 C          -6.8633    4.4167   21.7756 C.3     1  UNL1        0.0726
     17 C          -7.1256    4.4006   23.2524 C.3     1  UNL1        0.1458
     18 O          -5.9928    4.1915   24.2131 O.3     1  UNL1       -0.3535
     19 C          -4.5977    3.9984   23.6970 C.3     1  UNL1        0.1458
     20 C          -4.3354    4.0145   22.2203 C.3     1  UNL1        0.0726
     21 C          -6.6694    4.4398   20.3875 C.3     1  UNL1        0.1254
     22 C          -6.7385    4.5071   18.8906 C.2     1  UNL1        0.2297
     23 O          -8.1030    4.7370   18.3117 O.2     1  UNL1       -0.2746
     24 N          -5.6234    4.3749   17.8960 N.am    1  UNL1       -0.2814
     25 H          -5.8839    4.4505   16.9496 H       1  UNL1        0.1549
     26 N           2.8549    0.5607   19.1044 N.am    1  UNL1       -0.2791
     27 C           2.8761    0.1701   20.5526 C.2     1  UNL1        0.2690
     28 O           2.3527    1.1161   21.5922 O.2     1  UNL1       -0.2681
     29 H           3.1985   -0.0602   18.4220 H       1  UNL1        0.1552
     30 C           3.4209   -1.1664   20.9610 C.ar    1  UNL1        0.1562
     31 C           3.6783   -2.2199   19.9248 C.ar    1  UNL1        0.0310
     32 C           4.2230   -3.5565   20.3332 C.ar    1  UNL1        0.0940
     33 C           4.5105   -3.8395   21.7779 C.ar    1  UNL1        0.1260
     34 N           4.2532   -2.7861   22.8142 N.ar    1  UNL1       -0.1463
     35 N           3.7084   -1.4495   22.4058 N.ar    1  UNL1       -0.1433
     36 C           4.4804   -4.6100   19.2969 C.3     1  UNL1        0.4201
     37 F           4.7377   -5.6635   18.2606 F       1  UNL1       -0.1658
     38 F           3.0245   -4.6103   18.9357 F       1  UNL1       -0.1658
     39 F           5.9362   -4.6097   19.6581 F       1  UNL1       -0.1658
@<TRIPOS>BOND
     1     1     2    1
     2     2     3   ar
     3     3     4   ar
     4     4     5   ar
     5     5    26    1
     6    26    27   am
     7    27    28    2
     8    27    30    1
     9    30    31   ar
    10    31    32   ar
    11    32    36    1
    12    36    37    1
    13    36    38    1
    14    36    39    1
    15    32    33   ar
    16    33    34   ar
    17    34    35   ar
    18     5     6   ar
    19     6     7   ar
    20     7     8    1
    21     8     9   ar
    22     9    10   ar
    23    10    11   ar
    24    11    12   ar
    25    12    13   ar
    26    12    14    1
    27    14    15    1
    28    15    16    1
    29    16    17    1
    30    17    18    1
    31    18    19    1
    32    19    20    1
    33    15    21    1
    34    21    22    1
    35    22    23    2
    36    22    24   am
    37     7     2   ar
    38    13     8   ar
    39    20    15    1
    40    35    30   ar
    41    24    11    1
    42    26    29    1
    43    24    25    1
@<TRIPOS>MOLECULE
*****
 39 43 0 0 0
SMALL
GASTEIGER

@<TRIPOS>ATOM
      1 C           9.5359   -7.1638   23.5785 C.3     1  UNL1        0.0310
      2 C           8.7694   -6.0845   22.8732 C.ar    1  UNL1       -0.0218
      3 C           8.9587   -5.8700   21.4006 C.ar    1  UNL1       -0.0030
      4 C           8.1921   -4.7906   20.6953 C.ar    1  UNL1        0.0144
      5 C           7.2365   -3.9258   21.4625 C.ar    1  UNL1        0.0506
      6 C           7.0472   -4.1402   22.9349 C.ar    1  UNL1        0.0144
      7 C           7.8137   -5.2195   23.6403 C.ar    1  UNL1       -0.0026
      8 C           7.6245   -5.4340   25.1128 C.ar    1  UNL1        0.0028
      9 C           7.6442   -6.8237   25.6770 C.ar    1  UNL1        0.0015
     10 C           7.4550   -7.0381   27.1494 C.ar    1  UNL1        0.0178
     11 C           7.2460   -5.8629   28.0577 C.ar    1  UNL1        0.0847
     12 C           7.2263   -4.4732   27.4936 C.ar    1  UNL1        0.1515
     13 C           7.4155   -4.2587   26.0211 C.ar    1  UNL1        0.0382
     14 O           7.0342   -3.1730   28.2165 O.3     1  UNL1       -0.4807
     15 C           6.8145   -2.9414   29.6822 C.3     1  UNL1        0.1466
     16 C           6.5901   -2.6000   31.1254 C.3     1  UNL1        0.0726
     17 C           6.4313   -1.1676   31.5414 C.3     1  UNL1        0.1458
     18 O           6.4969   -0.0766   30.5140 O.3     1  UNL1       -0.3535
     19 C           6.7213   -0.4180   29.0708 C.3     1  UNL1        0.1458
     20 C           6.8801   -1.8504   28.6548 C.3     1  UNL1        0.0726
     21 C           6.7325   -3.9528   30.7869 C.3     1  UNL1        0.1254
     22 C           6.8500   -5.4456   30.6988 C.2     1  UNL1        0.2297
     23 O           6.7221   -6.1862   31.9968 O.2     1  UNL1       -0.2746
     24 N           7.0785   -6.2957   29.4841 N.am    1  UNL1       -0.2814
     25 H           7.1247   -7.2660   29.6444 H       1  UNL1        0.1549
     26 N           6.4700   -2.8464   20.7572 N.am    1  UNL1       -0.2791
     27 C           5.2283   -3.1883   19.9882 C.2     1  UNL1        0.2690
     28 O           4.7531   -4.6096   19.9245 O.2     1  UNL1       -0.2681
     29 H           6.7819   -1.9135   20.7990 H       1  UNL1        0.1552
     30 C           4.4618   -2.1090   19.2829 C.ar    1  UNL1        0.1562
     31 C           3.1559   -1.6283   19.8426 C.ar    1  UNL1        0.0310
     32 C           2.3894   -0.5489   19.1373 C.ar    1  UNL1        0.0940
     33 C           2.9289    0.0497   17.8722 C.ar    1  UNL1        0.1260
     34 N           4.2348   -0.4310   17.3124 N.ar    1  UNL1       -0.1463
     35 N           5.0013   -1.5103   18.0176 N.ar    1  UNL1       -0.1433
     36 C           1.0834   -0.0681   19.6971 C.3     1  UNL1        0.4201
     37 F          -0.2225    0.4126   20.2568 F       1  UNL1       -0.1658
     38 F           0.7950    0.6465   18.4102 F       1  UNL1       -0.1658
     39 F           1.3720   -0.7828   20.9839 F       1  UNL1       -0.1658
@<TRIPOS>BOND
     1     1     2    1
     2     2     3   ar
     3     3     4   ar
     4     4     5   ar
     5     5    26    1
     6    26    27   am
     7    27    28    2
     8    27    30    1
     9    30    31   ar
    10    31    32   ar
    11    32    36    1
    12    36    37    1
    13    36    38    1
    14    36    39    1
    15    32    33   ar
    16    33    34   ar
    17    34    35   ar
    18     5     6   ar
    19     6     7   ar
    20     7     8    1
    21     8     9   ar
    22     9    10   ar
    23    10    11   ar
    24    11    12   ar
    25    12    13   ar
    26    12    14    1
    27    14    15    1
    28    15    16    1
    29    16    17    1
    30    17    18    1
    31    18    19    1
    32    19    20    1
    33    15    21    1
    34    21    22    1
    35    22    23    2
    36    22    24   am
    37     7     2   ar
    38    13     8   ar
    39    20    15    1
    40    35    30   ar
    41    24    11    1
    42    26    29    1
    43    24    25    1
@<TRIPOS>MOLECULE
*****
 39 43 0 0 0
SMALL
GASTEIGER

@<TRIPOS>ATOM
      1 C          -0.7381    5.0938   27.5338 C.3     1  UNL1        0.0310
      2 C          -0.0694    3.8733   26.9741 C.ar    1  UNL1       -0.0218
      3 C           1.3349    3.5352   27.3790 C.ar    1  UNL1       -0.0030
      4 C           2.0035    2.3146   26.8193 C.ar    1  UNL1        0.0144
      5 C           1.2679    1.4322   25.8548 C.ar    1  UNL1        0.0506
      6 C          -0.1362    1.7703   25.4500 C.ar    1  UNL1        0.0144
      7 C          -0.8049    2.9908   26.0097 C.ar    1  UNL1       -0.0026
      8 C          -2.2092    3.3289   25.6048 C.ar    1  UNL1        0.0028
      9 C          -3.2446    3.6108   26.6528 C.ar    1  UNL1        0.0015
     10 C          -4.6488    3.9489   26.2480 C.ar    1  UNL1        0.0178
     11 C          -5.0176    4.0050   24.7952 C.ar    1  UNL1        0.0847
     12 C          -3.9822    3.7230   23.7472 C.ar    1  UNL1        0.1515
     13 C          -2.5779    3.3849   24.1519 C.ar    1  UNL1        0.0382
     14 O          -4.1369    3.7251   22.2551 O.3     1  UNL1       -0.4807
     15 C          -5.3653    4.0097   21.4426 C.3     1  UNL1        0.1466
     16 C          -6.5318    4.2767   20.5383 C.3     1  UNL1        0.0726
     17 C          -6.3605    4.1981   19.0502 C.3     1  UNL1        0.1458
     18 O          -5.0227    3.8525   18.4665 O.3     1  UNL1       -0.3535
     19 C          -3.8562    3.5855   19.3708 C.3     1  UNL1        0.1458
     20 C          -4.0275    3.6641   20.8589 C.3     1  UNL1        0.0726
     21 C          -6.7423    4.3625   21.9215 C.3     1  UNL1        0.1254
     22 C          -7.2311    4.5178   23.3312 C.2     1  UNL1        0.2297
     23 O          -8.6788    4.8801   23.4819 O.2     1  UNL1       -0.2746
     24 N          -6.4635    4.3587   24.6101 N.am    1  UNL1       -0.2814
     25 H          -6.9765    4.5058   25.4373 H       1  UNL1        0.1549
     26 N           1.9366    0.2117   25.2952 N.am    1  UNL1       -0.2791
     27 C           2.7675    0.3158   24.0506 C.2     1  UNL1        0.2690
     28 O           2.9296    1.6404   23.3658 O.2     1  UNL1       -0.2681
     29 H           1.8302   -0.6577   25.7447 H       1  UNL1        0.1552
     30 C           3.4362   -0.9047   23.4910 C.ar    1  UNL1        0.1562
     31 C           3.2424   -1.2717   22.0496 C.ar    1  UNL1        0.0310
     32 C           3.9110   -2.4922   21.4899 C.ar    1  UNL1        0.0940
     33 C           4.7735   -3.3457   22.3717 C.ar    1  UNL1        0.1260
     34 N           4.9673   -2.9788   23.8131 N.ar    1  UNL1       -0.1463
     35 N           4.2987   -1.7583   24.3728 N.ar    1  UNL1       -0.1433
     36 C           3.7172   -2.8592   20.0484 C.3     1  UNL1        0.4201
     37 F           3.5234   -3.2261   18.6070 F       1  UNL1       -0.1658
     38 F           2.7423   -1.7299   19.8921 F       1  UNL1       -0.1658
     39 F           4.6921   -3.9884   20.2049 F       1  UNL1       -0.1658
@<TRIPOS>BOND
     1     1     2    1
     2     2     3   ar
     3     3     4   ar
     4     4     5   ar
     5     5    26    1
     6    26    27   am
     7    27    28    2
     8    27    30    1
     9    30    31   ar
    10    31    32   ar
    11    32    36    1
    12    36    37    1
    13    36    38    1
    14    36    39    1
    15    32    33   ar
    16    33    34   ar
    17    34    35   ar
    18     5     6   ar
    19     6     7   ar
    20     7     8    1
    21     8     9   ar
    22     9    10   ar
    23    10    11   ar
    24    11    12   ar
    25    12    13   ar
    26    12    14    1
    27    14    15    1
    28    15    16    1
    29    16    17    1
    30    17    18    1
    31    18    19    1
    32    19    20    1
    33    15    21    1
    34    21    22    1
    35    22    23    2
    36    22    24   am
    37     7     2   ar
    38    13     8   ar
    39    20    15    1
    40    35    30   ar
    41    24    11    1
    42    26    29    1
    43    24    25    1
@<TRIPOS>MOLECULE
*****
 39 43 0 0 0
SMALL
GASTEIGER

@<TRIPOS>ATOM
      1 C           0.6993    6.0396   17.8587 C.3     1  UNL1        0.0310
      2 C           1.2306    4.6526   18.0680 C.ar    1  UNL1       -0.0218
      3 C           2.7111    4.4152   18.1119 C.ar    1  UNL1       -0.0030
      4 C           3.2423    3.0281   18.3212 C.ar    1  UNL1        0.0144
      5 C           2.2932    1.8785   18.4865 C.ar    1  UNL1        0.0506
      6 C           0.8128    2.1159   18.4427 C.ar    1  UNL1        0.0144
      7 C           0.2815    3.5029   18.2334 C.ar    1  UNL1       -0.0026
      8 C          -1.1990    3.7403   18.1895 C.ar    1  UNL1        0.0028
      9 C          -1.8876    3.9418   16.8722 C.ar    1  UNL1        0.0015
     10 C          -3.3680    4.1791   16.8283 C.ar    1  UNL1        0.0178
     11 C          -4.1599    4.2150   18.1016 C.ar    1  UNL1        0.0847
     12 C          -3.4714    4.0135   19.4189 C.ar    1  UNL1        0.1515
     13 C          -1.9909    3.7761   19.4629 C.ar    1  UNL1        0.0382
     14 O          -4.0678    4.0112   20.7953 O.3     1  UNL1       -0.4807
     15 C          -5.5001    4.2099   21.1943 C.3     1  UNL1        0.1466
     16 C          -6.9000    4.3959   21.6998 C.3     1  UNL1        0.0726
     17 C          -7.1796    4.3367   23.1723 C.3     1  UNL1        0.1458
     18 O          -6.0594    4.0915   24.1392 O.3     1  UNL1       -0.3535
     19 C          -4.6595    3.9055   23.6336 C.3     1  UNL1        0.1458
     20 C          -4.3799    3.9647   22.1612 C.3     1  UNL1        0.0726
     21 C          -6.6897    4.4598   20.3154 C.3     1  UNL1        0.1254
     22 C          -6.7408    4.5729   18.8205 C.2     1  UNL1        0.2297
     23 O          -8.0970    4.8288   18.2332 O.2     1  UNL1       -0.2746
     24 N          -5.6149    4.4640   17.8353 N.am    1  UNL1       -0.2814
     25 H          -5.8638    4.5699   16.8887 H       1  UNL1        0.1549
     26 N           2.8245    0.4915   18.6958 N.am    1  UNL1       -0.2791
     27 C           3.0380   -0.0280   20.0868 C.2     1  UNL1        0.2690
     28 O           2.7203    0.8396   21.2684 O.2     1  UNL1       -0.2681
     29 H           3.0330   -0.0780   17.9203 H       1  UNL1        0.1552
     30 C           3.5693   -1.4150   20.2961 C.ar    1  UNL1        0.1562
     31 C           4.1893   -1.7905   21.6093 C.ar    1  UNL1        0.0310
     32 C           4.7206   -3.1775   21.8186 C.ar    1  UNL1        0.0940
     33 C           4.6319   -4.1891   20.7146 C.ar    1  UNL1        0.1260
     34 N           4.0120   -3.8137   19.4014 N.ar    1  UNL1       -0.1463
     35 N           3.4807   -2.4267   19.1920 N.ar    1  UNL1       -0.1433
     36 C           5.3405   -3.5530   23.1319 C.3     1  UNL1        0.4201
     37 F           5.9605   -3.9285   24.4451 F       1  UNL1       -0.1658
     38 F           6.3942   -4.3393   22.4096 F       1  UNL1       -0.1658
     39 F           4.2869   -2.7667   23.8541 F       1  UNL1       -0.1658
@<TRIPOS>BOND
     1     1     2    1
     2     2     3   ar
     3     3     4   ar
     4     4     5   ar
     5     5    26    1
     6    26    27   am
     7    27    28    2
     8    27    30    1
     9    30    31   ar
    10    31    32   ar
    11    32    36    1
    12    36    37    1
    13    36    38    1
    14    36    39    1
    15    32    33   ar
    16    33    34   ar
    17    34    35   ar
    18     5     6   ar
    19     6     7   ar
    20     7     8    1
    21     8     9   ar
    22     9    10   ar
    23    10    11   ar
    24    11    12   ar
    25    12    13   ar
    26    12    14    1
    27    14    15    1
    28    15    16    1
    29    16    17    1
    30    17    18    1
    31    18    19    1
    32    19    20    1
    33    15    21    1
    34    21    22    1
    35    22    23    2
    36    22    24   am
    37     7     2   ar
    38    13     8   ar
    39    20    15    1
    40    35    30   ar
    41    24    11    1
    42    26    29    1
    43    24    25    1
@<TRIPOS>MOLECULE
*****
 39 43 0 0 0
SMALL
GASTEIGER

@<TRIPOS>ATOM
      1 C           0.7051    6.8780   18.1545 C.3     1  UNL1        0.0310
      2 C           1.5332    5.6277   18.1852 C.ar    1  UNL1       -0.0218
      3 C           3.0304    5.7197   18.1966 C.ar    1  UNL1       -0.0030
      4 C           3.8584    4.4693   18.2273 C.ar    1  UNL1        0.0144
      5 C           3.1892    3.1270   18.2465 C.ar    1  UNL1        0.0506
      6 C           1.6922    3.0350   18.2351 C.ar    1  UNL1        0.0144
      7 C           0.8641    4.2853   18.2044 C.ar    1  UNL1       -0.0026
      8 C          -0.6331    4.1933   18.1930 C.ar    1  UNL1        0.0028
      9 C          -1.3649    4.0362   16.8931 C.ar    1  UNL1        0.0015
     10 C          -2.8620    3.9442   16.8817 C.ar    1  UNL1        0.0178
     11 C          -3.6273    4.0093   18.1700 C.ar    1  UNL1        0.0847
     12 C          -2.8955    4.1664   19.4699 C.ar    1  UNL1        0.1515
     13 C          -1.3983    4.2584   19.4814 C.ar    1  UNL1        0.0382
     14 O          -3.4604    4.2522   20.8569 O.3     1  UNL1       -0.4807
     15 C          -4.8967    4.2021   21.2864 C.3     1  UNL1        0.1466
     16 C          -6.2974    4.1634   21.8217 C.3     1  UNL1        0.0726
     17 C          -6.5396    4.2765   23.2977 C.3     1  UNL1        0.1458
     18 O          -5.3811    4.4285   24.2383 O.3     1  UNL1       -0.3535
     19 C          -3.9805    4.4672   23.7031 C.3     1  UNL1        0.1458
     20 C          -3.7383    4.3541   22.2271 C.3     1  UNL1        0.0726
     21 C          -6.1228    4.0538   20.4352 C.3     1  UNL1        0.1254
     22 C          -6.2155    3.9190   18.9441 C.2     1  UNL1        0.2297
     23 O          -7.6020    3.7865   18.3875 O.2     1  UNL1       -0.2746
     24 N          -5.1048    3.8992   17.9360 N.am    1  UNL1       -0.2814
     25 H          -5.3823    3.8009   16.9966 H       1  UNL1        0.1549
     26 N           4.0173    1.8766   18.2772 N.am    1  UNL1       -0.2791
     27 C           3.3612    0.5382   18.1085 C.2     1  UNL1        0.2690
     28 O           1.8772    0.4503   17.9092 O.2     1  UNL1       -0.2681
     29 H           4.9913    1.9344   18.4080 H       1  UNL1        0.1552
     30 C           4.1893   -0.7121   18.1392 C.ar    1  UNL1        0.1562
     31 C           3.6941   -1.9217   18.8752 C.ar    1  UNL1        0.0310
     32 C           4.5222   -3.1721   18.9058 C.ar    1  UNL1        0.0940
     33 C           5.8453   -3.2128   18.2005 C.ar    1  UNL1        0.1260
     34 N           6.3405   -2.0033   17.4645 N.ar    1  UNL1       -0.1463
     35 N           5.5125   -0.7529   17.4338 N.ar    1  UNL1       -0.1433
     36 C           4.0270   -4.3817   19.6419 C.3     1  UNL1        0.4201
     37 F           3.5319   -5.5913   20.3778 F       1  UNL1       -0.1658
     38 F           4.2680   -5.2220   18.4228 F       1  UNL1       -0.1658
     39 F           3.7861   -3.5414   20.8608 F       1  UNL1       -0.1658
@<TRIPOS>BOND
     1     1     2    1
     2     2     3   ar
     3     3     4   ar
     4     4     5   ar
     5     5    26    1
     6    26    27   am
     7    27    28    2
     8    27    30    1
     9    30    31   ar
    10    31    32   ar
    11    32    36    1
    12    36    37    1
    13    36    38    1
    14    36    39    1
    15    32    33   ar
    16    33    34   ar
    17    34    35   ar
    18     5     6   ar
    19     6     7   ar
    20     7     8    1
    21     8     9   ar
    22     9    10   ar
    23    10    11   ar
    24    11    12   ar
    25    12    13   ar
    26    12    14    1
    27    14    15    1
    28    15    16    1
    29    16    17    1
    30    17    18    1
    31    18    19    1
    32    19    20    1
    33    15    21    1
    34    21    22    1
    35    22    23    2
    36    22    24   am
    37     7     2   ar
    38    13     8   ar
    39    20    15    1
    40    35    30   ar
    41    24    11    1
    42    26    29    1
    43    24    25    1
@<TRIPOS>MOLECULE
*****
 39 43 0 0 0
SMALL
GASTEIGER

@<TRIPOS>ATOM
      1 C           9.4275   -5.5287   23.4109 C.3     1  UNL1        0.0310
      2 C           8.2520   -4.8201   22.8060 C.ar    1  UNL1       -0.0218
      3 C           8.2659   -4.4504   21.3522 C.ar    1  UNL1       -0.0030
      4 C           7.0903   -3.7418   20.7473 C.ar    1  UNL1        0.0144
      5 C           5.9009   -3.4028   21.5961 C.ar    1  UNL1        0.0506
      6 C           5.8870   -3.7725   23.0497 C.ar    1  UNL1        0.0144
      7 C           7.0625   -4.4811   23.6546 C.ar    1  UNL1       -0.0026
      8 C           7.0486   -4.8509   25.1084 C.ar    1  UNL1        0.0028
      9 C           7.2377   -6.2807   25.5205 C.ar    1  UNL1        0.0015
     10 C           7.2238   -6.6504   26.9741 C.ar    1  UNL1        0.0178
     11 C           7.0207   -5.5903   28.0156 C.ar    1  UNL1        0.0847
     12 C           6.8315   -4.1605   27.6036 C.ar    1  UNL1        0.1515
     13 C           6.8455   -3.7907   26.1499 C.ar    1  UNL1        0.0382
     14 O           6.6156   -2.9573   28.4729 O.3     1  UNL1       -0.4807
     15 C           6.5356   -2.8868   29.9692 C.3     1  UNL1        0.1466
     16 C           6.4399   -2.7058   31.4551 C.3     1  UNL1        0.0726
     17 C           6.2139   -1.3394   32.0311 C.3     1  UNL1        0.1458
     18 O           6.0836   -0.1540   31.1212 O.3     1  UNL1       -0.3535
     19 C           6.1793   -0.3350   29.6353 C.3     1  UNL1        0.1458
     20 C           6.4053   -1.7014   29.0593 C.3     1  UNL1        0.0726
     21 C           6.6516   -4.0021   30.9655 C.3     1  UNL1        0.1254
     22 C           6.8764   -5.4633   30.7117 C.2     1  UNL1        0.2297
     23 O           6.9461   -6.3326   31.9321 O.2     1  UNL1       -0.2746
     24 N           7.0406   -6.1701   29.3989 N.am    1  UNL1       -0.2814
     25 H           7.1800   -7.1432   29.4521 H       1  UNL1        0.1549
     26 N           4.7254   -2.6942   20.9911 N.am    1  UNL1       -0.2791
     27 C           4.7391   -1.2004   20.8546 C.2     1  UNL1        0.2690
     28 O           5.9283   -0.4154   21.3230 O.2     1  UNL1       -0.2681
     29 H           3.9449   -3.2095   20.6837 H       1  UNL1        0.1552
     30 C           3.5636   -0.4918   20.2496 C.ar    1  UNL1        0.1562
     31 C           3.7534    0.8337   19.5737 C.ar    1  UNL1        0.0310
     32 C           2.5779    1.5423   18.9688 C.ar    1  UNL1        0.0940
     33 C           1.2125    0.9254   19.0397 C.ar    1  UNL1        0.1260
     34 N           1.0226   -0.4001   19.7155 N.ar    1  UNL1       -0.1463
     35 N           2.1981   -1.1088   20.3205 N.ar    1  UNL1       -0.1433
     36 C           2.7678    2.8680   18.2929 C.3     1  UNL1        0.4201
     37 F           2.9577    4.1935   17.6170 F       1  UNL1       -0.1658
     38 F           4.2557    2.7059   18.3931 F       1  UNL1       -0.1658
     39 F           1.2800    3.0299   18.1926 F       1  UNL1       -0.1658
@<TRIPOS>BOND
     1     1     2    1
     2     2     3   ar
     3     3     4   ar
     4     4     5   ar
     5     5    26    1
     6    26    27   am
     7    27    28    2
     8    27    30    1
     9    30    31   ar
    10    31    32   ar
    11    32    36    1
    12    36    37    1
    13    36    38    1
    14    36    39    1
    15    32    33   ar
    16    33    34   ar
    17    34    35   ar
    18     5     6   ar
    19     6     7   ar
    20     7     8    1
    21     8     9   ar
    22     9    10   ar
    23    10    11   ar
    24    11    12   ar
    25    12    13   ar
    26    12    14    1
    27    14    15    1
    28    15    16    1
    29    16    17    1
    30    17    18    1
    31    18    19    1
    32    19    20    1
    33    15    21    1
    34    21    22    1
    35    22    23    2
    36    22    24   am
    37     7     2   ar
    38    13     8   ar
    39    20    15    1
    40    35    30   ar
    41    24    11    1
    42    26    29    1
    43    24    25    1
@<TRIPOS>MOLECULE
*****
 39 43 0 0 0
SMALL
GASTEIGER

@<TRIPOS>ATOM
      1 C           0.2741    4.5915   25.9773 C.3     1  UNL1        0.0310
      2 C           0.8497    3.5149   25.1058 C.ar    1  UNL1       -0.0218
      3 C           2.3123    3.1905   25.1816 C.ar    1  UNL1       -0.0030
      4 C           2.8878    2.1138   24.3099 C.ar    1  UNL1        0.0144
      5 C           2.0008    1.3617   23.3627 C.ar    1  UNL1        0.0506
      6 C           0.5383    1.6861   23.2869 C.ar    1  UNL1        0.0144
      7 C          -0.0372    2.7627   24.1584 C.ar    1  UNL1       -0.0026
      8 C          -1.4999    3.0871   24.0827 C.ar    1  UNL1        0.0028
      9 C          -2.3069    3.2105   25.3410 C.ar    1  UNL1        0.0015
     10 C          -3.7694    3.5349   25.2652 C.ar    1  UNL1        0.0178
     11 C          -4.4249    3.7359   23.9312 C.ar    1  UNL1        0.0847
     12 C          -3.6179    3.6125   22.6728 C.ar    1  UNL1        0.1515
     13 C          -2.1553    3.2881   22.7485 C.ar    1  UNL1        0.0382
     14 O          -4.0707    3.7727   21.2518 O.3     1  UNL1       -0.4807
     15 C          -5.4426    4.0959   20.7382 C.3     1  UNL1        0.1466
     16 C          -6.7720    4.4143   20.1208 C.3     1  UNL1        0.0726
     17 C          -6.9035    4.5069   18.6295 C.3     1  UNL1        0.1458
     18 O          -5.7055    4.2812   17.7555 O.3     1  UNL1       -0.3535
     19 C          -4.3760    3.9629   18.3728 C.3     1  UNL1        0.1458
     20 C          -4.2446    3.8702   19.8642 C.3     1  UNL1        0.0726
     21 C          -6.7002    4.3387   21.5187 C.3     1  UNL1        0.1254
     22 C          -6.8968    4.3183   23.0057 C.2     1  UNL1        0.2297
     23 O          -8.2901    4.6039   23.4820 O.2     1  UNL1       -0.2746
     24 N          -5.8841    4.0500   24.0793 N.am    1  UNL1       -0.2814
     25 H          -6.2219    4.0847   25.0034 H       1  UNL1        0.1549
     26 N           2.5763    0.2851   22.4911 N.am    1  UNL1       -0.2791
     27 C           3.0429    0.6127   21.1036 C.2     1  UNL1        0.2690
     28 O           2.9339    2.0169   20.5878 O.2     1  UNL1       -0.2681
     29 H           2.6479   -0.6366   22.8297 H       1  UNL1        0.1552
     30 C           3.6185   -0.4639   20.2321 C.ar    1  UNL1        0.1562
     31 C           3.2894   -1.9024   20.5009 C.ar    1  UNL1        0.0310
     32 C           3.8649   -2.9790   19.6294 C.ar    1  UNL1        0.0940
     33 C           4.7696   -2.6171   18.4890 C.ar    1  UNL1        0.1260
     34 N           5.0987   -1.1787   18.2201 N.ar    1  UNL1       -0.1463
     35 N           4.5232   -0.1020   19.0916 N.ar    1  UNL1       -0.1433
     36 C           3.5358   -4.4176   19.8982 C.3     1  UNL1        0.4201
     37 F           3.2067   -5.8561   20.1671 F       1  UNL1       -0.1658
     38 F           4.2958   -4.3500   21.1897 F       1  UNL1       -0.1658
     39 F           2.7758   -4.4851   18.6068 F       1  UNL1       -0.1658
@<TRIPOS>BOND
     1     1     2    1
     2     2     3   ar
     3     3     4   ar
     4     4     5   ar
     5     5    26    1
     6    26    27   am
     7    27    28    2
     8    27    30    1
     9    30    31   ar
    10    31    32   ar
    11    32    36    1
    12    36    37    1
    13    36    38    1
    14    36    39    1
    15    32    33   ar
    16    33    34   ar
    17    34    35   ar
    18     5     6   ar
    19     6     7   ar
    20     7     8    1
    21     8     9   ar
    22     9    10   ar
    23    10    11   ar
    24    11    12   ar
    25    12    13   ar
    26    12    14    1
    27    14    15    1
    28    15    16    1
    29    16    17    1
    30    17    18    1
    31    18    19    1
    32    19    20    1
    33    15    21    1
    34    21    22    1
    35    22    23    2
    36    22    24   am
    37     7     2   ar
    38    13     8   ar
    39    20    15    1
    40    35    30   ar
    41    24    11    1
    42    26    29    1
    43    24    25    1
@<TRIPOS>MOLECULE
*****
 39 43 0 0 0
SMALL
GASTEIGER

@<TRIPOS>ATOM
      1 C          -1.7622    6.8653   19.1183 C.3     1  UNL1        0.0310
      2 C          -1.0047    5.5917   18.8861 C.ar    1  UNL1       -0.0218
      3 C           0.3049    5.6205   18.1551 C.ar    1  UNL1       -0.0030
      4 C           1.0623    4.3468   17.9229 C.ar    1  UNL1        0.0144
      5 C           0.5103    3.0443   18.4217 C.ar    1  UNL1        0.0506
      6 C          -0.7992    3.0155   19.1526 C.ar    1  UNL1        0.0144
      7 C          -1.5567    4.2892   19.3848 C.ar    1  UNL1       -0.0026
      8 C          -2.8663    4.2603   20.1158 C.ar    1  UNL1        0.0028
      9 C          -4.1094    3.8065   19.4098 C.ar    1  UNL1        0.0015
     10 C          -5.4189    3.7776   20.1407 C.ar    1  UNL1        0.0178
     11 C          -5.4853    4.2026   21.5777 C.ar    1  UNL1        0.0847
     12 C          -4.2421    4.6565   22.2837 C.ar    1  UNL1        0.1515
     13 C          -2.9326    4.6853   21.5528 C.ar    1  UNL1        0.0382
     14 O          -4.0880    5.1183   23.7026 O.3     1  UNL1       -0.4807
     15 C          -5.1391    5.2403   24.7658 C.3     1  UNL1        0.1466
     16 C          -6.1099    5.3988   25.8982 C.3     1  UNL1        0.0726
     17 C          -5.6332    5.8962   27.2306 C.3     1  UNL1        0.1458
     18 O          -4.1857    6.2352   27.4305 O.3     1  UNL1       -0.3535
     19 C          -3.2150    6.0766   26.2981 C.3     1  UNL1        0.1458
     20 C          -3.6917    5.5792   24.9657 C.3     1  UNL1        0.0726
     21 C          -6.6038    4.9306   24.6727 C.3     1  UNL1        0.1254
     22 C          -7.3793    4.4224   23.4935 C.2     1  UNL1        0.2297
     23 O          -8.8465    4.2102   23.7219 O.2     1  UNL1       -0.2746
     24 N          -6.8814    4.0984   22.1161 N.am    1  UNL1       -0.2814
     25 H          -7.5609    3.7746   21.4815 H       1  UNL1        0.1549
     26 N           1.2678    1.7707   18.1895 N.am    1  UNL1       -0.2791
     27 C           2.2133    1.2590   19.2356 C.2     1  UNL1        0.2690
     28 O           2.4013    2.0210   20.5138 O.2     1  UNL1       -0.2681
     29 H           1.1445    1.2705   17.3505 H       1  UNL1        0.1552
     30 C           2.9709   -0.0147   19.0034 C.ar    1  UNL1        0.1562
     31 C           3.1380   -1.0021   20.1200 C.ar    1  UNL1        0.0310
     32 C           3.8955   -2.2758   19.8878 C.ar    1  UNL1        0.0940
     33 C           4.4859   -2.5620   18.5390 C.ar    1  UNL1        0.1260
     34 N           4.3188   -1.5746   17.4223 N.ar    1  UNL1       -0.1463
     35 N           3.5613   -0.3009   17.6544 N.ar    1  UNL1       -0.1433
     36 C           4.0627   -3.2633   21.0046 C.3     1  UNL1        0.4201
     37 F           4.2299   -4.2508   22.1211 F       1  UNL1       -0.1658
     38 F           4.3638   -4.3414   20.0060 F       1  UNL1       -0.1658
     39 F           3.7617   -2.1851   22.0030 F       1  UNL1       -0.1658
@<TRIPOS>BOND
     1     1     2    1
     2     2     3   ar
     3     3     4   ar
     4     4     5   ar
     5     5    26    1
     6    26    27   am
     7    27    28    2
     8    27    30    1
     9    30    31   ar
    10    31    32   ar
    11    32    36    1
    12    36    37    1
    13    36    38    1
    14    36    39    1
    15    32    33   ar
    16    33    34   ar
    17    34    35   ar
    18     5     6   ar
    19     6     7   ar
    20     7     8    1
    21     8     9   ar
    22     9    10   ar
    23    10    11   ar
    24    11    12   ar
    25    12    13   ar
    26    12    14    1
    27    14    15    1
    28    15    16    1
    29    16    17    1
    30    17    18    1
    31    18    19    1
    32    19    20    1
    33    15    21    1
    34    21    22    1
    35    22    23    2
    36    22    24   am
    37     7     2   ar
    38    13     8   ar
    39    20    15    1
    40    35    30   ar
    41    24    11    1
    42    26    29    1
    43    24    25    1
@<TRIPOS>MOLECULE
*****
 39 43 0 0 0
SMALL
GASTEIGER

@<TRIPOS>ATOM
      1 C           4.6036    3.3739   18.1943 C.3     1  UNL1        0.0310
      2 C           3.1081    3.4757   18.2513 C.ar    1  UNL1       -0.0218
      3 C           2.4394    4.8059   18.0681 C.ar    1  UNL1       -0.0030
      4 C           0.9439    4.9076   18.1251 C.ar    1  UNL1        0.0144
      5 C           0.1173    3.6793   18.3653 C.ar    1  UNL1        0.0506
      6 C           0.7860    2.3492   18.5485 C.ar    1  UNL1        0.0144
      7 C           2.2814    2.2474   18.4915 C.ar    1  UNL1       -0.0026
      8 C           2.9502    0.9172   18.6747 C.ar    1  UNL1        0.0028
      9 C           3.2166    0.0417   17.4862 C.ar    1  UNL1        0.0015
     10 C           3.8853   -1.2884   17.6694 C.ar    1  UNL1        0.0178
     11 C           4.2876   -1.7431   19.0410 C.ar    1  UNL1        0.0847
     12 C           4.0211   -0.8676   20.2294 C.ar    1  UNL1        0.1515
     13 C           3.3524    0.4626   20.0463 C.ar    1  UNL1        0.0382
     14 O           4.3385   -1.1273   21.6724 O.3     1  UNL1       -0.4807
     15 C           5.0006   -2.3268   22.2831 C.3     1  UNL1        0.1466
     16 C           5.6517   -3.4762   22.9936 C.3     1  UNL1        0.0726
     17 C           5.8290   -3.4341   24.4824 C.3     1  UNL1        0.1458
     18 O           5.3550   -2.2427   25.2608 O.3     1  UNL1       -0.3535
     19 C           4.7039   -1.0933   24.5503 C.3     1  UNL1        0.1458
     20 C           4.5267   -1.1353   23.0615 C.3     1  UNL1        0.0726
     21 C           5.5089   -3.5627   21.6018 C.3     1  UNL1        0.1254
     22 C           5.4807   -3.9044   20.1415 C.2     1  UNL1        0.2297
     23 O           6.0745   -5.2313   19.7719 O.2     1  UNL1       -0.2746
     24 N           4.9371   -3.0945   19.0018 N.am    1  UNL1       -0.2814
     25 H           5.0173   -3.5042   18.1102 H       1  UNL1        0.1549
     26 N          -1.3782    3.7811   18.4223 N.am    1  UNL1       -0.2791
     27 C          -2.0914    3.6222   19.7324 C.2     1  UNL1        0.2690
     28 O          -1.3091    3.3615   20.9854 O.2     1  UNL1       -0.2681
     29 H          -1.8916    3.9521   17.5999 H       1  UNL1        0.1552
     30 C          -3.5868    3.7240   19.7894 C.ar    1  UNL1        0.1562
     31 C          -4.2802    3.8483   21.1136 C.ar    1  UNL1        0.0310
     32 C          -5.7756    3.9501   21.1706 C.ar    1  UNL1        0.0940
     33 C          -6.5777    3.9275   19.9034 C.ar    1  UNL1        0.1260
     34 N          -5.8845    3.8032   18.5791 N.ar    1  UNL1       -0.1463
     35 N          -4.3890    3.7014   18.5220 N.ar    1  UNL1       -0.1433
     36 C          -6.4690    4.0745   22.4950 C.3     1  UNL1        0.4201
     37 F          -7.1624    4.1989   23.8192 F       1  UNL1       -0.1658
     38 F          -7.4388    5.0493   21.8956 F       1  UNL1       -0.1658
     39 F          -5.4992    3.0997   23.0943 F       1  UNL1       -0.1658
@<TRIPOS>BOND
     1     1     2    1
     2     2     3   ar
     3     3     4   ar
     4     4     5   ar
     5     5    26    1
     6    26    27   am
     7    27    28    2
     8    27    30    1
     9    30    31   ar
    10    31    32   ar
    11    32    36    1
    12    36    37    1
    13    36    38    1
    14    36    39    1
    15    32    33   ar
    16    33    34   ar
    17    34    35   ar
    18     5     6   ar
    19     6     7   ar
    20     7     8    1
    21     8     9   ar
    22     9    10   ar
    23    10    11   ar
    24    11    12   ar
    25    12    13   ar
    26    12    14    1
    27    14    15    1
    28    15    16    1
    29    16    17    1
    30    17    18    1
    31    18    19    1
    32    19    20    1
    33    15    21    1
    34    21    22    1
    35    22    23    2
    36    22    24   am
    37     7     2   ar
    38    13     8   ar
    39    20    15    1
    40    35    30   ar
    41    24    11    1
    42    26    29    1
    43    24    25    1
