@<TRIPOS>MOLECULE
*****
 32 35 0 0 0
SMALL
GASTEIGER

@<TRIPOS>ATOM
      1 C           8.0799   -7.4393   24.5829 C.3     1  UNL1        0.0311
      2 C           8.1139   -5.9433   24.6885 C.3     1  UNL1        0.1470
      3 C           7.3226   -5.1055   23.7284 C.2     1  UNL1        0.2450
      4 O           7.7747   -4.9671   22.3049 O.2     1  UNL1       -0.2730
      5 N           6.0792   -4.4061   24.1918 N.am    1  UNL1       -0.2680
      6 H           5.7824   -4.4970   25.1261 H       1  UNL1        0.1563
      7 C           5.2878   -3.5683   23.2317 C.ar    1  UNL1        0.1342
      8 C           4.7678   -2.2275   23.6585 C.ar    1  UNL1        0.0345
      9 C           3.9765   -1.3897   22.6984 C.ar    1  UNL1        0.0044
     10 C           3.7052   -1.8926   21.3114 C.ar    1  UNL1        0.0193
     11 C           4.2252   -3.2333   20.8847 C.ar    1  UNL1        0.1003
     12 N           5.0165   -4.0711   21.8448 N.ar    1  UNL1       -0.2290
     13 C           2.9139   -1.0548   20.3513 C.ar    1  UNL1        0.0015
     14 C           1.5326   -0.5979   20.7167 C.ar    1  UNL1        0.0000
     15 C           0.7413    0.2399   19.7565 C.ar    1  UNL1        0.0000
     16 C           1.3312    0.6209   18.4310 C.ar    1  UNL1        0.0000
     17 C           2.7124    0.1640   18.0657 C.ar    1  UNL1        0.0000
     18 C           3.5037   -0.6738   19.0258 C.ar    1  UNL1        0.0000
     19 N           8.9393   -5.2853   25.7542 N.pl3   1  UNL1       -0.3257
     20 H           9.9183   -5.2396   25.6606 H       1  UNL1        0.1472
     21 C           8.2731   -4.6968   26.9625 C.ar    1  UNL1        0.0644
     22 C           7.2787   -5.5072   27.7399 C.ar    1  UNL1        0.0175
     23 C           6.6125   -4.9187   28.9482 C.ar    1  UNL1        0.0219
     24 C           6.9407   -3.5199   29.3790 C.ar    1  UNL1        0.0987
     25 N           7.9351   -2.7096   28.6015 N.ar    1  UNL1       -0.2410
     26 C           8.6013   -3.2980   27.3933 C.ar    1  UNL1        0.1131
     27 C           6.2745   -2.9314   30.5873 C.ar    1  UNL1        0.0971
     28 C           6.3617   -3.4613   31.9879 C.ar    1  UNL1        0.0427
     29 C           5.5452   -2.5672   32.8734 C.ar    1  UNL1        0.1217
     30 N           4.9535   -1.4848   32.0199 N.ar    1  UNL1       -0.1676
     31 N           5.4042   -1.7099   30.6071 N.ar    1  UNL1       -0.2473
     32 C           5.0473   -0.8623   29.4221 C.3     1  UNL1        0.1538
@<TRIPOS>BOND
     1     2     1    1
     2     2    19    1
     3    19    21    1
     4    21    22   ar
     5    22    23   ar
     6    23    24   ar
     7    24    27    1
     8    27    28   ar
     9    28    29   ar
    10    29    30   ar
    11    30    31   ar
    12    31    32    1
    13    24    25   ar
    14    25    26   ar
    15     2     3    1
    16     3     4    2
    17     3     5   am
    18     5     7    1
    19     7     8   ar
    20     8     9   ar
    21     9    10   ar
    22    10    13    1
    23    13    14   ar
    24    14    15   ar
    25    15    16   ar
    26    16    17   ar
    27    17    18   ar
    28    10    11   ar
    29    11    12   ar
    30    26    21   ar
    31    12     7   ar
    32    31    27   ar
    33    18    13   ar
    34    19    20    1
    35     5     6    1
@<TRIPOS>MOLECULE
*****
 32 35 0 0 0
SMALL
GASTEIGER

@<TRIPOS>ATOM
      1 C          -0.0052    5.6494   16.5433 C.3     1  UNL1        0.0311
      2 C          -0.6442    4.8104   17.6100 C.3     1  UNL1        0.1470
      3 C           0.1649    3.7775   18.3370 C.2     1  UNL1        0.2450
      4 O           1.0137    4.1771   19.5074 O.2     1  UNL1       -0.2730
      5 N           0.1252    2.3451   17.8935 N.am    1  UNL1       -0.2680
      6 H          -0.4319    2.0829   17.1253 H       1  UNL1        0.1563
      7 C           0.9344    1.3122   18.6205 C.ar    1  UNL1        0.1342
      8 C           2.3700    1.0861   18.2489 C.ar    1  UNL1        0.0345
      9 C           3.1791    0.0532   18.9759 C.ar    1  UNL1        0.0044
     10 C           2.5526   -0.7535   20.0745 C.ar    1  UNL1        0.0193
     11 C           1.1171   -0.5273   20.4460 C.ar    1  UNL1        0.1003
     12 N           0.3080    0.5055   19.7190 N.ar    1  UNL1       -0.2290
     13 C           3.3617   -1.7864   20.8015 C.ar    1  UNL1        0.0015
     14 C           3.6163   -1.6407   22.2726 C.ar    1  UNL1        0.0000
     15 C           4.4254   -2.6736   22.9996 C.ar    1  UNL1        0.0000
     16 C           4.9800   -3.8521   22.2555 C.ar    1  UNL1        0.0000
     17 C           4.7254   -3.9977   20.7844 C.ar    1  UNL1        0.0000
     18 C           3.9163   -2.9648   20.0575 C.ar    1  UNL1        0.0000
     19 N          -2.0923    5.0043   17.9497 N.pl3   1  UNL1       -0.3257
     20 H          -2.7293    5.2787   17.2511 H       1  UNL1        0.1472
     21 C          -2.5698    4.7801   19.3540 C.ar    1  UNL1        0.0644
     22 C          -2.5324    5.9035   20.3472 C.ar    1  UNL1        0.0175
     23 C          -3.0099    5.6793   21.7513 C.ar    1  UNL1        0.0219
     24 C          -3.5248    4.3317   22.1622 C.ar    1  UNL1        0.0987
     25 N          -3.5622    3.2083   21.1690 N.ar    1  UNL1       -0.2410
     26 C          -3.0847    3.4325   19.7649 C.ar    1  UNL1        0.1131
     27 C          -4.0023    4.1075   23.5665 C.ar    1  UNL1        0.0971
     28 C          -3.1326    3.9087   24.7723 C.ar    1  UNL1        0.0427
     29 C          -4.0260    3.7211   25.9625 C.ar    1  UNL1        0.1217
     30 N          -5.4480    3.8039   25.4922 N.ar    1  UNL1       -0.1676
     31 N          -5.4333    4.0428   24.0114 N.ar    1  UNL1       -0.2473
     32 C          -6.6382    4.1908   23.1302 C.3     1  UNL1        0.1538
@<TRIPOS>BOND
     1     2     1    1
     2     2    19    1
     3    19    21    1
     4    21    22   ar
     5    22    23   ar
     6    23    24   ar
     7    24    27    1
     8    27    28   ar
     9    28    29   ar
    10    29    30   ar
    11    30    31   ar
    12    31    32    1
    13    24    25   ar
    14    25    26   ar
    15     2     3    1
    16     3     4    2
    17     3     5   am
    18     5     7    1
    19     7     8   ar
    20     8     9   ar
    21     9    10   ar
    22    10    13    1
    23    13    14   ar
    24    14    15   ar
    25    15    16   ar
    26    16    17   ar
    27    17    18   ar
    28    10    11   ar
    29    11    12   ar
    30    26    21   ar
    31    12     7   ar
    32    31    27   ar
    33    18    13   ar
    34    19    20    1
    35     5     6    1
@<TRIPOS>MOLECULE
*****
 32 35 0 0 0
SMALL
GASTEIGER

@<TRIPOS>ATOM
      1 C           2.0292    3.5045   18.4428 C.3     1  UNL1        0.0311
      2 C           0.8441    2.6251   18.7118 C.3     1  UNL1        0.1470
      3 C          -0.3494    3.1753   19.4349 C.2     1  UNL1        0.2450
      4 O          -1.0027    4.4365   18.9527 O.2     1  UNL1       -0.2730
      5 N          -0.8895    2.4643   20.6402 N.am    1  UNL1       -0.2680
      6 H          -0.4607    1.6365   20.9567 H       1  UNL1        0.1563
      7 C          -2.0830    3.0145   21.3633 C.ar    1  UNL1        0.1342
      8 C          -1.9057    3.7189   22.6757 C.ar    1  UNL1        0.0345
      9 C          -3.0992    4.2692   23.3988 C.ar    1  UNL1        0.0044
     10 C          -4.4700    4.1150   22.8095 C.ar    1  UNL1        0.0193
     11 C          -4.6472    3.4106   21.4971 C.ar    1  UNL1        0.1003
     12 N          -3.4537    2.8604   20.7740 N.ar    1  UNL1       -0.2290
     13 C          -5.6634    4.6652   23.5325 C.ar    1  UNL1        0.0015
     14 C          -7.0468    4.2840   23.0953 C.ar    1  UNL1        0.0000
     15 C          -8.2402    4.8342   23.8183 C.ar    1  UNL1        0.0000
     16 C          -8.0504    5.7657   24.9787 C.ar    1  UNL1        0.0000
     17 C          -6.6671    6.1469   25.4159 C.ar    1  UNL1        0.0000
     18 C          -5.4737    5.5966   24.6929 C.ar    1  UNL1        0.0000
     19 N           0.8525    1.1955   18.2576 N.pl3   1  UNL1       -0.3257
     20 H           0.1593    0.8718   17.6381 H       1  UNL1        0.1472
     21 C           1.9172    0.2592   18.7474 C.ar    1  UNL1        0.0644
     22 C           1.7435   -0.4563   20.0542 C.ar    1  UNL1        0.0175
     23 C           2.8081   -1.3925   20.5440 C.ar    1  UNL1        0.0219
     24 C           4.0465   -1.6133   19.7269 C.ar    1  UNL1        0.0987
     25 N           4.2202   -0.8979   18.4200 N.ar    1  UNL1       -0.2410
     26 C           3.1556    0.0384   17.9303 C.ar    1  UNL1        0.1131
     27 C           5.1112   -2.5497   20.2166 C.ar    1  UNL1        0.0971
     28 C           6.2206   -2.2044   21.1654 C.ar    1  UNL1        0.0427
     29 C           7.0484   -3.4369   21.3788 C.ar    1  UNL1        0.1217
     30 N           6.4506   -4.5439   20.5619 N.ar    1  UNL1       -0.1676
     31 N           5.2534   -3.9956   19.8437 N.ar    1  UNL1       -0.2473
     32 C           4.3559   -4.7591   18.9155 C.3     1  UNL1        0.1538
@<TRIPOS>BOND
     1     2     1    1
     2     2    19    1
     3    19    21    1
     4    21    22   ar
     5    22    23   ar
     6    23    24   ar
     7    24    27    1
     8    27    28   ar
     9    28    29   ar
    10    29    30   ar
    11    30    31   ar
    12    31    32    1
    13    24    25   ar
    14    25    26   ar
    15     2     3    1
    16     3     4    2
    17     3     5   am
    18     5     7    1
    19     7     8   ar
    20     8     9   ar
    21     9    10   ar
    22    10    13    1
    23    13    14   ar
    24    14    15   ar
    25    15    16   ar
    26    16    17   ar
    27    17    18   ar
    28    10    11   ar
    29    11    12   ar
    30    26    21   ar
    31    12     7   ar
    32    31    27   ar
    33    18    13   ar
    34    19    20    1
    35     5     6    1
@<TRIPOS>MOLECULE
*****
 32 35 0 0 0
SMALL
GASTEIGER

@<TRIPOS>ATOM
      1 C           8.5175   -6.6745   26.4695 C.3     1  UNL1        0.0311
      2 C           7.2321   -5.9464   26.2091 C.3     1  UNL1        0.1470
      3 C           6.9977   -5.2904   24.8807 C.2     1  UNL1        0.2450
      4 O           7.5797   -5.8899   23.6350 O.2     1  UNL1       -0.2730
      5 N           6.1811   -4.0348   24.7980 N.am    1  UNL1       -0.2680
      6 H           5.7990   -3.6413   25.6156 H       1  UNL1        0.1563
      7 C           5.9466   -3.3788   23.4696 C.ar    1  UNL1        0.1342
      8 C           4.6929   -3.6711   22.6996 C.ar    1  UNL1        0.0345
      9 C           4.4584   -3.0151   21.3712 C.ar    1  UNL1        0.0044
     10 C           5.4777   -2.0668   20.8127 C.ar    1  UNL1        0.0193
     11 C           6.7313   -1.7745   21.5827 C.ar    1  UNL1        0.1003
     12 N           6.9658   -2.4305   22.9111 N.ar    1  UNL1       -0.2290
     13 C           5.2432   -1.4107   19.4843 C.ar    1  UNL1        0.0015
     14 C           6.4076   -0.9371   18.6659 C.ar    1  UNL1        0.0000
     15 C           6.1732   -0.2810   17.3374 C.ar    1  UNL1        0.0000
     16 C           4.7743   -0.0987   16.8275 C.ar    1  UNL1        0.0000
     17 C           3.6099   -0.5724   17.6460 C.ar    1  UNL1        0.0000
     18 C           3.8444   -1.2284   18.9744 C.ar    1  UNL1        0.0000
     19 N           6.1813   -5.8744   27.2770 N.pl3   1  UNL1       -0.3257
     20 H           5.3657   -6.4209   27.2027 H       1  UNL1        0.1472
     21 C           6.3730   -4.9698   28.4581 C.ar    1  UNL1        0.0644
     22 C           6.7762   -5.5430   29.7842 C.ar    1  UNL1        0.0175
     23 C           6.9679   -4.6384   30.9652 C.ar    1  UNL1        0.0219
     24 C           6.7563   -3.1605   30.8201 C.ar    1  UNL1        0.0987
     25 N           6.3530   -2.5872   29.4940 N.ar    1  UNL1       -0.2410
     26 C           6.1613   -3.4919   28.3130 C.ar    1  UNL1        0.1131
     27 C           6.9479   -2.2558   32.0012 C.ar    1  UNL1        0.0971
     28 C           8.2624   -1.7656   32.5321 C.ar    1  UNL1        0.0427
     29 C           7.9857   -0.8894   33.7178 C.ar    1  UNL1        0.1217
     30 N           6.5002   -0.8382   33.9196 N.ar    1  UNL1       -0.1676
     31 N           5.8589   -1.6827   32.8587 N.ar    1  UNL1       -0.2473
     32 C           4.3869   -1.9134   32.6858 C.3     1  UNL1        0.1538
@<TRIPOS>BOND
     1     2     1    1
     2     2    19    1
     3    19    21    1
     4    21    22   ar
     5    22    23   ar
     6    23    24   ar
     7    24    27    1
     8    27    28   ar
     9    28    29   ar
    10    29    30   ar
    11    30    31   ar
    12    31    32    1
    13    24    25   ar
    14    25    26   ar
    15     2     3    1
    16     3     4    2
    17     3     5   am
    18     5     7    1
    19     7     8   ar
    20     8     9   ar
    21     9    10   ar
    22    10    13    1
    23    13    14   ar
    24    14    15   ar
    25    15    16   ar
    26    16    17   ar
    27    17    18   ar
    28    10    11   ar
    29    11    12   ar
    30    26    21   ar
    31    12     7   ar
    32    31    27   ar
    33    18    13   ar
    34    19    20    1
    35     5     6    1
@<TRIPOS>MOLECULE
*****
 32 35 0 0 0
SMALL
GASTEIGER

@<TRIPOS>ATOM
      1 C           8.5891   -3.1362   30.2684 C.3     1  UNL1        0.0311
      2 C           7.1410   -3.4690   30.0624 C.3     1  UNL1        0.1470
      3 C           6.5810   -3.5530   28.6734 C.2     1  UNL1        0.2450
      4 O           6.0042   -4.8445   28.1740 O.2     1  UNL1       -0.2730
      5 N           6.5977   -2.3453   27.7838 N.am    1  UNL1       -0.2680
      6 H           6.9762   -1.4977   28.1115 H       1  UNL1        0.1563
      7 C           6.0376   -2.4293   26.3947 C.ar    1  UNL1        0.1342
      8 C           4.8357   -1.6138   26.0201 C.ar    1  UNL1        0.0345
      9 C           4.2757   -1.6977   24.6311 C.ar    1  UNL1        0.0044
     10 C           4.9176   -2.5972   23.6167 C.ar    1  UNL1        0.0193
     11 C           6.1195   -3.4126   23.9914 C.ar    1  UNL1        0.1003
     12 N           6.6795   -3.3287   25.3804 N.ar    1  UNL1       -0.2290
     13 C           4.3576   -2.6811   22.2277 C.ar    1  UNL1        0.0015
     14 C           3.5681   -1.5355   21.6669 C.ar    1  UNL1        0.0000
     15 C           3.0081   -1.6195   20.2779 C.ar    1  UNL1        0.0000
     16 C           3.2376   -2.8490   19.4497 C.ar    1  UNL1        0.0000
     17 C           4.0270   -3.9945   20.0106 C.ar    1  UNL1        0.0000
     18 C           4.5870   -3.9105   21.3996 C.ar    1  UNL1        0.0000
     19 N           6.2530   -3.7179   31.2454 N.pl3   1  UNL1       -0.3257
     20 H           6.1133   -4.6362   31.5715 H       1  UNL1        0.1472
     21 C           5.5778   -2.5675   31.9316 C.ar    1  UNL1        0.0644
     22 C           4.8265   -2.7931   33.2101 C.ar    1  UNL1        0.0175
     23 C           4.1514   -1.6427   33.8962 C.ar    1  UNL1        0.0219
     24 C           4.2276   -0.2667   33.3038 C.ar    1  UNL1        0.0987
     25 N           4.9789   -0.0411   32.0254 N.ar    1  UNL1       -0.2410
     26 C           5.6540   -1.1915   31.3392 C.ar    1  UNL1        0.1131
     27 C           3.5524    0.8837   33.9900 C.ar    1  UNL1        0.0971
     28 C           3.8537    1.3866   35.3707 C.ar    1  UNL1        0.0427
     29 C           2.9450    2.5468   35.6501 C.ar    1  UNL1        0.1217
     30 N           2.0820    2.7609   34.4419 N.ar    1  UNL1       -0.1676
     31 N           2.4574    1.7331   33.4160 N.ar    1  UNL1       -0.2473
     32 C           1.8453    1.5813   32.0551 C.3     1  UNL1        0.1538
@<TRIPOS>BOND
     1     2     1    1
     2     2    19    1
     3    19    21    1
     4    21    22   ar
     5    22    23   ar
     6    23    24   ar
     7    24    27    1
     8    27    28   ar
     9    28    29   ar
    10    29    30   ar
    11    30    31   ar
    12    31    32    1
    13    24    25   ar
    14    25    26   ar
    15     2     3    1
    16     3     4    2
    17     3     5   am
    18     5     7    1
    19     7     8   ar
    20     8     9   ar
    21     9    10   ar
    22    10    13    1
    23    13    14   ar
    24    14    15   ar
    25    15    16   ar
    26    16    17   ar
    27    17    18   ar
    28    10    11   ar
    29    11    12   ar
    30    26    21   ar
    31    12     7   ar
    32    31    27   ar
    33    18    13   ar
    34    19    20    1
    35     5     6    1
@<TRIPOS>MOLECULE
*****
 32 35 0 0 0
SMALL
GASTEIGER

@<TRIPOS>ATOM
      1 C           9.3003   -4.0591   26.5382 C.3     1  UNL1        0.0311
      2 C           7.8010   -4.0140   26.5399 C.3     1  UNL1        0.1470
      3 C           7.0719   -3.2689   25.4613 C.2     1  UNL1        0.2450
      4 O           7.4749   -1.8663   25.1147 O.2     1  UNL1       -0.2730
      5 N           5.9397   -3.9266   24.7293 N.am    1  UNL1       -0.2680
      6 H           5.6751   -4.8472   24.9568 H       1  UNL1        0.1563
      7 C           5.2106   -3.1815   23.6507 C.ar    1  UNL1        0.1342
      8 C           4.2866   -2.0557   24.0100 C.ar    1  UNL1        0.0345
      9 C           3.5575   -1.3106   22.9314 C.ar    1  UNL1        0.0044
     10 C           3.7524   -1.6913   21.4936 C.ar    1  UNL1        0.0193
     11 C           4.6764   -2.8170   21.1345 C.ar    1  UNL1        0.1003
     12 N           5.4055   -3.5621   22.2130 N.ar    1  UNL1       -0.2290
     13 C           3.0233   -0.9462   20.4151 C.ar    1  UNL1        0.0015
     14 C           3.7264   -0.5998   19.1361 C.ar    1  UNL1        0.0000
     15 C           2.9973    0.1453   18.0576 C.ar    1  UNL1        0.0000
     16 C           1.5651    0.5439   18.2580 C.ar    1  UNL1        0.0000
     17 C           0.8621    0.1975   19.5369 C.ar    1  UNL1        0.0000
     18 C           1.5912   -0.5476   20.6155 C.ar    1  UNL1        0.0000
     19 N           7.0308   -4.7140   27.6200 N.pl3   1  UNL1       -0.3257
     20 H           6.7239   -5.6397   27.4849 H       1  UNL1        0.1472
     21 C           6.7281   -4.0037   28.9061 C.ar    1  UNL1        0.0644
     22 C           6.2270   -2.5901   28.8822 C.ar    1  UNL1        0.0175
     23 C           5.9243   -1.8799   30.1682 C.ar    1  UNL1        0.0219
     24 C           6.1228   -2.5832   31.4781 C.ar    1  UNL1        0.0987
     25 N           6.6240   -3.9968   31.5020 N.ar    1  UNL1       -0.2410
     26 C           6.9266   -4.7070   30.2160 C.ar    1  UNL1        0.1131
     27 C           5.8201   -1.8729   32.7642 C.ar    1  UNL1        0.0971
     28 C           4.5117   -1.8959   33.4973 C.ar    1  UNL1        0.0427
     29 C           4.6556   -1.0521   34.7291 C.ar    1  UNL1        0.1217
     30 N           6.0531   -0.5076   34.7572 N.ar    1  UNL1       -0.1676
     31 N           6.7727   -1.0149   33.5429 N.ar    1  UNL1       -0.2473
     32 C           8.1953   -0.7165   33.1723 C.3     1  UNL1        0.1538
@<TRIPOS>BOND
     1     2     1    1
     2     2    19    1
     3    19    21    1
     4    21    22   ar
     5    22    23   ar
     6    23    24   ar
     7    24    27    1
     8    27    28   ar
     9    28    29   ar
    10    29    30   ar
    11    30    31   ar
    12    31    32    1
    13    24    25   ar
    14    25    26   ar
    15     2     3    1
    16     3     4    2
    17     3     5   am
    18     5     7    1
    19     7     8   ar
    20     8     9   ar
    21     9    10   ar
    22    10    13    1
    23    13    14   ar
    24    14    15   ar
    25    15    16   ar
    26    16    17   ar
    27    17    18   ar
    28    10    11   ar
    29    11    12   ar
    30    26    21   ar
    31    12     7   ar
    32    31    27   ar
    33    18    13   ar
    34    19    20    1
    35     5     6    1
@<TRIPOS>MOLECULE
*****
 32 35 0 0 0
SMALL
GASTEIGER

@<TRIPOS>ATOM
      1 C           8.7798   -4.1374   30.8621 C.3     1  UNL1        0.0311
      2 C           7.2888   -4.1108   30.7001 C.3     1  UNL1        0.1470
      3 C           6.6853   -3.9407   29.3375 C.2     1  UNL1        0.2450
      4 O           6.1207   -5.1271   28.6138 O.2     1  UNL1       -0.2730
      5 N           6.6463   -2.5842   28.6984 N.am    1  UNL1       -0.2680
      6 H           7.0168   -1.8055   29.1734 H       1  UNL1        0.1563
      7 C           6.0428   -2.4141   27.3358 C.ar    1  UNL1        0.1342
      8 C           4.7854   -1.6138   27.1670 C.ar    1  UNL1        0.0345
      9 C           4.1819   -1.4437   25.8043 C.ar    1  UNL1        0.0044
     10 C           4.8358   -2.0740   24.6104 C.ar    1  UNL1        0.0193
     11 C           6.0932   -2.8742   24.7793 C.ar    1  UNL1        0.1003
     12 N           6.6967   -3.0443   26.1419 N.ar    1  UNL1       -0.2290
     13 C           4.2323   -1.9039   23.2478 C.ar    1  UNL1        0.0015
     14 C           4.6717   -2.7868   22.1174 C.ar    1  UNL1        0.0000
     15 C           4.0682   -2.6167   20.7547 C.ar    1  UNL1        0.0000
     16 C           3.0253   -1.5638   20.5224 C.ar    1  UNL1        0.0000
     17 C           2.5860   -0.6810   21.6527 C.ar    1  UNL1        0.0000
     18 C           3.1895   -0.8511   23.0154 C.ar    1  UNL1        0.0000
     19 N           6.4013   -4.2542   31.9009 N.pl3   1  UNL1       -0.3257
     20 H           6.2076   -5.1478   32.2659 H       1  UNL1        0.1472
     21 C           5.8089   -3.0362   32.5455 C.ar    1  UNL1        0.0644
     22 C           6.5397   -1.7275   32.4896 C.ar    1  UNL1        0.0175
     23 C           5.9473   -0.5096   33.1342 C.ar    1  UNL1        0.0219
     24 C           4.6240   -0.6003   33.8346 C.ar    1  UNL1        0.0987
     25 N           3.8931   -1.9089   33.8905 N.ar    1  UNL1       -0.2410
     26 C           4.4855   -3.1269   33.2459 C.ar    1  UNL1        0.1131
     27 C           4.0315    0.6178   34.4793 C.ar    1  UNL1        0.0971
     28 C           3.1977    1.6601   33.7950 C.ar    1  UNL1        0.0427
     29 C           2.8197    2.6939   34.8140 C.ar    1  UNL1        0.1217
     30 N           3.4200    2.2904   36.1282 N.ar    1  UNL1       -0.1676
     31 N           4.1689    1.0073   35.9212 N.ar    1  UNL1       -0.2473
     32 C           4.9229    0.2473   36.9719 C.3     1  UNL1        0.1538
@<TRIPOS>BOND
     1     2     1    1
     2     2    19    1
     3    19    21    1
     4    21    22   ar
     5    22    23   ar
     6    23    24   ar
     7    24    27    1
     8    27    28   ar
     9    28    29   ar
    10    29    30   ar
    11    30    31   ar
    12    31    32    1
    13    24    25   ar
    14    25    26   ar
    15     2     3    1
    16     3     4    2
    17     3     5   am
    18     5     7    1
    19     7     8   ar
    20     8     9   ar
    21     9    10   ar
    22    10    13    1
    23    13    14   ar
    24    14    15   ar
    25    15    16   ar
    26    16    17   ar
    27    17    18   ar
    28    10    11   ar
    29    11    12   ar
    30    26    21   ar
    31    12     7   ar
    32    31    27   ar
    33    18    13   ar
    34    19    20    1
    35     5     6    1
@<TRIPOS>MOLECULE
*****
 32 35 0 0 0
SMALL
GASTEIGER

@<TRIPOS>ATOM
      1 C           7.5868   -7.7142   25.7981 C.3     1  UNL1        0.0311
      2 C           8.2590   -6.3738   25.8379 C.3     1  UNL1        0.1470
      3 C           8.0981   -5.4895   27.0388 C.2     1  UNL1        0.2450
      4 O           9.1644   -4.4928   27.3846 O.2     1  UNL1       -0.2730
      5 N           6.8708   -5.6019   27.8939 N.am    1  UNL1       -0.2680
      6 H           6.1709   -6.2561   27.6670 H       1  UNL1        0.1563
      7 C           6.7098   -4.7176   29.0948 C.ar    1  UNL1        0.1342
      8 C           6.9348   -5.2723   30.4702 C.ar    1  UNL1        0.0345
      9 C           6.7738   -4.3880   31.6711 C.ar    1  UNL1        0.0044
     10 C           6.3880   -2.9490   31.4966 C.ar    1  UNL1        0.0193
     11 C           6.1631   -2.3944   30.1212 C.ar    1  UNL1        0.1003
     12 N           6.3240   -3.2787   28.9203 N.ar    1  UNL1       -0.2290
     13 C           6.2270   -2.0647   32.6974 C.ar    1  UNL1        0.0015
     14 C           7.3924   -1.2668   33.2029 C.ar    1  UNL1        0.0000
     15 C           7.2315   -0.3825   34.4038 C.ar    1  UNL1        0.0000
     16 C           5.9052   -0.2961   35.0992 C.ar    1  UNL1        0.0000
     17 C           4.7399   -1.0939   34.5937 C.ar    1  UNL1        0.0000
     18 C           4.9008   -1.9782   33.3928 C.ar    1  UNL1        0.0000
     19 N           9.0921   -5.9177   24.6769 N.pl3   1  UNL1       -0.3257
     20 H          10.0710   -6.0191   24.7036 H       1  UNL1        0.1472
     21 C           8.4337   -5.3072   23.4753 C.ar    1  UNL1        0.0644
     22 C           7.2979   -4.3434   23.6510 C.ar    1  UNL1        0.0175
     23 C           6.6395   -3.7330   22.4494 C.ar    1  UNL1        0.0219
     24 C           7.1171   -4.0863   21.0721 C.ar    1  UNL1        0.0987
     25 N           8.2529   -5.0501   20.8963 N.ar    1  UNL1       -0.2410
     26 C           8.9112   -5.6605   22.0979 C.ar    1  UNL1        0.1131
     27 C           6.4587   -3.4758   19.8704 C.ar    1  UNL1        0.0971
     28 C           5.0433   -3.7041   19.4293 C.ar    1  UNL1        0.0427
     29 C           4.8099   -2.8992   18.1853 C.ar    1  UNL1        0.1217
     30 N           6.0811   -2.1734   17.8575 N.ar    1  UNL1       -0.1676
     31 N           7.1001   -2.5298   18.8990 N.ar    1  UNL1       -0.2473
     32 C           8.5124   -2.0281   18.9586 C.3     1  UNL1        0.1538
@<TRIPOS>BOND
     1     2     1    1
     2     2    19    1
     3    19    21    1
     4    21    22   ar
     5    22    23   ar
     6    23    24   ar
     7    24    27    1
     8    27    28   ar
     9    28    29   ar
    10    29    30   ar
    11    30    31   ar
    12    31    32    1
    13    24    25   ar
    14    25    26   ar
    15     2     3    1
    16     3     4    2
    17     3     5   am
    18     5     7    1
    19     7     8   ar
    20     8     9   ar
    21     9    10   ar
    22    10    13    1
    23    13    14   ar
    24    14    15   ar
    25    15    16   ar
    26    16    17   ar
    27    17    18   ar
    28    10    11   ar
    29    11    12   ar
    30    26    21   ar
    31    12     7   ar
    32    31    27   ar
    33    18    13   ar
    34    19    20    1
    35     5     6    1
@<TRIPOS>MOLECULE
*****
 32 35 0 0 0
SMALL
GASTEIGER

@<TRIPOS>ATOM
      1 C          -1.2133    4.3854   24.5949 C.3     1  UNL1        0.0311
      2 C          -1.0027    2.9770   25.0663 C.3     1  UNL1        0.1470
      3 C          -0.1157    2.0505   24.2886 C.2     1  UNL1        0.2450
      4 O           0.6668    0.9874   25.0010 O.2     1  UNL1       -0.2730
      5 N          -0.0111    2.1872   22.7985 N.am    1  UNL1       -0.2680
      6 H          -0.5247    2.8850   22.3309 H       1  UNL1        0.1563
      7 C           0.8759    1.2607   22.0208 C.ar    1  UNL1        0.1342
      8 C           2.3608    1.2908   22.2319 C.ar    1  UNL1        0.0345
      9 C           3.2478    0.3644   21.4542 C.ar    1  UNL1        0.0044
     10 C           2.6500   -0.5923   20.4654 C.ar    1  UNL1        0.0193
     11 C           1.1653   -0.6224   20.2543 C.ar    1  UNL1        0.1003
     12 N           0.2782    0.3041   21.0320 N.ar    1  UNL1       -0.2290
     13 C           3.5370   -1.5187   19.6877 C.ar    1  UNL1        0.0015
     14 C           3.3186   -3.0011   19.7580 C.ar    1  UNL1        0.0000
     15 C           4.2057   -3.9276   18.9803 C.ar    1  UNL1        0.0000
     16 C           5.3111   -3.3717   18.1323 C.ar    1  UNL1        0.0000
     17 C           5.5294   -1.8894   18.0620 C.ar    1  UNL1        0.0000
     18 C           4.6424   -0.9629   18.8397 C.ar    1  UNL1        0.0000
     19 N          -1.6791    2.4952   26.3154 N.pl3   1  UNL1       -0.3257
     20 H          -2.6485    2.3231   26.3151 H       1  UNL1        0.1472
     21 C          -0.8787    2.2754   27.5648 C.ar    1  UNL1        0.0644
     22 C           0.0981    3.3176   28.0227 C.ar    1  UNL1        0.0175
     23 C           0.8985    3.0978   29.2721 C.ar    1  UNL1        0.0219
     24 C           0.7221    1.8359   30.0636 C.ar    1  UNL1        0.0987
     25 N          -0.2546    0.7937   29.6056 N.ar    1  UNL1       -0.2410
     26 C          -1.0550    1.0135   28.3562 C.ar    1  UNL1        0.1131
     27 C           1.5226    1.6161   31.3130 C.ar    1  UNL1        0.0971
     28 C           1.4495    2.4413   32.5635 C.ar    1  UNL1        0.0427
     29 C           2.4183    1.8679   33.5547 C.ar    1  UNL1        0.1217
     30 N           3.0903    0.6882   32.9167 N.ar    1  UNL1       -0.1676
     31 N           2.5367    0.5326   31.5313 N.ar    1  UNL1       -0.2473
     32 C           2.9284   -0.5214   30.5385 C.3     1  UNL1        0.1538
@<TRIPOS>BOND
     1     2     1    1
     2     2    19    1
     3    19    21    1
     4    21    22   ar
     5    22    23   ar
     6    23    24   ar
     7    24    27    1
     8    27    28   ar
     9    28    29   ar
    10    29    30   ar
    11    30    31   ar
    12    31    32    1
    13    24    25   ar
    14    25    26   ar
    15     2     3    1
    16     3     4    2
    17     3     5   am
    18     5     7    1
    19     7     8   ar
    20     8     9   ar
    21     9    10   ar
    22    10    13    1
    23    13    14   ar
    24    14    15   ar
    25    15    16   ar
    26    16    17   ar
    27    17    18   ar
    28    10    11   ar
    29    11    12   ar
    30    26    21   ar
    31    12     7   ar
    32    31    27   ar
    33    18    13   ar
    34    19    20    1
    35     5     6    1
