@<TRIPOS>MOLECULE
*****
 27 30 0 0 0
SMALL
GASTEIGER

@<TRIPOS>ATOM
      1 C         -10.7163  -17.9009   23.0418 C.ar    1  UNL1        0.0290
      2 C         -11.2481  -19.0445   23.8539 C.ar    1  UNL1        0.0971
      3 N         -10.3909  -20.2499   24.1029 N.ar    1  UNL1       -0.2425
      4 C          -9.0020  -20.3119   23.5399 C.ar    1  UNL1        0.1004
      5 C          -8.4702  -19.1683   22.7279 C.ar    1  UNL1        0.0377
      6 C          -9.3273  -17.9629   22.4788 C.ar    1  UNL1        0.0029
      7 C          -7.0812  -19.2302   22.1649 C.ar    1  UNL1        0.0963
      8 N          -6.5590  -20.2702   21.2184 N.ar    1  UNL1       -0.2268
      9 C          -5.1257  -19.9458   20.9180 C.ar    1  UNL1        0.1476
     10 C          -4.1047  -20.6196   20.0500 C.ar    1  UNL1        0.0397
     11 C          -2.7200  -20.0530   19.9429 C.ar    1  UNL1        0.0343
     12 C          -2.3563  -18.8126   20.7038 C.ar    1  UNL1        0.1577
     13 F          -0.9715  -18.2460   20.5967 F       1  UNL1       -0.2026
     14 C          -3.3772  -18.1387   21.5718 C.ar    1  UNL1        0.1110
     15 N          -4.7619  -18.7053   21.6789 N.ar    1  UNL1       -0.2906
     16 C          -5.9705  -18.2631   22.4495 C.ar    1  UNL1        0.0601
     17 C          -6.0538  -17.0642   23.3471 C.3     1  UNL1        0.0402
     18 C          -5.3806  -16.0373   24.2089 C.3     1  UNL1        0.0063
     19 C          -6.8710  -16.0145   24.0402 C.3     1  UNL1        0.0063
     20 C         -12.4306  -15.4899   22.5436 C.3     1  UNL1        0.0428
     21 C         -11.5735  -16.6954   22.7927 C.3     1  UNL1        0.1959
     22 O         -10.4986  -15.8144   23.3570 O.3     1  UNL1       -0.3751
     23 H         -10.7895  -14.8896   23.3268 H       1  UNL1        0.2110
     24 C         -12.6484  -17.5763   22.2284 C.3     1  UNL1        0.4231
     25 F         -13.7234  -18.4573   21.6641 F       1  UNL1       -0.1673
     26 F         -13.5216  -17.2664   23.4080 F       1  UNL1       -0.1673
     27 F         -12.0613  -18.0902   20.9473 F       1  UNL1       -0.1673
@<TRIPOS>BOND
     1    21    20    1
     2    21    22    1
     3    21     1    1
     4     1     2   ar
     5     2     3   ar
     6     3     4   ar
     7     4     5   ar
     8     5     7    1
     9     7     8   ar
    10     8     9   ar
    11     9    10   ar
    12    10    11   ar
    13    11    12   ar
    14    12    13    1
    15    12    14   ar
    16    14    15   ar
    17    15    16   ar
    18    16    17    1
    19    17    18    1
    20    18    19    1
    21     5     6   ar
    22    21    24    1
    23    24    25    1
    24    24    26    1
    25    24    27    1
    26     6     1   ar
    27    16     7   ar
    28    19    17    1
    29    15     9   ar
    30    22    23    1
@<TRIPOS>MOLECULE
*****
 27 30 0 0 0
SMALL
GASTEIGER

@<TRIPOS>ATOM
      1 C         -11.1452  -18.7109   22.2975 C.ar    1  UNL1        0.0290
      2 C         -11.8158  -18.6164   20.9592 C.ar    1  UNL1        0.0971
      3 N         -10.9951  -18.6591   19.7044 N.ar    1  UNL1       -0.2425
      4 C          -9.5037  -18.7964   19.7880 C.ar    1  UNL1        0.1004
      5 C          -8.8331  -18.8909   21.1264 C.ar    1  UNL1        0.0377
      6 C          -9.6539  -18.8482   22.3812 C.ar    1  UNL1        0.0029
      7 C          -7.3418  -19.0282   21.2100 C.ar    1  UNL1        0.0963
      8 N          -6.4993  -19.9884   20.4237 N.ar    1  UNL1       -0.2268
      9 C          -5.0678  -19.7831   20.8224 C.ar    1  UNL1        0.1476
     10 C          -3.7974  -20.4455   20.3784 C.ar    1  UNL1        0.0397
     11 C          -2.4848  -20.0209   20.9672 C.ar    1  UNL1        0.0343
     12 C          -2.4426  -18.9337   21.9998 C.ar    1  UNL1        0.1577
     13 F          -1.1299  -18.5091   22.5886 F       1  UNL1       -0.2026
     14 C          -3.7130  -18.2713   22.4438 C.ar    1  UNL1        0.1110
     15 N          -5.0257  -18.6959   21.8550 N.ar    1  UNL1       -0.2906
     16 C          -6.4310  -18.2294   22.0946 C.ar    1  UNL1        0.0601
     17 C          -6.8517  -17.1531   23.0509 C.3     1  UNL1        0.0402
     18 C          -6.5074  -15.9783   23.9177 C.3     1  UNL1        0.0063
     19 C          -7.9246  -16.4635   23.8404 C.3     1  UNL1        0.0063
     20 C         -12.7867  -18.6253   24.8072 C.3     1  UNL1        0.0428
     21 C         -11.9660  -18.6681   23.5524 C.3     1  UNL1        0.1959
     22 O         -11.4018  -19.9948   23.9667 O.3     1  UNL1       -0.3751
     23 H         -11.7806  -20.2546   24.8210 H       1  UNL1        0.2110
     24 C         -12.5302  -17.3415   23.1381 C.3     1  UNL1        0.4231
     25 F         -13.0945  -16.0148   22.7238 F       1  UNL1       -0.1673
     26 F         -13.8966  -17.9527   23.0418 F       1  UNL1       -0.1673
     27 F         -11.3410  -16.4274   23.1313 F       1  UNL1       -0.1673
@<TRIPOS>BOND
     1    21    20    1
     2    21    22    1
     3    21     1    1
     4     1     2   ar
     5     2     3   ar
     6     3     4   ar
     7     4     5   ar
     8     5     7    1
     9     7     8   ar
    10     8     9   ar
    11     9    10   ar
    12    10    11   ar
    13    11    12   ar
    14    12    13    1
    15    12    14   ar
    16    14    15   ar
    17    15    16   ar
    18    16    17    1
    19    17    18    1
    20    18    19    1
    21     5     6   ar
    22    21    24    1
    23    24    25    1
    24    24    26    1
    25    24    27    1
    26     6     1   ar
    27    16     7   ar
    28    19    17    1
    29    15     9   ar
    30    22    23    1
@<TRIPOS>MOLECULE
*****
 27 30 0 0 0
SMALL
GASTEIGER

@<TRIPOS>ATOM
      1 C          -3.5987  -18.9411   20.3420 C.ar    1  UNL1        0.0290
      2 C          -3.4302  -20.4177   20.1384 C.ar    1  UNL1        0.0971
      3 N          -4.6273  -21.3208   20.1723 N.ar    1  UNL1       -0.2425
      4 C          -5.9929  -20.7474   20.4097 C.ar    1  UNL1        0.1004
      5 C          -6.1615  -19.2709   20.6133 C.ar    1  UNL1        0.0377
      6 C          -4.9643  -18.3678   20.5794 C.ar    1  UNL1        0.0029
      7 C          -7.5271  -18.6976   20.8507 C.ar    1  UNL1        0.0963
      8 N          -8.7762  -19.0559   20.1015 N.ar    1  UNL1       -0.2268
      9 C          -9.9045  -18.2450   20.6667 C.ar    1  UNL1        0.1476
     10 C         -11.3630  -18.1782   20.3231 C.ar    1  UNL1        0.0397
     11 C         -12.2697  -17.2520   21.0779 C.ar    1  UNL1        0.0343
     12 C         -11.7179  -16.3924   22.1764 C.ar    1  UNL1        0.1577
     13 F         -12.6247  -15.4661   22.9313 F       1  UNL1       -0.2026
     14 C         -10.2593  -16.4592   22.5201 C.ar    1  UNL1        0.1110
     15 N          -9.3526  -17.3855   21.7653 N.ar    1  UNL1       -0.2906
     16 C          -7.8833  -17.6652   21.8789 C.ar    1  UNL1        0.0601
     17 C          -6.9365  -17.0249   22.8503 C.3     1  UNL1        0.0402
     18 C          -6.6053  -15.9118   23.7997 C.3     1  UNL1        0.0063
     19 C          -5.6280  -17.0289   23.5835 C.3     1  UNL1        0.0063
     20 C          -1.2045  -17.1347   20.2742 C.3     1  UNL1        0.0428
     21 C          -2.4016  -18.0379   20.3081 C.3     1  UNL1        0.1959
     22 O          -2.3743  -18.1301   18.8112 O.3     1  UNL1       -0.3751
     23 H          -1.6386  -17.5993   18.4679 H       1  UNL1        0.2110
     24 C          -2.4289  -17.9457   21.8050 C.3     1  UNL1        0.4231
     25 F          -2.4562  -17.8534   23.3019 F       1  UNL1       -0.1673
     26 F          -2.6334  -16.4627   21.7099 F       1  UNL1       -0.1673
     27 F          -2.2371  -19.3622   22.2595 F       1  UNL1       -0.1673
@<TRIPOS>BOND
     1    21    20    1
     2    21    22    1
     3    21     1    1
     4     1     2   ar
     5     2     3   ar
     6     3     4   ar
     7     4     5   ar
     8     5     7    1
     9     7     8   ar
    10     8     9   ar
    11     9    10   ar
    12    10    11   ar
    13    11    12   ar
    14    12    13    1
    15    12    14   ar
    16    14    15   ar
    17    15    16   ar
    18    16    17    1
    19    17    18    1
    20    18    19    1
    21     5     6   ar
    22    21    24    1
    23    24    25    1
    24    24    26    1
    25    24    27    1
    26     6     1   ar
    27    16     7   ar
    28    19    17    1
    29    15     9   ar
    30    22    23    1
@<TRIPOS>MOLECULE
*****
 27 30 0 0 0
SMALL
GASTEIGER

@<TRIPOS>ATOM
      1 C         -10.6861  -18.0786   21.6940 C.ar    1  UNL1        0.0290
      2 C         -11.2160  -19.2123   22.5211 C.ar    1  UNL1        0.0971
      3 N         -10.2669  -20.1136   23.2537 N.ar    1  UNL1       -0.2425
      4 C          -8.7880  -19.8813   23.1592 C.ar    1  UNL1        0.1004
      5 C          -8.2582  -18.7477   22.3322 C.ar    1  UNL1        0.0377
      6 C          -9.2072  -17.8463   21.5996 C.ar    1  UNL1        0.0029
      7 C          -6.7793  -18.5154   22.2378 C.ar    1  UNL1        0.0963
      8 N          -6.0016  -17.4706   22.9818 N.ar    1  UNL1       -0.2268
      9 C          -4.5601  -17.5966   22.5866 C.ar    1  UNL1        0.1476
     10 C          -3.3360  -16.8341   22.9990 C.ar    1  UNL1        0.0397
     11 C          -1.9986  -17.1943   22.4230 C.ar    1  UNL1        0.0343
     12 C          -1.8854  -18.3169   21.4347 C.ar    1  UNL1        0.1577
     13 F          -0.5480  -18.6771   20.8587 F       1  UNL1       -0.2026
     14 C          -3.1095  -19.0794   21.0223 C.ar    1  UNL1        0.1110
     15 N          -4.4469  -18.7193   21.5983 N.ar    1  UNL1       -0.2906
     16 C          -5.8184  -19.2871   21.3827 C.ar    1  UNL1        0.0601
     17 C          -6.1677  -20.4266   20.4719 C.3     1  UNL1        0.0402
     18 C          -5.8674  -21.7899   19.9230 C.3     1  UNL1        0.0063
     19 C          -7.0728  -21.0370   19.4433 C.3     1  UNL1        0.0063
     20 C         -12.5843  -16.2757   20.2288 C.3     1  UNL1        0.0428
     21 C         -11.6352  -17.1772   20.9614 C.3     1  UNL1        0.1959
     22 O         -10.7787  -17.2731   19.7337 O.3     1  UNL1       -0.3751
     23 H         -11.1727  -16.7442   19.0224 H       1  UNL1        0.2110
     24 C         -12.4917  -17.0812   22.1890 C.3     1  UNL1        0.4231
     25 F         -13.3483  -16.9852   23.4167 F       1  UNL1       -0.1673
     26 F         -13.5468  -17.9093   21.5176 F       1  UNL1       -0.1673
     27 F         -11.6752  -16.2544   23.1376 F       1  UNL1       -0.1673
@<TRIPOS>BOND
     1    21    20    1
     2    21    22    1
     3    21     1    1
     4     1     2   ar
     5     2     3   ar
     6     3     4   ar
     7     4     5   ar
     8     5     7    1
     9     7     8   ar
    10     8     9   ar
    11     9    10   ar
    12    10    11   ar
    13    11    12   ar
    14    12    13    1
    15    12    14   ar
    16    14    15   ar
    17    15    16   ar
    18    16    17    1
    19    17    18    1
    20    18    19    1
    21     5     6   ar
    22    21    24    1
    23    24    25    1
    24    24    26    1
    25    24    27    1
    26     6     1   ar
    27    16     7   ar
    28    19    17    1
    29    15     9   ar
    30    22    23    1
@<TRIPOS>MOLECULE
*****
 27 30 0 0 0
SMALL
GASTEIGER

@<TRIPOS>ATOM
      1 C          -3.5831  -18.7767   20.7834 C.ar    1  UNL1        0.0290
      2 C          -3.3020  -20.1683   20.2995 C.ar    1  UNL1        0.0971
      3 N          -4.4201  -21.1611   20.1804 N.ar    1  UNL1       -0.2425
      4 C          -5.8193  -20.7622   20.5453 C.ar    1  UNL1        0.1004
      5 C          -6.1004  -19.3705   21.0293 C.ar    1  UNL1        0.0377
      6 C          -4.9823  -18.3778   21.1483 C.ar    1  UNL1        0.0029
      7 C          -7.4996  -18.9717   21.3942 C.ar    1  UNL1        0.0963
      8 N          -7.9075  -18.2062   22.6180 N.ar    1  UNL1       -0.2268
      9 C          -9.3966  -18.0297   22.5795 C.ar    1  UNL1        0.1476
     10 C         -10.3520  -17.3561   23.5194 C.ar    1  UNL1        0.0397
     11 C         -11.8200  -17.3388   23.2115 C.ar    1  UNL1        0.0343
     12 C         -12.3324  -17.9951   21.9639 C.ar    1  UNL1        0.1577
     13 F         -13.8005  -17.9778   21.6561 F       1  UNL1       -0.2026
     14 C         -11.3770  -18.6687   21.0241 C.ar    1  UNL1        0.1110
     15 N          -9.9090  -18.6860   21.3319 N.ar    1  UNL1       -0.2906
     16 C          -8.7367  -19.2682   20.5993 C.ar    1  UNL1        0.0601
     17 C          -8.7917  -20.0157   19.3000 C.3     1  UNL1        0.0402
     18 C          -9.4446  -20.2682   17.9733 C.3     1  UNL1        0.0063
     19 C          -8.2344  -21.0577   18.3762 C.3     1  UNL1        0.0063
     20 C          -1.3469  -16.7910   21.0215 C.3     1  UNL1        0.0428
     21 C          -2.4650  -17.7838   20.9025 C.3     1  UNL1        0.1959
     22 O          -2.7966  -17.5841   22.3517 O.3     1  UNL1       -0.3751
     23 H          -2.1864  -16.9357   22.7366 H       1  UNL1        0.2110
     24 C          -2.1334  -17.9836   19.4534 C.3     1  UNL1        0.4231
     25 F          -1.8017  -18.1834   18.0042 F       1  UNL1       -0.1673
     26 F          -0.8227  -18.6029   19.8387 F       1  UNL1       -0.1673
     27 F          -3.3248  -17.4311   18.7288 F       1  UNL1       -0.1673
@<TRIPOS>BOND
     1    21    20    1
     2    21    22    1
     3    21     1    1
     4     1     2   ar
     5     2     3   ar
     6     3     4   ar
     7     4     5   ar
     8     5     7    1
     9     7     8   ar
    10     8     9   ar
    11     9    10   ar
    12    10    11   ar
    13    11    12   ar
    14    12    13    1
    15    12    14   ar
    16    14    15   ar
    17    15    16   ar
    18    16    17    1
    19    17    18    1
    20    18    19    1
    21     5     6   ar
    22    21    24    1
    23    24    25    1
    24    24    26    1
    25    24    27    1
    26     6     1   ar
    27    16     7   ar
    28    19    17    1
    29    15     9   ar
    30    22    23    1
@<TRIPOS>MOLECULE
*****
 27 30 0 0 0
SMALL
GASTEIGER

@<TRIPOS>ATOM
      1 C          -2.9220  -18.0151   21.6409 C.ar    1  UNL1        0.0290
      2 C          -2.5042  -17.7891   23.0636 C.ar    1  UNL1        0.0971
      3 N          -3.5399  -17.7082   24.1456 N.ar    1  UNL1       -0.2425
      4 C          -4.9934  -17.8534   23.8049 C.ar    1  UNL1        0.1004
      5 C          -5.4113  -18.0794   22.3821 C.ar    1  UNL1        0.0377
      6 C          -4.3756  -18.1603   21.3001 C.ar    1  UNL1        0.0029
      7 C          -6.8648  -18.2246   22.0414 C.ar    1  UNL1        0.0963
      8 N          -7.4465  -19.1920   21.0535 N.ar    1  UNL1       -0.2268
      9 C          -8.9331  -18.9932   21.0302 C.ar    1  UNL1        0.1476
     10 C         -10.0233  -19.6640   20.2484 C.ar    1  UNL1        0.0397
     11 C         -11.4506  -19.2446   20.4400 C.ar    1  UNL1        0.0343
     12 C         -11.7877  -18.1544   21.4135 C.ar    1  UNL1        0.1577
     13 F         -13.2152  -17.7350   21.6051 F       1  UNL1       -0.2026
     14 C         -10.6975  -17.4835   22.1954 C.ar    1  UNL1        0.1110
     15 N          -9.2702  -17.9029   22.0037 N.ar    1  UNL1       -0.2906
     16 C          -7.9919  -17.4279   22.6286 C.ar    1  UNL1        0.0601
     17 C          -7.8634  -16.3461   23.6597 C.3     1  UNL1        0.0402
     18 C          -8.1523  -15.8214   25.0350 C.3     1  UNL1        0.0063
     19 C          -7.3520  -14.9973   24.0706 C.3     1  UNL1        0.0063
     20 C          -0.8507  -18.1769   19.4768 C.3     1  UNL1        0.0428
     21 C          -1.8863  -18.0960   20.5588 C.3     1  UNL1        0.1959
     22 O          -1.1086  -16.9975   21.2210 O.3     1  UNL1       -0.3751
     23 H          -0.3096  -16.8100   20.7040 H       1  UNL1        0.2110
     24 C          -2.6640  -19.1944   19.8966 C.3     1  UNL1        0.4231
     25 F          -3.4417  -20.2930   19.2344 F       1  UNL1       -0.1673
     26 F          -2.9607  -18.2870   18.7397 F       1  UNL1       -0.1673
     27 F          -2.5643  -20.3408   20.8588 F       1  UNL1       -0.1673
@<TRIPOS>BOND
     1    21    20    1
     2    21    22    1
     3    21     1    1
     4     1     2   ar
     5     2     3   ar
     6     3     4   ar
     7     4     5   ar
     8     5     7    1
     9     7     8   ar
    10     8     9   ar
    11     9    10   ar
    12    10    11   ar
    13    11    12   ar
    14    12    13    1
    15    12    14   ar
    16    14    15   ar
    17    15    16   ar
    18    16    17    1
    19    17    18    1
    20    18    19    1
    21     5     6   ar
    22    21    24    1
    23    24    25    1
    24    24    26    1
    25    24    27    1
    26     6     1   ar
    27    16     7   ar
    28    19    17    1
    29    15     9   ar
    30    22    23    1
@<TRIPOS>MOLECULE
*****
 27 30 0 0 0
SMALL
GASTEIGER

@<TRIPOS>ATOM
      1 C          -4.5303  -19.1164   21.5805 C.ar    1  UNL1        0.0290
      2 C          -4.4225  -20.2877   20.6498 C.ar    1  UNL1        0.0971
      3 N          -5.6613  -20.8923   20.0585 N.ar    1  UNL1       -0.2425
      4 C          -7.0080  -20.3254   20.3978 C.ar    1  UNL1        0.1004
      5 C          -7.1158  -19.1541   21.3286 C.ar    1  UNL1        0.0377
      6 C          -5.8770  -18.5496   21.9199 C.ar    1  UNL1        0.0029
      7 C          -8.4625  -18.5873   21.6680 C.ar    1  UNL1        0.0963
      8 N          -9.0953  -17.3811   21.0397 N.ar    1  UNL1       -0.2268
      9 C         -10.4367  -17.1755   21.6786 C.ar    1  UNL1        0.1476
     10 C         -11.5048  -16.1451   21.4609 C.ar    1  UNL1        0.0397
     11 C         -12.7691  -16.1938   22.2664 C.ar    1  UNL1        0.0343
     12 C         -12.9655  -17.2729   23.2897 C.ar    1  UNL1        0.1577
     13 F         -14.2299  -17.3215   24.0952 F       1  UNL1       -0.2026
     14 C         -11.8974  -18.3033   23.5074 C.ar    1  UNL1        0.1110
     15 N         -10.6330  -18.2546   22.7018 N.ar    1  UNL1       -0.2906
     16 C          -9.4129  -19.1271   22.6952 C.ar    1  UNL1        0.0601
     17 C          -9.1835  -20.3286   23.5635 C.3     1  UNL1        0.0402
     18 C          -9.6259  -21.2289   24.6788 C.3     1  UNL1        0.0063
     19 C          -8.3439  -21.5092   23.9522 C.3     1  UNL1        0.0063
     20 C          -2.0525  -17.9072   22.7632 C.3     1  UNL1        0.0428
     21 C          -3.2914  -18.5118   22.1719 C.3     1  UNL1        0.1959
     22 O          -4.0244  -18.2669   23.4574 O.3     1  UNL1       -0.3751
     23 H          -3.4271  -17.8455   24.0950 H       1  UNL1        0.2110
     24 C          -2.5583  -18.7566   20.8864 C.3     1  UNL1        0.4231
     25 F          -1.8252  -19.0015   19.6008 F       1  UNL1       -0.1673
     26 F          -3.1543  -17.5073   20.3085 F       1  UNL1       -0.1673
     27 F          -1.8026  -20.0281   21.1359 F       1  UNL1       -0.1673
@<TRIPOS>BOND
     1    21    20    1
     2    21    22    1
     3    21     1    1
     4     1     2   ar
     5     2     3   ar
     6     3     4   ar
     7     4     5   ar
     8     5     7    1
     9     7     8   ar
    10     8     9   ar
    11     9    10   ar
    12    10    11   ar
    13    11    12   ar
    14    12    13    1
    15    12    14   ar
    16    14    15   ar
    17    15    16   ar
    18    16    17    1
    19    17    18    1
    20    18    19    1
    21     5     6   ar
    22    21    24    1
    23    24    25    1
    24    24    26    1
    25    24    27    1
    26     6     1   ar
    27    16     7   ar
    28    19    17    1
    29    15     9   ar
    30    22    23    1
@<TRIPOS>MOLECULE
*****
 27 30 0 0 0
SMALL
GASTEIGER

@<TRIPOS>ATOM
      1 C          -2.6472  -17.8652   21.6604 C.ar    1  UNL1        0.0290
      2 C          -1.9759  -17.9037   23.0012 C.ar    1  UNL1        0.0971
      3 N          -2.7992  -17.8508   24.2539 N.ar    1  UNL1       -0.2425
      4 C          -4.2938  -17.7594   24.1658 C.ar    1  UNL1        0.1004
      5 C          -4.9651  -17.7210   22.8250 C.ar    1  UNL1        0.0377
      6 C          -4.1418  -17.7738   21.5723 C.ar    1  UNL1        0.0029
      7 C          -6.4597  -17.6296   22.7369 C.ar    1  UNL1        0.0963
      8 N          -7.3261  -16.6365   23.4532 N.ar    1  UNL1       -0.2268
      9 C          -8.7523  -16.9084   23.0760 C.ar    1  UNL1        0.1476
     10 C         -10.0391  -16.2487   23.4744 C.ar    1  UNL1        0.0397
     11 C         -11.3409  -16.7502   22.9233 C.ar    1  UNL1        0.0343
     12 C         -11.3559  -17.9114   21.9739 C.ar    1  UNL1        0.1577
     13 F         -12.6579  -18.4128   21.4229 F       1  UNL1       -0.2026
     14 C         -10.0691  -18.5711   21.5755 C.ar    1  UNL1        0.1110
     15 N          -8.7672  -18.0696   22.1265 N.ar    1  UNL1       -0.2906
     16 C          -7.3504  -18.5153   21.9170 C.ar    1  UNL1        0.0601
     17 C          -6.9028  -19.6479   21.0412 C.3     1  UNL1        0.0402
     18 C          -6.1237  -20.9161   20.8545 C.3     1  UNL1        0.0063
     19 C          -6.9066  -20.3415   19.7113 C.3     1  UNL1        0.0063
     20 C          -1.0006  -17.9710   19.1549 C.3     1  UNL1        0.0428
     21 C          -1.8238  -17.9181   20.4076 C.3     1  UNL1        0.1959
     22 O          -0.9447  -16.8251   20.9392 O.3     1  UNL1       -0.3751
     23 H          -0.2533  -16.6218   20.2900 H       1  UNL1        0.2110
     24 C          -2.7029  -19.0110   19.8761 C.3     1  UNL1        0.4231
     25 F          -3.5821  -20.1040   19.3445 F       1  UNL1       -0.1673
     26 F          -3.2034  -18.0876   18.8052 F       1  UNL1       -0.1673
     27 F          -2.4301  -20.1715   20.7865 F       1  UNL1       -0.1673
@<TRIPOS>BOND
     1    21    20    1
     2    21    22    1
     3    21     1    1
     4     1     2   ar
     5     2     3   ar
     6     3     4   ar
     7     4     5   ar
     8     5     7    1
     9     7     8   ar
    10     8     9   ar
    11     9    10   ar
    12    10    11   ar
    13    11    12   ar
    14    12    13    1
    15    12    14   ar
    16    14    15   ar
    17    15    16   ar
    18    16    17    1
    19    17    18    1
    20    18    19    1
    21     5     6   ar
    22    21    24    1
    23    24    25    1
    24    24    26    1
    25    24    27    1
    26     6     1   ar
    27    16     7   ar
    28    19    17    1
    29    15     9   ar
    30    22    23    1
@<TRIPOS>MOLECULE
*****
 27 30 0 0 0
SMALL
GASTEIGER

@<TRIPOS>ATOM
      1 C          -9.1818  -16.8954   23.7388 C.ar    1  UNL1        0.0290
      2 C          -9.2046  -16.2410   25.0883 C.ar    1  UNL1        0.0971
      3 N          -7.9218  -15.8054   25.7323 N.ar    1  UNL1       -0.2425
      4 C          -6.6163  -16.0241   25.0267 C.ar    1  UNL1        0.1004
      5 C          -6.5936  -16.6785   23.6772 C.ar    1  UNL1        0.0377
      6 C          -7.8763  -17.1142   23.0333 C.ar    1  UNL1        0.0029
      7 C          -5.2881  -16.8973   22.9716 C.ar    1  UNL1        0.0963
      8 N          -4.1228  -15.9528   22.9603 N.ar    1  UNL1       -0.2268
      9 C          -3.0332  -16.5707   22.1352 C.ar    1  UNL1        0.1476
     10 C          -1.6567  -16.0969   21.7735 C.ar    1  UNL1        0.0397
     11 C          -0.7721  -16.9496   20.9132 C.ar    1  UNL1        0.0343
     12 C          -1.2638  -18.2761   20.4145 C.ar    1  UNL1        0.1577
     13 F          -0.3791  -19.1288   19.5541 F       1  UNL1       -0.2026
     14 C          -2.6403  -18.7499   20.7762 C.ar    1  UNL1        0.1110
     15 N          -3.5249  -17.8972   21.6366 N.ar    1  UNL1       -0.2906
     16 C          -4.9185  -18.0990   22.1535 C.ar    1  UNL1        0.0601
     17 C          -5.7896  -19.2930   21.8973 C.3     1  UNL1        0.0402
     18 C          -6.5673  -20.1535   20.9460 C.3     1  UNL1        0.0063
     19 C          -6.5207  -20.5005   22.4046 C.3     1  UNL1        0.0063
     20 C         -11.7473  -17.7669   22.4509 C.3     1  UNL1        0.0428
     21 C         -10.4646  -17.3311   23.0948 C.3     1  UNL1        0.1959
     22 O         -10.9013  -15.8996   22.9960 O.3     1  UNL1       -0.3751
     23 H         -11.7775  -15.8566   22.5821 H       1  UNL1        0.2110
     24 C         -10.0279  -18.7627   23.1936 C.3     1  UNL1        0.4231
     25 F          -9.5912  -20.1944   23.2925 F       1  UNL1       -0.1673
     26 F         -10.3150  -18.7487   24.6658 F       1  UNL1       -0.1673
     27 F          -9.6437  -19.1228   21.7891 F       1  UNL1       -0.1673
@<TRIPOS>BOND
     1    21    20    1
     2    21    22    1
     3    21     1    1
     4     1     2   ar
     5     2     3   ar
     6     3     4   ar
     7     4     5   ar
     8     5     7    1
     9     7     8   ar
    10     8     9   ar
    11     9    10   ar
    12    10    11   ar
    13    11    12   ar
    14    12    13    1
    15    12    14   ar
    16    14    15   ar
    17    15    16   ar
    18    16    17    1
    19    17    18    1
    20    18    19    1
    21     5     6   ar
    22    21    24    1
    23    24    25    1
    24    24    26    1
    25    24    27    1
    26     6     1   ar
    27    16     7   ar
    28    19    17    1
    29    15     9   ar
    30    22    23    1
