@<TRIPOS>MOLECULE
*****
 40 45 0 0 0
SMALL
GASTEIGER

@<TRIPOS>ATOM
      1 O           6.6448   -5.2911   31.8880 O.2     1  UNL1       -0.2749
      2 C           6.5864   -3.8737   31.4009 C.2     1  UNL1        0.2252
      3 N           6.5842   -3.5861   29.9287 N.am    1  UNL1       -0.2794
      4 C           6.6404   -4.7160   28.9437 C.3     1  UNL1        0.0953
      5 C           6.6383   -4.4285   27.4716 C.3     1  UNL1        0.0442
      6 C           6.5799   -3.0109   26.9843 C.3     1  UNL1        0.0933
      7 C           6.5236   -1.8811   27.9693 C.3     1  UNL1        0.0442
      8 C           6.5258   -2.1687   29.4415 C.3     1  UNL1        0.0953
      9 N           6.5777   -2.7234   25.5121 N.ar    1  UNL1       -0.2817
     10 C           7.6704   -3.0695   24.5446 C.ar    1  UNL1        0.3316
     11 O           8.9571   -3.7640   24.8793 O.2     1  UNL1       -0.2463
     12 N           7.2504   -2.5992   23.1835 N.ar    1  UNL1       -0.2761
     13 C           5.8982   -1.9624   23.3099 C.ar    1  UNL1        0.0798
     14 C           4.9918   -1.3226   22.3005 C.ar    1  UNL1        0.0188
     15 C           3.6696   -0.7596   22.7302 C.ar    1  UNL1        0.0016
     16 C           3.2538   -0.8363   24.1694 C.ar    1  UNL1        0.0016
     17 C           4.1602   -1.4761   25.1788 C.ar    1  UNL1        0.0188
     18 C           5.4824   -2.0391   24.7491 C.ar    1  UNL1        0.0796
     19 C           8.0435   -2.7409   21.9182 C.3     1  UNL1        0.1577
     20 C           8.1145   -4.0678   21.2222 C.3     1  UNL1        0.2299
     21 O           6.8654   -4.7003   20.6841 O.3     1  UNL1       -0.4734
     22 C           5.8638   -3.8678   19.9400 C.ar    1  UNL1        0.1386
     23 C           4.3961   -4.1063   20.1367 C.ar    1  UNL1        0.0369
     24 C           3.3946   -3.2737   19.3925 C.ar    1  UNL1        0.0031
     25 C           3.8608   -2.2025   18.4516 C.ar    1  UNL1        0.0002
     26 C           5.3286   -1.9640   18.2549 C.ar    1  UNL1        0.0031
     27 C           6.3301   -2.7966   18.9991 C.ar    1  UNL1        0.0369
     28 C           6.5301   -2.7438   32.3858 C.3     1  UNL1        0.0795
     29 C           7.7754   -1.9770   32.7194 C.3     1  UNL1        0.0264
     30 C           7.7191   -0.8471   33.7044 C.3     1  UNL1        0.0729
     31 N           6.4176   -0.4840   34.3558 N.3     1  UNL1       -0.2689
     32 C           5.1723   -1.2509   34.0221 C.3     1  UNL1        0.0729
     33 C           5.2286   -2.3808   33.0372 C.3     1  UNL1        0.0264
     34 C           6.3614    0.6459   35.3407 C.3     1  UNL1        0.0992
     35 C           5.0432    1.0797   35.9101 C.ar    1  UNL1       -0.0031
     36 C           4.1573    2.0050   35.1297 C.ar    1  UNL1        0.0178
     37 C           2.8391    2.4389   35.6990 C.ar    1  UNL1        0.0986
     38 N           2.4068    1.9474   37.0486 N.ar    1  UNL1       -0.2423
     39 C           3.2927    1.0221   37.8290 C.ar    1  UNL1        0.0986
     40 C           4.6109    0.5882   37.2597 C.ar    1  UNL1        0.0178
@<TRIPOS>BOND
     1     1     2    2
     2     2    28    1
     3    28    29    1
     4    29    30    1
     5    30    31    1
     6    31    34    1
     7    34    35    1
     8    35    36   ar
     9    36    37   ar
    10    37    38   ar
    11    38    39   ar
    12    39    40   ar
    13    31    32    1
    14    32    33    1
    15     2     3   am
    16     3     4    1
    17     4     5    1
    18     5     6    1
    19     6     9    1
    20     9    10   ar
    21    10    11    2
    22    10    12   ar
    23    12    19    1
    24    19    20    1
    25    20    21    1
    26    21    22    1
    27    22    23   ar
    28    23    24   ar
    29    24    25   ar
    30    25    26   ar
    31    26    27   ar
    32    12    13   ar
    33    13    14   ar
    34    14    15   ar
    35    15    16   ar
    36    16    17   ar
    37    17    18   ar
    38     6     7    1
    39     7     8    1
    40    33    28    1
    41     8     3    1
    42    40    35   ar
    43    18     9   ar
    44    27    22   ar
    45    18    13   ar
@<TRIPOS>MOLECULE
*****
 40 45 0 0 0
SMALL
GASTEIGER

@<TRIPOS>ATOM
      1 O           2.4466    0.4700   30.2022 O.2     1  UNL1       -0.2749
      2 C           3.7465   -0.2352   30.4527 C.2     1  UNL1        0.2252
      3 N           4.4291   -0.9686   29.3363 N.am    1  UNL1       -0.2794
      4 C           3.8117   -0.9967   27.9696 C.3     1  UNL1        0.0953
      5 C           4.4943   -1.7301   26.8532 C.3     1  UNL1        0.0442
      6 C           5.7943   -2.4355   27.1037 C.3     1  UNL1        0.0933
      7 C           6.4116   -2.4073   28.4704 C.3     1  UNL1        0.0442
      8 C           5.7290   -1.6739   29.5867 C.3     1  UNL1        0.0953
      9 N           6.4769   -3.1689   25.9873 N.ar    1  UNL1       -0.2817
     10 C           6.9144   -2.5761   24.6808 C.ar    1  UNL1        0.3316
     11 O           6.7463   -1.1458   24.2611 O.2     1  UNL1       -0.2463
     12 N           7.5497   -3.6647   23.8675 N.ar    1  UNL1       -0.2761
     13 C           7.5047   -4.9303   24.6715 C.ar    1  UNL1        0.0798
     14 C           7.9818   -6.3221   24.3798 C.ar    1  UNL1        0.0188
     15 C           7.7959   -7.4075   25.3983 C.ar    1  UNL1        0.0016
     16 C           7.1328   -7.1010   26.7084 C.ar    1  UNL1        0.0016
     17 C           6.6557   -5.7092   27.0000 C.ar    1  UNL1        0.0188
     18 C           6.8416   -4.6238   25.9816 C.ar    1  UNL1        0.0796
     19 C           8.1284   -3.5142   22.4918 C.3     1  UNL1        0.1577
     20 C           7.2828   -3.8026   21.2868 C.3     1  UNL1        0.2299
     21 O           5.8383   -4.1704   21.4548 O.3     1  UNL1       -0.4734
     22 C           4.7677   -3.1694   21.1359 C.ar    1  UNL1        0.1386
     23 C           4.1851   -2.3209   22.2271 C.ar    1  UNL1        0.0369
     24 C           3.1145   -1.3199   21.9081 C.ar    1  UNL1        0.0031
     25 C           2.6264   -1.1673   20.4979 C.ar    1  UNL1        0.0002
     26 C           3.2089   -2.0158   19.4067 C.ar    1  UNL1        0.0031
     27 C           4.2796   -3.0169   19.7257 C.ar    1  UNL1        0.0369
     28 C           4.3639   -0.2071   31.8195 C.3     1  UNL1        0.0795
     29 C           4.1121   -1.3318   32.7794 C.3     1  UNL1        0.0264
     30 C           4.7294   -1.3037   34.1462 C.3     1  UNL1        0.0729
     31 N           5.5986   -0.1509   34.5530 N.3     1  UNL1       -0.2689
     32 C           5.8504    0.9739   33.5929 C.3     1  UNL1        0.0729
     33 C           5.2330    0.9458   32.2262 C.3     1  UNL1        0.0264
     34 C           6.2160   -0.1228   35.9197 C.3     1  UNL1        0.0992
     35 C           5.5756    0.6764   37.0157 C.ar    1  UNL1       -0.0031
     36 C           4.1087    0.5292   37.2923 C.ar    1  UNL1        0.0178
     37 C           3.4682    1.3283   38.3883 C.ar    1  UNL1        0.0986
     38 N           4.2947    2.2747   39.2077 N.ar    1  UNL1       -0.2423
     39 C           5.7616    2.4219   38.9311 C.ar    1  UNL1        0.0986
     40 C           6.4020    1.6227   37.8351 C.ar    1  UNL1        0.0178
@<TRIPOS>BOND
     1     1     2    2
     2     2    28    1
     3    28    29    1
     4    29    30    1
     5    30    31    1
     6    31    34    1
     7    34    35    1
     8    35    36   ar
     9    36    37   ar
    10    37    38   ar
    11    38    39   ar
    12    39    40   ar
    13    31    32    1
    14    32    33    1
    15     2     3   am
    16     3     4    1
    17     4     5    1
    18     5     6    1
    19     6     9    1
    20     9    10   ar
    21    10    11    2
    22    10    12   ar
    23    12    19    1
    24    19    20    1
    25    20    21    1
    26    21    22    1
    27    22    23   ar
    28    23    24   ar
    29    24    25   ar
    30    25    26   ar
    31    26    27   ar
    32    12    13   ar
    33    13    14   ar
    34    14    15   ar
    35    15    16   ar
    36    16    17   ar
    37    17    18   ar
    38     6     7    1
    39     7     8    1
    40    33    28    1
    41     8     3    1
    42    40    35   ar
    43    18     9   ar
    44    27    22   ar
    45    18    13   ar
@<TRIPOS>MOLECULE
*****
 40 45 0 0 0
SMALL
GASTEIGER

@<TRIPOS>ATOM
      1 O           6.8811   -6.1227   31.2454 O.2     1  UNL1       -0.2749
      2 C           6.9219   -4.7204   30.7147 C.2     1  UNL1        0.2252
      3 N           6.8434   -4.4753   29.2369 N.am    1  UNL1       -0.2794
      4 C           6.7242   -5.6325   28.2900 C.3     1  UNL1        0.0953
      5 C           6.6457   -5.3873   26.8122 C.3     1  UNL1        0.0442
      6 C           6.6865   -3.9849   26.2814 C.3     1  UNL1        0.0933
      7 C           6.8057   -2.8278   27.2283 C.3     1  UNL1        0.0442
      8 C           6.8842   -3.0730   28.7061 C.3     1  UNL1        0.0953
      9 N           6.6080   -3.7398   24.8036 N.ar    1  UNL1       -0.2817
     10 C           5.6842   -2.7777   24.1173 C.ar    1  UNL1        0.3316
     11 O           4.6767   -1.8919   24.7882 O.2     1  UNL1       -0.2463
     12 N           5.9448   -2.8571   22.6423 N.ar    1  UNL1       -0.2761
     13 C           7.0297   -3.8682   22.4169 C.ar    1  UNL1        0.0798
     14 C           7.6972   -4.3626   21.1680 C.ar    1  UNL1        0.0188
     15 C           8.7747   -5.4025   21.2549 C.ar    1  UNL1        0.0016
     16 C           9.1845   -5.9481   22.5907 C.ar    1  UNL1        0.0016
     17 C           8.5170   -5.4537   23.8396 C.ar    1  UNL1        0.0188
     18 C           7.4395   -4.4138   23.7527 C.ar    1  UNL1        0.0796
     19 C           5.2437   -2.0645   21.5791 C.3     1  UNL1        0.1577
     20 C           4.0602   -2.6485   20.8661 C.3     1  UNL1        0.2299
     21 O           3.6539   -2.1138   19.5248 O.3     1  UNL1       -0.4734
     22 C           2.7168   -0.9460   19.4355 C.ar    1  UNL1        0.1386
     23 C           3.0294    0.1981   18.5172 C.ar    1  UNL1        0.0369
     24 C           2.0922    1.3659   18.4280 C.ar    1  UNL1        0.0031
     25 C           0.8424    1.3897   19.2571 C.ar    1  UNL1        0.0002
     26 C           0.5298    0.2456   20.1755 C.ar    1  UNL1        0.0031
     27 C           1.4670   -0.9222   20.2647 C.ar    1  UNL1        0.0369
     28 C           7.0412   -3.5632   31.6616 C.3     1  UNL1        0.0795
     29 C           5.8097   -2.9676   32.2768 C.3     1  UNL1        0.0264
     30 C           5.9289   -1.8104   33.2238 C.3     1  UNL1        0.0729
     31 N           7.2797   -1.2488   33.5554 N.3     1  UNL1       -0.2689
     32 C           8.5113   -1.8445   32.9401 C.3     1  UNL1        0.0729
     33 C           8.3921   -3.0017   31.9932 C.3     1  UNL1        0.0264
     34 C           7.3990   -0.0916   34.5023 C.3     1  UNL1        0.0992
     35 C           6.1704    0.4834   35.1425 C.ar    1  UNL1       -0.0031
     36 C           5.7078   -0.0305   36.4736 C.ar    1  UNL1        0.0178
     37 C           4.4793    0.5445   37.1138 C.ar    1  UNL1        0.0986
     38 N           3.7132    1.6335   36.4229 N.ar    1  UNL1       -0.2423
     39 C           4.1758    2.1474   35.0918 C.ar    1  UNL1        0.0986
     40 C           5.4044    1.5724   34.4516 C.ar    1  UNL1        0.0178
@<TRIPOS>BOND
     1     1     2    2
     2     2    28    1
     3    28    29    1
     4    29    30    1
     5    30    31    1
     6    31    34    1
     7    34    35    1
     8    35    36   ar
     9    36    37   ar
    10    37    38   ar
    11    38    39   ar
    12    39    40   ar
    13    31    32    1
    14    32    33    1
    15     2     3   am
    16     3     4    1
    17     4     5    1
    18     5     6    1
    19     6     9    1
    20     9    10   ar
    21    10    11    2
    22    10    12   ar
    23    12    19    1
    24    19    20    1
    25    20    21    1
    26    21    22    1
    27    22    23   ar
    28    23    24   ar
    29    24    25   ar
    30    25    26   ar
    31    26    27   ar
    32    12    13   ar
    33    13    14   ar
    34    14    15   ar
    35    15    16   ar
    36    16    17   ar
    37    17    18   ar
    38     6     7    1
    39     7     8    1
    40    33    28    1
    41     8     3    1
    42    40    35   ar
    43    18     9   ar
    44    27    22   ar
    45    18    13   ar
@<TRIPOS>MOLECULE
*****
 40 45 0 0 0
SMALL
GASTEIGER

@<TRIPOS>ATOM
      1 O           4.3716   -2.0272   28.1294 O.2     1  UNL1       -0.2749
      2 C           3.7195   -0.8133   27.5368 C.2     1  UNL1        0.2252
      3 N           3.8236   -0.5499   26.0637 N.am    1  UNL1       -0.2794
      4 C           4.5797   -1.5003   25.1834 C.3     1  UNL1        0.0953
      5 C           4.6838   -1.2369   23.7104 C.3     1  UNL1        0.0442
      6 C           4.0317   -0.0230   23.1177 C.3     1  UNL1        0.0933
      7 C           3.2756    0.9273   23.9980 C.3     1  UNL1        0.0442
      8 C           3.1715    0.6639   25.4710 C.3     1  UNL1        0.0953
      9 N           4.1357    0.2404   21.6446 N.ar    1  UNL1       -0.2817
     10 C           5.4067    0.4229   20.8692 C.ar    1  UNL1        0.3316
     11 O           6.7968    0.3741   21.4307 O.2     1  UNL1       -0.2463
     12 N           5.0435    0.6629   19.4338 N.ar    1  UNL1       -0.2761
     13 C           3.5481    0.6287   19.3220 C.ar    1  UNL1        0.0798
     14 C           2.6248    0.8015   18.1526 C.ar    1  UNL1        0.0188
     15 C           1.1404    0.7133   18.3496 C.ar    1  UNL1        0.0016
     16 C           0.5793    0.4522   19.7160 C.ar    1  UNL1        0.0016
     17 C           1.5026    0.2793   20.8854 C.ar    1  UNL1        0.0188
     18 C           2.9870    0.3676   20.6884 C.ar    1  UNL1        0.0796
     19 C           6.0066    0.8961   18.3078 C.3     1  UNL1        0.1577
     20 C           6.1524   -0.1278   17.2212 C.3     1  UNL1        0.2299
     21 O           6.6935   -1.4896   17.5417 O.3     1  UNL1       -0.4734
     22 C           5.9777   -2.3690   18.5237 C.ar    1  UNL1        0.1386
     23 C           6.7210   -2.9526   19.6885 C.ar    1  UNL1        0.0369
     24 C           6.0051   -3.8319   20.6705 C.ar    1  UNL1        0.0031
     25 C           4.5459   -4.1277   20.4876 C.ar    1  UNL1        0.0002
     26 C           3.8026   -3.5441   19.3228 C.ar    1  UNL1        0.0031
     27 C           4.5185   -2.6647   18.3408 C.ar    1  UNL1        0.0369
     28 C           2.9634    0.1371   28.4170 C.3     1  UNL1        0.0795
     29 C           3.6187    1.3984   28.8961 C.3     1  UNL1        0.0264
     30 C           2.8626    2.3488   29.7764 C.3     1  UNL1        0.0729
     31 N           1.4511    2.0379   30.1776 N.3     1  UNL1       -0.2689
     32 C           0.7957    0.7765   29.6986 C.3     1  UNL1        0.0729
     33 C           1.5518   -0.1739   28.8183 C.3     1  UNL1        0.0264
     34 C           0.6949    2.9883   31.0579 C.3     1  UNL1        0.0992
     35 C           1.1168    3.1874   32.4835 C.ar    1  UNL1       -0.0031
     36 C           1.9173    2.1293   33.1834 C.ar    1  UNL1        0.0178
     37 C           2.3392    2.3282   34.6090 C.ar    1  UNL1        0.0986
     38 N           1.9607    3.5853   35.3347 N.ar    1  UNL1       -0.2423
     39 C           1.1603    4.6433   34.6348 C.ar    1  UNL1        0.0986
     40 C           0.7384    4.4444   33.2092 C.ar    1  UNL1        0.0178
@<TRIPOS>BOND
     1     1     2    2
     2     2    28    1
     3    28    29    1
     4    29    30    1
     5    30    31    1
     6    31    34    1
     7    34    35    1
     8    35    36   ar
     9    36    37   ar
    10    37    38   ar
    11    38    39   ar
    12    39    40   ar
    13    31    32    1
    14    32    33    1
    15     2     3   am
    16     3     4    1
    17     4     5    1
    18     5     6    1
    19     6     9    1
    20     9    10   ar
    21    10    11    2
    22    10    12   ar
    23    12    19    1
    24    19    20    1
    25    20    21    1
    26    21    22    1
    27    22    23   ar
    28    23    24   ar
    29    24    25   ar
    30    25    26   ar
    31    26    27   ar
    32    12    13   ar
    33    13    14   ar
    34    14    15   ar
    35    15    16   ar
    36    16    17   ar
    37    17    18   ar
    38     6     7    1
    39     7     8    1
    40    33    28    1
    41     8     3    1
    42    40    35   ar
    43    18     9   ar
    44    27    22   ar
    45    18    13   ar
@<TRIPOS>MOLECULE
*****
 40 45 0 0 0
SMALL
GASTEIGER

@<TRIPOS>ATOM
      1 O           6.4034   -5.1553   32.6845 O.2     1  UNL1       -0.2749
      2 C           6.3385   -3.9568   31.7849 C.2     1  UNL1        0.2252
      3 N           6.5411   -4.1165   30.3072 N.am    1  UNL1       -0.2794
      4 C           6.8085   -5.4746   29.7293 C.3     1  UNL1        0.0953
      5 C           7.0110   -5.6343   28.2516 C.3     1  UNL1        0.0442
      6 C           6.9462   -4.4358   27.3519 C.3     1  UNL1        0.0933
      7 C           6.6787   -3.0777   27.9298 C.3     1  UNL1        0.0442
      8 C           6.4762   -2.9181   29.4075 C.3     1  UNL1        0.0953
      9 N           7.1487   -4.5954   25.8742 N.ar    1  UNL1       -0.2817
     10 C           6.5814   -3.7087   24.8056 C.ar    1  UNL1        0.3316
     11 O           5.7120   -2.5066   25.0271 O.2     1  UNL1       -0.2463
     12 N           7.0362   -4.2351   23.4767 N.ar    1  UNL1       -0.2761
     13 C           7.8846   -5.4472   23.7240 C.ar    1  UNL1        0.0798
     14 C           8.6027   -6.3769   22.7913 C.ar    1  UNL1        0.0188
     15 C           9.3904   -7.5293   23.3404 C.ar    1  UNL1        0.0016
     16 C           9.4599   -7.7520   24.8222 C.ar    1  UNL1        0.0016
     17 C           8.7418   -6.8223   25.7548 C.ar    1  UNL1        0.0188
     18 C           7.9541   -5.6699   25.2057 C.ar    1  UNL1        0.0796
     19 C           6.7015   -3.6519   22.1359 C.3     1  UNL1        0.1577
     20 C           5.3033   -3.7532   21.6018 C.3     1  UNL1        0.2299
     21 O           5.0583   -3.6838   20.1236 O.3     1  UNL1       -0.4734
     22 C           4.3457   -2.5019   19.5362 C.ar    1  UNL1        0.1386
     23 C           3.4030   -1.6981   20.3819 C.ar    1  UNL1        0.0369
     24 C           2.6904   -0.5162   19.7945 C.ar    1  UNL1        0.0031
     25 C           2.9204   -0.1379   18.3613 C.ar    1  UNL1        0.0002
     26 C           3.8631   -0.9417   17.5155 C.ar    1  UNL1        0.0031
     27 C           4.5757   -2.1237   18.1030 C.ar    1  UNL1        0.0369
     28 C           6.0711   -2.5987   32.3629 C.3     1  UNL1        0.0795
     29 C           4.6592   -2.1368   32.5707 C.3     1  UNL1        0.0264
     30 C           4.3918   -0.7787   33.1486 C.3     1  UNL1        0.0729
     31 N           5.5363    0.1175   33.5187 N.3     1  UNL1       -0.2689
     32 C           6.9483   -0.3445   33.3109 C.3     1  UNL1        0.0729
     33 C           7.2157   -1.7026   32.7330 C.3     1  UNL1        0.0264
     34 C           5.2689    1.4756   34.0967 C.3     1  UNL1        0.0992
     35 C           4.4532    1.6108   35.3482 C.ar    1  UNL1       -0.0031
     36 C           4.7074    0.6982   36.5112 C.ar    1  UNL1        0.0178
     37 C           3.8917    0.8334   37.7628 C.ar    1  UNL1        0.0986
     38 N           2.8219    1.8811   37.8513 N.ar    1  UNL1       -0.2423
     39 C           2.5678    2.7937   36.6883 C.ar    1  UNL1        0.0986
     40 C           3.3834    2.6585   35.4367 C.ar    1  UNL1        0.0178
@<TRIPOS>BOND
     1     1     2    2
     2     2    28    1
     3    28    29    1
     4    29    30    1
     5    30    31    1
     6    31    34    1
     7    34    35    1
     8    35    36   ar
     9    36    37   ar
    10    37    38   ar
    11    38    39   ar
    12    39    40   ar
    13    31    32    1
    14    32    33    1
    15     2     3   am
    16     3     4    1
    17     4     5    1
    18     5     6    1
    19     6     9    1
    20     9    10   ar
    21    10    11    2
    22    10    12   ar
    23    12    19    1
    24    19    20    1
    25    20    21    1
    26    21    22    1
    27    22    23   ar
    28    23    24   ar
    29    24    25   ar
    30    25    26   ar
    31    26    27   ar
    32    12    13   ar
    33    13    14   ar
    34    14    15   ar
    35    15    16   ar
    36    16    17   ar
    37    17    18   ar
    38     6     7    1
    39     7     8    1
    40    33    28    1
    41     8     3    1
    42    40    35   ar
    43    18     9   ar
    44    27    22   ar
    45    18    13   ar
@<TRIPOS>MOLECULE
*****
 40 45 0 0 0
SMALL
GASTEIGER

@<TRIPOS>ATOM
      1 O           3.7064   -0.1075   30.6493 O.2     1  UNL1       -0.2749
      2 C           3.3520   -0.1655   29.1929 C.2     1  UNL1        0.2252
      3 N           4.2030   -0.9576   28.2451 N.am    1  UNL1       -0.2794
      4 C           5.4083   -1.6916   28.7536 C.3     1  UNL1        0.0953
      5 C           6.2593   -2.4837   27.8057 C.3     1  UNL1        0.0442
      6 C           5.9050   -2.5417   26.3492 C.3     1  UNL1        0.0933
      7 C           4.6998   -1.8077   25.8408 C.3     1  UNL1        0.0442
      8 C           3.8488   -1.0156   26.7887 C.3     1  UNL1        0.0953
      9 N           6.7560   -3.3338   25.4014 N.ar    1  UNL1       -0.2817
     10 C           7.4428   -2.8021   24.1785 C.ar    1  UNL1        0.3316
     11 O           7.3993   -1.3850   23.6887 O.2     1  UNL1       -0.2463
     12 N           8.1809   -3.9363   23.5314 N.ar    1  UNL1       -0.2761
     13 C           7.9501   -5.1691   24.3543 C.ar    1  UNL1        0.0798
     14 C           8.4281   -6.5825   24.2005 C.ar    1  UNL1        0.0188
     15 C           8.0254   -7.6235   25.2026 C.ar    1  UNL1        0.0016
     16 C           7.1448   -7.2511   26.3583 C.ar    1  UNL1        0.0016
     17 C           6.6668   -5.8377   26.5121 C.ar    1  UNL1        0.0188
     18 C           7.0695   -4.7966   25.5100 C.ar    1  UNL1        0.0796
     19 C           9.0050   -3.8526   22.2808 C.3     1  UNL1        0.1577
     20 C           8.3341   -3.8522   20.9391 C.3     1  UNL1        0.2299
     21 O           7.0797   -4.6470   20.7275 O.3     1  UNL1       -0.4734
     22 C           5.7966   -3.9474   20.3899 C.ar    1  UNL1        0.1386
     23 C           5.3910   -2.7177   21.1472 C.ar    1  UNL1        0.0369
     24 C           4.1079   -2.0181   20.8095 C.ar    1  UNL1        0.0031
     25 C           3.2302   -2.5481   19.7145 C.ar    1  UNL1        0.0002
     26 C           3.6358   -3.7777   18.9573 C.ar    1  UNL1        0.0031
     27 C           4.9190   -4.4774   19.2950 C.ar    1  UNL1        0.0369
     28 C           2.1468    0.5685   28.6844 C.3     1  UNL1        0.0795
     29 C           0.8234   -0.1322   28.5974 C.3     1  UNL1        0.0264
     30 C          -0.3818    0.6018   28.0888 C.3     1  UNL1        0.0729
     31 N          -0.2637    2.0365   27.6673 N.3     1  UNL1       -0.2689
     32 C           1.0598    2.7372   27.7544 C.3     1  UNL1        0.0729
     33 C           2.2651    2.0032   28.2629 C.3     1  UNL1        0.0264
     34 C          -1.4689    2.7705   27.1588 C.3     1  UNL1        0.0992
     35 C          -1.6223    3.0339   25.6902 C.ar    1  UNL1       -0.0031
     36 C          -0.5122    2.6811   24.7450 C.ar    1  UNL1        0.0178
     37 C          -0.6655    2.9445   23.2763 C.ar    1  UNL1        0.0986
     38 N          -1.9288    3.5608   22.7528 N.ar    1  UNL1       -0.2423
     39 C          -3.0389    3.9136   23.6979 C.ar    1  UNL1        0.0986
     40 C          -2.8856    3.6502   25.1666 C.ar    1  UNL1        0.0178
@<TRIPOS>BOND
     1     1     2    2
     2     2    28    1
     3    28    29    1
     4    29    30    1
     5    30    31    1
     6    31    34    1
     7    34    35    1
     8    35    36   ar
     9    36    37   ar
    10    37    38   ar
    11    38    39   ar
    12    39    40   ar
    13    31    32    1
    14    32    33    1
    15     2     3   am
    16     3     4    1
    17     4     5    1
    18     5     6    1
    19     6     9    1
    20     9    10   ar
    21    10    11    2
    22    10    12   ar
    23    12    19    1
    24    19    20    1
    25    20    21    1
    26    21    22    1
    27    22    23   ar
    28    23    24   ar
    29    24    25   ar
    30    25    26   ar
    31    26    27   ar
    32    12    13   ar
    33    13    14   ar
    34    14    15   ar
    35    15    16   ar
    36    16    17   ar
    37    17    18   ar
    38     6     7    1
    39     7     8    1
    40    33    28    1
    41     8     3    1
    42    40    35   ar
    43    18     9   ar
    44    27    22   ar
    45    18    13   ar
@<TRIPOS>MOLECULE
*****
 40 45 0 0 0
SMALL
GASTEIGER

@<TRIPOS>ATOM
      1 O           9.4664   -7.0116   26.6553 O.2     1  UNL1       -0.2749
      2 C           8.6245   -5.7707   26.6900 C.2     1  UNL1        0.2252
      3 N           8.2029   -5.1144   25.4087 N.am    1  UNL1       -0.2794
      4 C           8.6234   -5.6990   24.0929 C.3     1  UNL1        0.0953
      5 C           8.2019   -5.0427   22.8117 C.3     1  UNL1        0.0442
      6 C           7.3598   -3.8018   22.8463 C.3     1  UNL1        0.0933
      7 C           6.9394   -3.2173   24.1621 C.3     1  UNL1        0.0442
      8 C           7.3610   -3.8736   25.4433 C.3     1  UNL1        0.0953
      9 N           6.9383   -3.1455   21.5650 N.ar    1  UNL1       -0.2817
     10 C           7.6362   -2.0030   20.8884 C.ar    1  UNL1        0.3316
     11 O           8.8781   -1.3163   21.3742 O.2     1  UNL1       -0.2463
     12 N           6.8741   -1.6679   19.6407 N.ar    1  UNL1       -0.2761
     13 C           5.7052   -2.6033   19.5461 C.ar    1  UNL1        0.0798
     14 C           4.6098   -2.7414   18.5307 C.ar    1  UNL1        0.0188
     15 C           3.5542   -3.7927   18.7047 C.ar    1  UNL1        0.0016
     16 C           3.5939   -4.7059   19.8940 C.ar    1  UNL1        0.0016
     17 C           4.6892   -4.5677   20.9094 C.ar    1  UNL1        0.0188
     18 C           5.7449   -3.5164   20.7355 C.ar    1  UNL1        0.0796
     19 C           7.2200   -0.5872   18.6596 C.3     1  UNL1        0.1577
     20 C           6.2886    0.5718   18.4611 C.3     1  UNL1        0.2299
     21 O           5.4260    1.0433   19.5941 O.3     1  UNL1       -0.4734
     22 C           4.0068    0.5702   19.7033 C.ar    1  UNL1        0.1386
     23 C           3.5682   -0.2150   20.9037 C.ar    1  UNL1        0.0369
     24 C           2.1489   -0.6880   21.0128 C.ar    1  UNL1        0.0031
     25 C           1.1682   -0.3759   19.9215 C.ar    1  UNL1        0.0002
     26 C           1.6069    0.4093   18.7211 C.ar    1  UNL1        0.0031
     27 C           3.0262    0.8824   18.6120 C.ar    1  UNL1        0.0369
     28 C           8.2040   -5.1861   28.0058 C.3     1  UNL1        0.0795
     29 C           8.9616   -4.0305   28.5894 C.3     1  UNL1        0.0264
     30 C           8.5411   -3.4459   29.9053 C.3     1  UNL1        0.0729
     31 N           7.3631   -4.0170   30.6375 N.3     1  UNL1       -0.2689
     32 C           6.6055   -5.1727   30.0539 C.3     1  UNL1        0.0729
     33 C           7.0259   -5.7572   28.7380 C.3     1  UNL1        0.0264
     34 C           6.9426   -3.4324   31.9534 C.3     1  UNL1        0.0992
     35 C           5.8627   -2.3925   32.0013 C.ar    1  UNL1       -0.0031
     36 C           5.1472   -2.1132   33.2898 C.ar    1  UNL1        0.0178
     37 C           4.0672   -1.0734   33.3378 C.ar    1  UNL1        0.0986
     38 N           3.7027   -0.3128   32.0974 N.ar    1  UNL1       -0.2423
     39 C           4.4182   -0.5921   30.8089 C.ar    1  UNL1        0.0986
     40 C           5.4982   -1.6319   30.7609 C.ar    1  UNL1        0.0178
@<TRIPOS>BOND
     1     1     2    2
     2     2    28    1
     3    28    29    1
     4    29    30    1
     5    30    31    1
     6    31    34    1
     7    34    35    1
     8    35    36   ar
     9    36    37   ar
    10    37    38   ar
    11    38    39   ar
    12    39    40   ar
    13    31    32    1
    14    32    33    1
    15     2     3   am
    16     3     4    1
    17     4     5    1
    18     5     6    1
    19     6     9    1
    20     9    10   ar
    21    10    11    2
    22    10    12   ar
    23    12    19    1
    24    19    20    1
    25    20    21    1
    26    21    22    1
    27    22    23   ar
    28    23    24   ar
    29    24    25   ar
    30    25    26   ar
    31    26    27   ar
    32    12    13   ar
    33    13    14   ar
    34    14    15   ar
    35    15    16   ar
    36    16    17   ar
    37    17    18   ar
    38     6     7    1
    39     7     8    1
    40    33    28    1
    41     8     3    1
    42    40    35   ar
    43    18     9   ar
    44    27    22   ar
    45    18    13   ar
@<TRIPOS>MOLECULE
*****
 40 45 0 0 0
SMALL
GASTEIGER

@<TRIPOS>ATOM
      1 O           9.2159   -3.1212   19.2699 O.2     1  UNL1       -0.2749
      2 C           8.0201   -2.8498   20.1338 C.2     1  UNL1        0.2252
      3 N           8.0280   -3.2614   21.5762 N.am    1  UNL1       -0.2794
      4 C           9.2317   -3.9444   22.1546 C.3     1  UNL1        0.0953
      5 C           9.2397   -4.3560   23.5970 C.3     1  UNL1        0.0442
      6 C           8.0438   -4.0846   24.4610 C.3     1  UNL1        0.0933
      7 C           6.8402   -3.4016   23.8826 C.3     1  UNL1        0.0442
      8 C           6.8323   -2.9900   22.4402 C.3     1  UNL1        0.0953
      9 N           8.0517   -4.4962   25.9034 N.ar    1  UNL1       -0.2817
     10 C           7.8201   -3.5939   27.0791 C.ar    1  UNL1        0.3316
     11 O           7.5398   -2.1215   27.0188 O.2     1  UNL1       -0.2463
     12 N           7.9179   -4.4224   28.3256 N.ar    1  UNL1       -0.2761
     13 C           8.2100   -5.8368   27.9204 C.ar    1  UNL1        0.0798
     14 C           8.4114   -7.0891   28.7212 C.ar    1  UNL1        0.0188
     15 C           8.6954   -8.3869   28.0249 C.ar    1  UNL1        0.0016
     16 C           8.7782   -8.4325   26.5278 C.ar    1  UNL1        0.0016
     17 C           8.5768   -7.1803   25.7271 C.ar    1  UNL1        0.0188
     18 C           8.2927   -5.8824   26.4234 C.ar    1  UNL1        0.0796
     19 C           7.7526   -3.9241   29.7308 C.3     1  UNL1        0.1577
     20 C           6.5376   -4.3053   30.5237 C.3     1  UNL1        0.2299
     21 O           6.5492   -4.1837   32.0187 O.3     1  UNL1       -0.4734
     22 C           6.1116   -2.9057   32.6706 C.ar    1  UNL1        0.1386
     23 C           7.0600   -1.7471   32.7616 C.ar    1  UNL1        0.0369
     24 C           6.6223   -0.4690   33.4135 C.ar    1  UNL1        0.0031
     25 C           5.2362   -0.3495   33.9744 C.ar    1  UNL1        0.0002
     26 C           4.2878   -1.5080   33.8834 C.ar    1  UNL1        0.0031
     27 C           4.7255   -2.7862   33.2314 C.ar    1  UNL1        0.0369
     28 C           6.8164   -2.1668   19.5553 C.3     1  UNL1        0.0795
     29 C           5.7601   -2.9718   18.8582 C.3     1  UNL1        0.0264
     30 C           4.5564   -2.2888   18.2797 C.3     1  UNL1        0.0729
     31 N           4.4090   -0.8008   18.3985 N.3     1  UNL1       -0.2689
     32 C           5.4654    0.0043   19.0957 C.3     1  UNL1        0.0729
     33 C           6.6691   -0.6787   19.6741 C.3     1  UNL1        0.0264
     34 C           3.2053   -0.1178   17.8200 C.3     1  UNL1        0.0992
     35 C           2.0736    0.2927   18.7148 C.ar    1  UNL1       -0.0031
     36 C           1.3492    1.5821   18.4643 C.ar    1  UNL1        0.0178
     37 C           0.2174    1.9926   19.3590 C.ar    1  UNL1        0.0986
     38 N          -0.1900    1.1137   20.5042 N.ar    1  UNL1       -0.2423
     39 C           0.5343   -0.1757   20.7547 C.ar    1  UNL1        0.0986
     40 C           1.6661   -0.5862   19.8600 C.ar    1  UNL1        0.0178
@<TRIPOS>BOND
     1     1     2    2
     2     2    28    1
     3    28    29    1
     4    29    30    1
     5    30    31    1
     6    31    34    1
     7    34    35    1
     8    35    36   ar
     9    36    37   ar
    10    37    38   ar
    11    38    39   ar
    12    39    40   ar
    13    31    32    1
    14    32    33    1
    15     2     3   am
    16     3     4    1
    17     4     5    1
    18     5     6    1
    19     6     9    1
    20     9    10   ar
    21    10    11    2
    22    10    12   ar
    23    12    19    1
    24    19    20    1
    25    20    21    1
    26    21    22    1
    27    22    23   ar
    28    23    24   ar
    29    24    25   ar
    30    25    26   ar
    31    26    27   ar
    32    12    13   ar
    33    13    14   ar
    34    14    15   ar
    35    15    16   ar
    36    16    17   ar
    37    17    18   ar
    38     6     7    1
    39     7     8    1
    40    33    28    1
    41     8     3    1
    42    40    35   ar
    43    18     9   ar
    44    27    22   ar
    45    18    13   ar
@<TRIPOS>MOLECULE
*****
 40 45 0 0 0
SMALL
GASTEIGER

@<TRIPOS>ATOM
      1 O           7.6394   -5.1870   22.3355 O.2     1  UNL1       -0.2749
      2 C           6.7031   -4.0446   22.5962 C.2     1  UNL1        0.2252
      3 N           6.4566   -3.5828   24.0019 N.am    1  UNL1       -0.2794
      4 C           7.1465   -4.2634   25.1468 C.3     1  UNL1        0.0953
      5 C           6.9001   -3.8016   26.5525 C.3     1  UNL1        0.0442
      6 C           5.9637   -2.6591   26.8134 C.3     1  UNL1        0.0933
      7 C           5.2738   -1.9786   25.6685 C.3     1  UNL1        0.0442
      8 C           5.5202   -2.4403   24.2628 C.3     1  UNL1        0.0953
      9 N           5.7172   -2.1973   28.2191 N.ar    1  UNL1       -0.2817
     10 C           5.0268   -0.9281   28.6219 C.ar    1  UNL1        0.3316
     11 O           4.4616    0.1023   27.6897 O.2     1  UNL1       -0.2463
     12 N           5.0008   -0.8701   30.1205 N.ar    1  UNL1       -0.2761
     13 C           5.6752   -2.1035   30.6439 C.ar    1  UNL1        0.0798
     14 C           5.9432   -2.5856   32.0388 C.ar    1  UNL1        0.0188
     15 C           6.6541   -3.8881   32.2584 C.ar    1  UNL1        0.0016
     16 C           7.0968   -4.7084   31.0832 C.ar    1  UNL1        0.0016
     17 C           6.8287   -4.2263   29.6884 C.ar    1  UNL1        0.0188
     18 C           6.1179   -2.9238   29.4687 C.ar    1  UNL1        0.0796
     19 C           4.4051    0.2285   30.9502 C.3     1  UNL1        0.1577
     20 C           2.9525    0.1840   31.3222 C.3     1  UNL1        0.2299
     21 O           1.9657   -0.4864   30.4129 O.3     1  UNL1       -0.4734
     22 C           1.1155    0.3370   29.4914 C.ar    1  UNL1        0.1386
     23 C           1.5764    1.6981   29.0616 C.ar    1  UNL1        0.0369
     24 C           0.7261    2.5215   28.1401 C.ar    1  UNL1        0.0031
     25 C          -0.5851    1.9837   27.6484 C.ar    1  UNL1        0.0002
     26 C          -1.0459    0.6225   28.0783 C.ar    1  UNL1        0.0031
     27 C          -0.1956   -0.2009   28.9998 C.ar    1  UNL1        0.0369
     28 C           6.0131   -3.3639   21.4513 C.3     1  UNL1        0.0795
     29 C           4.6033   -3.7345   21.0980 C.3     1  UNL1        0.0264
     30 C           3.9133   -3.0539   19.9532 C.3     1  UNL1        0.0729
     31 N           4.6333   -2.0026   19.1616 N.3     1  UNL1       -0.2689
     32 C           6.0433   -1.6320   19.5150 C.3     1  UNL1        0.0729
     33 C           6.7332   -2.3127   20.6598 C.3     1  UNL1        0.0264
     34 C           3.9434   -1.3220   18.0167 C.3     1  UNL1        0.0992
     35 C           3.3293    0.0328   18.2096 C.ar    1  UNL1       -0.0031
     36 C           4.2038    1.2497   18.2782 C.ar    1  UNL1        0.0178
     37 C           3.5898    2.6046   18.4710 C.ar    1  UNL1        0.0986
     38 N           2.1013    2.7427   18.5952 N.ar    1  UNL1       -0.2423
     39 C           1.2269    1.5259   18.5266 C.ar    1  UNL1        0.0986
     40 C           1.8409    0.1709   18.3338 C.ar    1  UNL1        0.0178
@<TRIPOS>BOND
     1     1     2    2
     2     2    28    1
     3    28    29    1
     4    29    30    1
     5    30    31    1
     6    31    34    1
     7    34    35    1
     8    35    36   ar
     9    36    37   ar
    10    37    38   ar
    11    38    39   ar
    12    39    40   ar
    13    31    32    1
    14    32    33    1
    15     2     3   am
    16     3     4    1
    17     4     5    1
    18     5     6    1
    19     6     9    1
    20     9    10   ar
    21    10    11    2
    22    10    12   ar
    23    12    19    1
    24    19    20    1
    25    20    21    1
    26    21    22    1
    27    22    23   ar
    28    23    24   ar
    29    24    25   ar
    30    25    26   ar
    31    26    27   ar
    32    12    13   ar
    33    13    14   ar
    34    14    15   ar
    35    15    16   ar
    36    16    17   ar
    37    17    18   ar
    38     6     7    1
    39     7     8    1
    40    33    28    1
    41     8     3    1
    42    40    35   ar
    43    18     9   ar
    44    27    22   ar
    45    18    13   ar
