@<TRIPOS>MOLECULE
*****
 32 35 0 0 0
SMALL
GASTEIGER

@<TRIPOS>ATOM
      1 N          -2.7291    2.4940   20.5086 N.am    1  UNL1       -0.2680
      2 C          -1.3873    3.0817   20.8312 C.2     1  UNL1        0.3077
      3 O          -1.2793    4.5165   21.2551 O.2     1  UNL1       -0.2522
      4 N          -0.1535    2.2347   20.7299 N.am    1  UNL1       -0.2640
      5 C          -0.1055    0.7921   20.3217 C.3     1  UNL1        0.0950
      6 C           1.3265    0.3474   20.3585 C.3     1  UNL1        0.0219
      7 C           2.2413   -0.8191   20.1290 C.3     1  UNL1        0.0061
      8 C           3.6438   -0.3723   20.4181 C.3     1  UNL1        0.0224
      9 C           3.5957    1.0704   20.8263 C.3     1  UNL1        0.0061
     10 C           2.1636    1.5151   20.7895 C.3     1  UNL1        0.0219
     11 C           1.2489    2.6815   21.0190 C.3     1  UNL1        0.0950
     12 H          -2.8000    1.5523   20.2304 H       1  UNL1        0.1564
     13 C          -6.6718    4.3841   23.3163 C.3     1  UNL1        0.0521
     14 C          -5.9343    4.2860   22.0138 C.ar    1  UNL1        0.0606
     15 C          -4.7005    3.4391   21.9124 C.ar    1  UNL1        0.0295
     16 C          -3.9630    3.3410   20.6099 C.ar    1  UNL1        0.0553
     17 C          -4.4593    4.0899   19.4088 C.ar    1  UNL1        0.0466
     18 C          -5.6931    4.9369   19.5102 C.ar    1  UNL1        0.1008
     19 N          -6.4306    5.0349   20.8127 N.ar    1  UNL1       -0.2480
     20 C          -3.7218    3.9919   18.1063 C.2     1  UNL1        0.0756
     21 O          -2.3570    4.5991   17.9696 O.co2   1  UNL1       -0.5445
     22 O          -4.3491    3.2867   16.9405 O.co2   1  UNL1       -0.5445
     23 C           4.8775   -1.2193   20.3168 C.ar    1  UNL1       -0.0186
     24 C           5.5371   -1.7356   21.5611 C.ar    1  UNL1       -0.0043
     25 C           6.7709   -2.5826   21.4599 C.ar    1  UNL1       -0.0003
     26 C           7.3451   -2.9134   20.1142 C.ar    1  UNL1       -0.0001
     27 C           6.6855   -2.3971   18.8698 C.ar    1  UNL1        0.0035
     28 C           5.4518   -1.5501   18.9711 C.ar    1  UNL1        0.0675
     29 C           4.7922   -1.0338   17.7267 C.3     1  UNL1        0.4183
     30 F           4.1326   -0.5175   16.4824 F       1  UNL1       -0.1659
     31 F           3.9384   -2.2657   17.6682 F       1  UNL1       -0.1659
     32 F           5.6460    0.1981   17.7853 F       1  UNL1       -0.1659
@<TRIPOS>UNITY_ATOM_ATTR
21 1
charge -1
@<TRIPOS>BOND
     1    13    14    1
     2    14    15   ar
     3    15    16   ar
     4    16     1    1
     5     1     2   am
     6     2     3    2
     7     2     4   am
     8     4     5    1
     9     6     5    1
    10     6     7    1
    11     7     8    1
    12     8    23    1
    13    23    24   ar
    14    24    25   ar
    15    25    26   ar
    16    26    27   ar
    17    27    28   ar
    18    28    29    1
    19    29    30    1
    20    29    31    1
    21    29    32    1
    22     8     9    1
    23    10     9    1
    24    10    11    1
    25    16    17   ar
    26    17    20    1
    27    20    21   ar
    28    20    22   ar
    29    17    18   ar
    30    18    19   ar
    31    19    14   ar
    32    11     4    1
    33    10     6    1
    34    28    23   ar
    35     1    12    1
@<TRIPOS>MOLECULE
*****
 32 35 0 0 0
SMALL
GASTEIGER

@<TRIPOS>ATOM
      1 N          -2.9360    2.6165   20.8045 N.am    1  UNL1       -0.2680
      2 C          -1.7517    3.3366   20.2312 C.2     1  UNL1        0.3077
      3 O          -1.8913    4.7543   19.7614 O.2     1  UNL1       -0.2522
      4 N          -0.4278    2.6391   20.1277 N.am    1  UNL1       -0.2640
      5 C          -0.1376    1.2306   20.5541 C.3     1  UNL1        0.0950
      6 C           1.3079    0.9487   20.2695 C.3     1  UNL1        0.0219
      7 C           2.3806   -0.0961   20.3571 C.3     1  UNL1        0.0061
      8 C           3.6469    0.4924   19.8091 C.3     1  UNL1        0.0224
      9 C           3.3566    1.9010   19.3827 C.3     1  UNL1        0.0061
     10 C           1.9111    2.1829   19.6672 C.3     1  UNL1        0.0219
     11 C           0.8384    3.2277   19.5796 C.3     1  UNL1        0.0950
     12 H          -2.8444    1.6860   21.1129 H       1  UNL1        0.1564
     13 C          -7.2963    4.3489   18.5715 C.3     1  UNL1        0.0521
     14 C          -6.4402    4.1801   19.7915 C.ar    1  UNL1        0.0606
     15 C          -5.1162    3.4827   19.6880 C.ar    1  UNL1        0.0295
     16 C          -4.2600    3.3140   20.9081 C.ar    1  UNL1        0.0553
     17 C          -4.7277    3.8426   22.2316 C.ar    1  UNL1        0.0466
     18 C          -6.0517    4.5400   22.3350 C.ar    1  UNL1        0.1008
     19 N          -6.9079    4.7088   21.1150 N.ar    1  UNL1       -0.2480
     20 C          -3.8716    3.6738   23.4516 C.2     1  UNL1        0.0756
     21 O          -2.3875    3.8718   23.3597 O.co2   1  UNL1       -0.5445
     22 O          -4.4994    3.3071   24.7636 O.co2   1  UNL1       -0.5445
     23 C           4.9707   -0.2050   19.7055 C.ar    1  UNL1       -0.0186
     24 C           5.9449   -0.1378   20.8441 C.ar    1  UNL1       -0.0043
     25 C           7.2689   -0.8353   20.7406 C.ar    1  UNL1       -0.0003
     26 C           7.6186   -1.6000   19.4985 C.ar    1  UNL1       -0.0001
     27 C           6.6444   -1.6672   18.3598 C.ar    1  UNL1        0.0035
     28 C           5.3205   -0.9698   18.4634 C.ar    1  UNL1        0.0675
     29 C           4.3463   -1.0370   17.3248 C.3     1  UNL1        0.4183
     30 F           3.3721   -1.1042   16.1862 F       1  UNL1       -0.1659
     31 F           5.0013    0.1559   16.6940 F       1  UNL1       -0.1659
     32 F           3.6913   -2.2299   17.9556 F       1  UNL1       -0.1659
@<TRIPOS>UNITY_ATOM_ATTR
21 1
charge -1
@<TRIPOS>BOND
     1    13    14    1
     2    14    15   ar
     3    15    16   ar
     4    16     1    1
     5     1     2   am
     6     2     3    2
     7     2     4   am
     8     4     5    1
     9     6     5    1
    10     6     7    1
    11     7     8    1
    12     8    23    1
    13    23    24   ar
    14    24    25   ar
    15    25    26   ar
    16    26    27   ar
    17    27    28   ar
    18    28    29    1
    19    29    30    1
    20    29    31    1
    21    29    32    1
    22     8     9    1
    23    10     9    1
    24    10    11    1
    25    16    17   ar
    26    17    20    1
    27    20    21   ar
    28    20    22   ar
    29    17    18   ar
    30    18    19   ar
    31    19    14   ar
    32    11     4    1
    33    10     6    1
    34    28    23   ar
    35     1    12    1
@<TRIPOS>MOLECULE
*****
 32 35 0 0 0
SMALL
GASTEIGER

@<TRIPOS>ATOM
      1 N           6.4829   -2.4841   28.0523 N.am    1  UNL1       -0.2680
      2 C           5.2009   -1.9960   27.4454 C.2     1  UNL1        0.3077
      3 O           4.0012   -1.7613   28.3147 O.2     1  UNL1       -0.2522
      4 N           5.1186   -1.7427   25.9693 N.am    1  UNL1       -0.2640
      5 C           6.2294   -1.9314   24.9790 C.3     1  UNL1        0.0950
      6 C           5.7083   -1.5615   23.6220 C.3     1  UNL1        0.0219
      7 C           6.0728   -1.4495   22.1713 C.3     1  UNL1        0.0061
      8 C           4.8653   -0.9629   21.4261 C.3     1  UNL1        0.0224
      9 C           3.7545   -0.7742   22.4164 C.3     1  UNL1        0.0061
     10 C           4.2755   -1.1442   23.7735 C.3     1  UNL1        0.0219
     11 C           3.9110   -1.2562   25.2242 C.3     1  UNL1        0.0950
     12 H           7.2702   -2.6381   27.4818 H       1  UNL1        0.1564
     13 C           6.4930   -0.6963   32.9312 C.3     1  UNL1        0.0521
     14 C           6.5703   -1.8435   31.9679 C.ar    1  UNL1        0.0606
     15 C           6.4879   -1.5902   30.4918 C.ar    1  UNL1        0.0295
     16 C           6.5652   -2.7375   29.5285 C.ar    1  UNL1        0.0553
     17 C           6.7249   -4.1380   30.0413 C.ar    1  UNL1        0.0466
     18 C           6.8072   -4.3913   31.5175 C.ar    1  UNL1        0.1008
     19 N           6.7299   -3.2440   32.4807 N.ar    1  UNL1       -0.2480
     20 C           6.8022   -5.2852   29.0780 C.2     1  UNL1        0.0756
     21 O           5.7862   -5.4140   27.9820 O.co2   1  UNL1       -0.5445
     22 O           7.8954   -6.3036   29.2108 O.co2   1  UNL1       -0.5445
     23 C           4.7830   -0.7096   19.9500 C.ar    1  UNL1       -0.0186
     24 C           5.1065    0.6491   19.4030 C.ar    1  UNL1       -0.0043
     25 C           5.0243    0.9025   17.9268 C.ar    1  UNL1       -0.0003
     26 C           4.6184   -0.2028   16.9977 C.ar    1  UNL1       -0.0001
     27 C           4.2948   -1.5616   17.5447 C.ar    1  UNL1        0.0035
     28 C           4.3771   -1.8150   19.0207 C.ar    1  UNL1        0.0675
     29 C           4.0535   -3.1737   19.5677 C.3     1  UNL1        0.4183
     30 F           3.7299   -4.5324   20.1147 F       1  UNL1       -0.1659
     31 F           2.6194   -2.7660   19.7320 F       1  UNL1       -0.1659
     32 F           5.4877   -3.5813   19.4035 F       1  UNL1       -0.1659
@<TRIPOS>UNITY_ATOM_ATTR
21 1
charge -1
@<TRIPOS>BOND
     1    13    14    1
     2    14    15   ar
     3    15    16   ar
     4    16     1    1
     5     1     2   am
     6     2     3    2
     7     2     4   am
     8     4     5    1
     9     6     5    1
    10     6     7    1
    11     7     8    1
    12     8    23    1
    13    23    24   ar
    14    24    25   ar
    15    25    26   ar
    16    26    27   ar
    17    27    28   ar
    18    28    29    1
    19    29    30    1
    20    29    31    1
    21    29    32    1
    22     8     9    1
    23    10     9    1
    24    10    11    1
    25    16    17   ar
    26    17    20    1
    27    20    21   ar
    28    20    22   ar
    29    17    18   ar
    30    18    19   ar
    31    19    14   ar
    32    11     4    1
    33    10     6    1
    34    28    23   ar
    35     1    12    1
@<TRIPOS>MOLECULE
*****
 32 35 0 0 0
SMALL
GASTEIGER

@<TRIPOS>ATOM
      1 N           4.5919   -0.8862   21.6317 N.am    1  UNL1       -0.2680
      2 C           3.2561   -0.2385   21.8466 C.2     1  UNL1        0.3077
      3 O           2.3162   -0.0567   20.6919 O.2     1  UNL1       -0.2522
      4 N           2.8603    0.2274   23.2164 N.am    1  UNL1       -0.2640
      5 C           3.6905    0.1138   24.4605 C.3     1  UNL1        0.0950
      6 C           2.9080    0.7049   25.5955 C.3     1  UNL1        0.0219
      7 C           2.9375    1.0000   27.0659 C.3     1  UNL1        0.0061
      8 C           1.6418    1.6613   27.4321 C.3     1  UNL1        0.0224
      9 C           0.8116    1.7749   26.1879 C.3     1  UNL1        0.0061
     10 C           1.5941    1.1838   25.0529 C.3     1  UNL1        0.0219
     11 C           1.5646    0.8887   23.5825 C.3     1  UNL1        0.0950
     12 H           5.2088   -1.0055   22.3896 H       1  UNL1        0.1564
     13 C           6.2617    0.1725   16.8264 C.3     1  UNL1        0.0521
     14 C           5.8227   -0.8227   17.8593 C.ar    1  UNL1        0.0606
     15 C           5.4268   -0.3569   19.2290 C.ar    1  UNL1        0.0295
     16 C           4.9878   -1.3521   20.2619 C.ar    1  UNL1        0.0553
     17 C           4.9448   -2.8132   19.9252 C.ar    1  UNL1        0.0466
     18 C           5.3408   -3.2790   18.5554 C.ar    1  UNL1        0.1008
     19 N           5.7797   -2.2838   17.5225 N.ar    1  UNL1       -0.2480
     20 C           4.5059   -3.8084   20.9581 C.2     1  UNL1        0.0756
     21 O           3.7851   -5.0554   20.5394 O.co2   1  UNL1       -0.5445
     22 O           4.7878   -3.5565   22.4096 O.co2   1  UNL1       -0.5445
     23 C           1.2459    2.1272   28.8017 C.ar    1  UNL1       -0.0186
     24 C           1.9087    3.3298   29.4056 C.ar    1  UNL1       -0.0043
     25 C           1.5128    3.7957   30.7754 C.ar    1  UNL1       -0.0003
     26 C           0.4542    3.0591   31.5413 C.ar    1  UNL1       -0.0001
     27 C          -0.2086    1.8565   30.9374 C.ar    1  UNL1        0.0035
     28 C           0.1872    1.3906   29.5677 C.ar    1  UNL1        0.0675
     29 C          -0.4755    0.1880   28.9638 C.3     1  UNL1        0.4183
     30 F          -1.1382   -1.0145   28.3600 F       1  UNL1       -0.1659
     31 F           0.6711   -0.6689   29.4120 F       1  UNL1       -0.1659
     32 F          -1.6221    1.0450   28.5157 F       1  UNL1       -0.1659
@<TRIPOS>UNITY_ATOM_ATTR
21 1
charge -1
@<TRIPOS>BOND
     1    13    14    1
     2    14    15   ar
     3    15    16   ar
     4    16     1    1
     5     1     2   am
     6     2     3    2
     7     2     4   am
     8     4     5    1
     9     6     5    1
    10     6     7    1
    11     7     8    1
    12     8    23    1
    13    23    24   ar
    14    24    25   ar
    15    25    26   ar
    16    26    27   ar
    17    27    28   ar
    18    28    29    1
    19    29    30    1
    20    29    31    1
    21    29    32    1
    22     8     9    1
    23    10     9    1
    24    10    11    1
    25    16    17   ar
    26    17    20    1
    27    20    21   ar
    28    20    22   ar
    29    17    18   ar
    30    18    19   ar
    31    19    14   ar
    32    11     4    1
    33    10     6    1
    34    28    23   ar
    35     1    12    1
@<TRIPOS>MOLECULE
*****
 32 35 0 0 0
SMALL
GASTEIGER

@<TRIPOS>ATOM
      1 N           8.2611   -4.9617   26.4838 N.am    1  UNL1       -0.2680
      2 C           7.0635   -4.0709   26.3352 C.2     1  UNL1        0.3077
      3 O           6.2182   -3.7450   27.5307 O.2     1  UNL1       -0.2522
      4 N           6.7111   -3.5060   24.9910 N.am    1  UNL1       -0.2640
      5 C           7.4582   -3.7422   23.7120 C.3     1  UNL1        0.0950
      6 C           6.7586   -2.9879   22.6205 C.3     1  UNL1        0.0219
      7 C           6.7880   -2.6677   21.1553 C.3     1  UNL1        0.0061
      8 C           5.6266   -1.7673   20.8542 C.3     1  UNL1        0.0224
      9 C           4.8795   -1.5310   22.1334 C.3     1  UNL1        0.0061
     10 C           5.5791   -2.2854   23.2249 C.3     1  UNL1        0.0219
     11 C           5.5498   -2.6056   24.6900 C.3     1  UNL1        0.0950
     12 H           8.8158   -5.1756   25.6992 H       1  UNL1        0.1564
     13 C           9.5360   -4.2498   31.4706 C.3     1  UNL1        0.0521
     14 C           9.2510   -5.1707   30.3213 C.ar    1  UNL1        0.0606
     15 C           8.8985   -4.6058   28.9772 C.ar    1  UNL1        0.0295
     16 C           8.6135   -5.5267   27.8280 C.ar    1  UNL1        0.0553
     17 C           8.6809   -7.0124   28.0228 C.ar    1  UNL1        0.0466
     18 C           9.0333   -7.5773   29.3669 C.ar    1  UNL1        0.1008
     19 N           9.3183   -6.6564   30.5162 N.ar    1  UNL1       -0.2480
     20 C           8.3959   -7.9333   26.8735 C.2     1  UNL1        0.0756
     21 O           8.7844   -7.5363   25.4802 O.co2   1  UNL1       -0.5445
     22 O           7.7224   -9.2511   27.1177 O.co2   1  UNL1       -0.5445
     23 C           5.2743   -1.2024   19.5102 C.ar    1  UNL1       -0.0186
     24 C           5.8464    0.1147   19.0768 C.ar    1  UNL1       -0.0043
     25 C           5.4940    0.6797   17.7326 C.ar    1  UNL1       -0.0003
     26 C           4.5695   -0.0725   16.8219 C.ar    1  UNL1       -0.0001
     27 C           3.9974   -1.3897   17.2553 C.ar    1  UNL1        0.0035
     28 C           4.3497   -1.9546   18.5993 C.ar    1  UNL1        0.0675
     29 C           3.7776   -3.2717   19.0327 C.3     1  UNL1        0.4183
     30 F           3.2055   -4.5888   19.4661 F       1  UNL1       -0.1659
     31 F           2.6389   -2.5579   19.6989 F       1  UNL1       -0.1659
     32 F           4.9163   -3.9855   18.3665 F       1  UNL1       -0.1659
@<TRIPOS>UNITY_ATOM_ATTR
21 1
charge -1
@<TRIPOS>BOND
     1    13    14    1
     2    14    15   ar
     3    15    16   ar
     4    16     1    1
     5     1     2   am
     6     2     3    2
     7     2     4   am
     8     4     5    1
     9     6     5    1
    10     6     7    1
    11     7     8    1
    12     8    23    1
    13    23    24   ar
    14    24    25   ar
    15    25    26   ar
    16    26    27   ar
    17    27    28   ar
    18    28    29    1
    19    29    30    1
    20    29    31    1
    21    29    32    1
    22     8     9    1
    23    10     9    1
    24    10    11    1
    25    16    17   ar
    26    17    20    1
    27    20    21   ar
    28    20    22   ar
    29    17    18   ar
    30    18    19   ar
    31    19    14   ar
    32    11     4    1
    33    10     6    1
    34    28    23   ar
    35     1    12    1
@<TRIPOS>MOLECULE
*****
 32 35 0 0 0
SMALL
GASTEIGER

@<TRIPOS>ATOM
      1 N         -16.3718    1.4792   19.1217 N.am    1  UNL1       -0.2680
      2 C         -14.9387    1.4593   18.6792 C.2     1  UNL1        0.3077
      3 O         -14.2689    2.7306   18.2488 O.2     1  UNL1       -0.2522
      4 N         -14.1753    0.1681   18.6672 N.am    1  UNL1       -0.2640
      5 C         -14.7089   -1.1753   19.0679 C.3     1  UNL1        0.0950
      6 C         -13.6077   -2.1800   18.9006 C.3     1  UNL1        0.0219
      7 C         -13.2569   -3.6312   19.0449 C.3     1  UNL1        0.0061
      8 C         -11.8259   -3.8057   18.6301 C.3     1  UNL1        0.0224
      9 C         -11.2924   -2.4622   18.2294 C.3     1  UNL1        0.0061
     10 C         -12.3936   -1.4575   18.3966 C.3     1  UNL1        0.0219
     11 C         -12.7444   -0.0063   18.2523 C.3     1  UNL1        0.0950
     12 H         -16.8113    0.6449   19.4042 H       1  UNL1        0.1564
     13 C         -18.7147    5.3457   16.5603 C.3     1  UNL1        0.0521
     14 C         -18.3067    4.7036   17.8530 C.ar    1  UNL1        0.0606
     15 C         -17.5432    3.4125   17.8410 C.ar    1  UNL1        0.0295
     16 C         -17.1352    2.7704   19.1338 C.ar    1  UNL1        0.0553
     17 C         -17.4905    3.4194   20.4386 C.ar    1  UNL1        0.0466
     18 C         -18.2539    4.7106   20.4506 C.ar    1  UNL1        0.1008
     19 N         -18.6620    5.3526   19.1578 N.ar    1  UNL1       -0.2480
     20 C         -17.0825    2.7774   21.7313 C.2     1  UNL1        0.0756
     21 O         -16.3462    3.5760   22.7658 O.co2   1  UNL1       -0.5445
     22 O         -17.4108    1.3367   21.9896 O.co2   1  UNL1       -0.5445
     23 C         -11.0626   -5.0968   18.6180 C.ar    1  UNL1       -0.0186
     24 C          -9.7591   -5.2044   19.3523 C.ar    1  UNL1       -0.0043
     25 C          -8.9957   -6.4955   19.3403 C.ar    1  UNL1       -0.0003
     26 C          -9.5359   -7.6792   18.5939 C.ar    1  UNL1       -0.0001
     27 C         -10.8395   -7.5717   17.8596 C.ar    1  UNL1        0.0035
     28 C         -11.6028   -6.2806   17.8716 C.ar    1  UNL1        0.0675
     29 C         -12.9063   -6.1731   17.1373 C.3     1  UNL1        0.4183
     30 F         -14.2098   -6.0656   16.4030 F       1  UNL1       -0.1659
     31 F         -13.6104   -6.8214   18.2922 F       1  UNL1       -0.1659
     32 F         -12.2022   -5.5247   15.9824 F       1  UNL1       -0.1659
@<TRIPOS>UNITY_ATOM_ATTR
21 1
charge -1
@<TRIPOS>BOND
     1    13    14    1
     2    14    15   ar
     3    15    16   ar
     4    16     1    1
     5     1     2   am
     6     2     3    2
     7     2     4   am
     8     4     5    1
     9     6     5    1
    10     6     7    1
    11     7     8    1
    12     8    23    1
    13    23    24   ar
    14    24    25   ar
    15    25    26   ar
    16    26    27   ar
    17    27    28   ar
    18    28    29    1
    19    29    30    1
    20    29    31    1
    21    29    32    1
    22     8     9    1
    23    10     9    1
    24    10    11    1
    25    16    17   ar
    26    17    20    1
    27    20    21   ar
    28    20    22   ar
    29    17    18   ar
    30    18    19   ar
    31    19    14   ar
    32    11     4    1
    33    10     6    1
    34    28    23   ar
    35     1    12    1
@<TRIPOS>MOLECULE
*****
 32 35 0 0 0
SMALL
GASTEIGER

@<TRIPOS>ATOM
      1 N           2.1043    1.4089   27.7965 N.am    1  UNL1       -0.2680
      2 C           3.0330    0.2366   27.6820 C.2     1  UNL1        0.3077
      3 O           3.6782   -0.3320   28.9110 O.2     1  UNL1       -0.2522
      4 N           3.3164   -0.3671   26.3384 N.am    1  UNL1       -0.2640
      5 C           2.7479    0.0912   25.0282 C.3     1  UNL1        0.0950
      6 C           3.2984   -0.7937   23.9493 C.3     1  UNL1        0.0219
      7 C           3.2872   -1.0573   22.4727 C.3     1  UNL1        0.0061
      8 C           4.1890   -2.2254   22.2034 C.3     1  UNL1        0.0224
      9 C           4.7575   -2.6836   23.5138 C.3     1  UNL1        0.0061
     10 C           4.2071   -1.7988   24.5927 C.3     1  UNL1        0.0219
     11 C           4.2183   -1.5352   26.0693 C.3     1  UNL1        0.0950
     12 H           1.6808    1.7821   26.9899 H       1  UNL1        0.1564
     13 C           3.6283    4.2745   31.8544 C.3     1  UNL1        0.0521
     14 C           2.5828    3.4456   31.1690 C.ar    1  UNL1        0.0606
     15 C           2.8662    2.8417   29.8255 C.ar    1  UNL1        0.0295
     16 C           1.8207    2.0128   29.1401 C.ar    1  UNL1        0.0553
     17 C           0.4917    1.7877   29.7981 C.ar    1  UNL1        0.0466
     18 C           0.2083    2.3915   31.1416 C.ar    1  UNL1        0.1008
     19 N           1.2538    3.2204   31.8270 N.ar    1  UNL1       -0.2480
     20 C          -0.5538    0.9587   29.1127 C.2     1  UNL1        0.0756
     21 O          -0.8893    1.2148   27.6733 O.co2   1  UNL1       -0.5445
     22 O          -1.2638   -0.1263   29.8668 O.co2   1  UNL1       -0.5445
     23 C           4.4725   -2.8291   20.8600 C.ar    1  UNL1       -0.0186
     24 C           3.8857   -4.1610   20.4973 C.ar    1  UNL1       -0.0043
     25 C           4.1691   -4.7649   19.1538 C.ar    1  UNL1       -0.0003
     26 C           5.0395   -4.0367   18.1729 C.ar    1  UNL1       -0.0001
     27 C           5.6264   -2.7047   18.5355 C.ar    1  UNL1        0.0035
     28 C           5.3429   -2.1009   19.8790 C.ar    1  UNL1        0.0675
     29 C           5.9297   -0.7690   20.2416 C.3     1  UNL1        0.4183
     30 F           6.5165    0.5630   20.6043 F       1  UNL1       -0.1659
     31 F           4.7591   -0.0800   19.6053 F       1  UNL1       -0.1659
     32 F           7.1004   -1.4580   20.8779 F       1  UNL1       -0.1659
@<TRIPOS>UNITY_ATOM_ATTR
21 1
charge -1
@<TRIPOS>BOND
     1    13    14    1
     2    14    15   ar
     3    15    16   ar
     4    16     1    1
     5     1     2   am
     6     2     3    2
     7     2     4   am
     8     4     5    1
     9     6     5    1
    10     6     7    1
    11     7     8    1
    12     8    23    1
    13    23    24   ar
    14    24    25   ar
    15    25    26   ar
    16    26    27   ar
    17    27    28   ar
    18    28    29    1
    19    29    30    1
    20    29    31    1
    21    29    32    1
    22     8     9    1
    23    10     9    1
    24    10    11    1
    25    16    17   ar
    26    17    20    1
    27    20    21   ar
    28    20    22   ar
    29    17    18   ar
    30    18    19   ar
    31    19    14   ar
    32    11     4    1
    33    10     6    1
    34    28    23   ar
    35     1    12    1
@<TRIPOS>MOLECULE
*****
 32 35 0 0 0
SMALL
GASTEIGER

@<TRIPOS>ATOM
      1 N           5.8085   -2.5880   28.2226 N.am    1  UNL1       -0.2680
      2 C           6.7764   -2.0899   27.1905 C.2     1  UNL1        0.3077
      3 O           8.2053   -1.8306   27.5657 O.2     1  UNL1       -0.2522
      4 N           6.3152   -1.8511   25.7833 N.am    1  UNL1       -0.2640
      5 C           4.9247   -2.0645   25.2630 C.3     1  UNL1        0.0950
      6 C           4.9138   -1.7023   23.8074 C.3     1  UNL1        0.0219
      7 C           4.0476   -1.6103   22.5862 C.3     1  UNL1        0.0061
      8 C           4.8961   -1.1162   21.4522 C.3     1  UNL1        0.0224
      9 C           6.2867   -0.9028   21.9726 C.3     1  UNL1        0.0061
     10 C           6.2976   -1.2650   23.4282 C.3     1  UNL1        0.0219
     11 C           7.1638   -1.3570   24.6493 C.3     1  UNL1        0.0950
     12 H           4.8706   -2.7581   27.9763 H       1  UNL1        0.1564
     13 C           6.6767   -0.8268   33.0335 C.3     1  UNL1        0.0521
     14 C           6.7037   -1.9461   32.0353 C.ar    1  UNL1        0.0606
     15 C           6.2426   -1.7074   30.6280 C.ar    1  UNL1        0.0295
     16 C           6.2696   -2.8268   29.6299 C.ar    1  UNL1        0.0553
     17 C           6.7575   -4.1849   30.0390 C.ar    1  UNL1        0.0466
     18 C           7.2185   -4.4236   31.4463 C.ar    1  UNL1        0.1008
     19 N           7.1916   -3.3043   32.4444 N.ar    1  UNL1       -0.2480
     20 C           6.7844   -5.3043   29.0409 C.2     1  UNL1        0.0756
     21 O           7.8758   -6.3318   29.0956 O.co2   1  UNL1       -0.5445
     22 O           5.7200   -5.3961   27.9880 O.co2   1  UNL1       -0.5445
     23 C           4.4350   -0.8774   20.0450 C.ar    1  UNL1       -0.0186
     24 C           3.8309    0.4427   19.6675 C.ar    1  UNL1       -0.0043
     25 C           3.3698    0.6815   18.2602 C.ar    1  UNL1       -0.0003
     26 C           3.5128   -0.3997   17.2305 C.ar    1  UNL1       -0.0001
     27 C           4.1170   -1.7198   17.6080 C.ar    1  UNL1        0.0035
     28 C           4.5781   -1.9586   19.0152 C.ar    1  UNL1        0.0675
     29 C           5.1822   -3.2787   19.3927 C.3     1  UNL1        0.4183
     30 F           5.7863   -4.5987   19.7702 F       1  UNL1       -0.1659
     31 F           6.5406   -2.7638   19.0190 F       1  UNL1       -0.1659
     32 F           3.8238   -3.7935   19.7663 F       1  UNL1       -0.1659
@<TRIPOS>UNITY_ATOM_ATTR
21 1
charge -1
@<TRIPOS>BOND
     1    13    14    1
     2    14    15   ar
     3    15    16   ar
     4    16     1    1
     5     1     2   am
     6     2     3    2
     7     2     4   am
     8     4     5    1
     9     6     5    1
    10     6     7    1
    11     7     8    1
    12     8    23    1
    13    23    24   ar
    14    24    25   ar
    15    25    26   ar
    16    26    27   ar
    17    27    28   ar
    18    28    29    1
    19    29    30    1
    20    29    31    1
    21    29    32    1
    22     8     9    1
    23    10     9    1
    24    10    11    1
    25    16    17   ar
    26    17    20    1
    27    20    21   ar
    28    20    22   ar
    29    17    18   ar
    30    18    19   ar
    31    19    14   ar
    32    11     4    1
    33    10     6    1
    34    28    23   ar
    35     1    12    1
@<TRIPOS>MOLECULE
*****
 32 35 0 0 0
SMALL
GASTEIGER

@<TRIPOS>ATOM
      1 N         -15.9949    2.3782   18.1169 N.am    1  UNL1       -0.2680
      2 C         -16.1754    1.2692   19.1106 C.2     1  UNL1        0.3077
      3 O         -17.2522    1.3620   20.1508 O.2     1  UNL1       -0.2522
      4 N         -15.2791    0.0673   19.0641 N.am    1  UNL1       -0.2640
      5 C         -14.1651   -0.1645   18.0868 C.3     1  UNL1        0.0950
      6 C         -13.5370   -1.4888   18.4056 C.3     1  UNL1        0.0219
      7 C         -12.4603   -2.4506   17.9985 C.3     1  UNL1        0.0061
      8 C         -12.5207   -3.6318   18.9212 C.3     1  UNL1        0.0224
      9 C         -13.6348   -3.3999   19.8985 C.3     1  UNL1        0.0061
     10 C         -14.2629   -2.0756   19.5798 C.3     1  UNL1        0.0219
     11 C         -15.3396   -1.1138   19.9868 C.3     1  UNL1        0.0950
     12 H         -15.2882    2.3173   17.4342 H       1  UNL1        0.1564
     13 C         -20.4591    4.7144   16.8465 C.3     1  UNL1        0.0521
     14 C         -19.1233    4.7482   17.5281 C.ar    1  UNL1        0.0606
     15 C         -18.2270    3.5463   17.4818 C.ar    1  UNL1        0.0295
     16 C         -16.8912    3.5802   18.1633 C.ar    1  UNL1        0.0553
     17 C         -16.4517    4.8158   18.8912 C.ar    1  UNL1        0.0466
     18 C         -17.3480    6.0177   18.9376 C.ar    1  UNL1        0.1008
     19 N         -18.6837    5.9839   18.2560 N.ar    1  UNL1       -0.2480
     20 C         -15.1159    4.8497   19.5728 C.2     1  UNL1        0.0756
     21 O         -14.0188    5.7170   19.0303 O.co2   1  UNL1       -0.5445
     22 O         -14.8771    4.0162   20.7968 O.co2   1  UNL1       -0.5445
     23 C         -11.6245   -4.8336   18.8748 C.ar    1  UNL1       -0.0186
     24 C         -10.1648   -4.6934   19.1906 C.ar    1  UNL1       -0.0043
     25 C          -9.2685   -5.8952   19.1442 C.ar    1  UNL1       -0.0003
     26 C          -9.8319   -7.2374   18.7819 C.ar    1  UNL1       -0.0001
     27 C         -11.2916   -7.3776   18.4660 C.ar    1  UNL1        0.0035
     28 C         -12.1878   -6.1758   18.5124 C.ar    1  UNL1        0.0675
     29 C         -13.6474   -6.3160   18.1965 C.3     1  UNL1        0.4183
     30 F         -15.1071   -6.4562   17.8807 F       1  UNL1       -0.1659
     31 F         -13.9268   -6.6441   19.6333 F       1  UNL1       -0.1659
     32 F         -13.3680   -5.9879   16.7598 F       1  UNL1       -0.1659
@<TRIPOS>UNITY_ATOM_ATTR
21 1
charge -1
@<TRIPOS>BOND
     1    13    14    1
     2    14    15   ar
     3    15    16   ar
     4    16     1    1
     5     1     2   am
     6     2     3    2
     7     2     4   am
     8     4     5    1
     9     6     5    1
    10     6     7    1
    11     7     8    1
    12     8    23    1
    13    23    24   ar
    14    24    25   ar
    15    25    26   ar
    16    26    27   ar
    17    27    28   ar
    18    28    29    1
    19    29    30    1
    20    29    31    1
    21    29    32    1
    22     8     9    1
    23    10     9    1
    24    10    11    1
    25    16    17   ar
    26    17    20    1
    27    20    21   ar
    28    20    22   ar
    29    17    18   ar
    30    18    19   ar
    31    19    14   ar
    32    11     4    1
    33    10     6    1
    34    28    23   ar
    35     1    12    1
