@<TRIPOS>MOLECULE
*****
 35 38 0 0 0
SMALL
GASTEIGER

@<TRIPOS>ATOM
      1 C          -8.7606  -19.4075   23.0963 C.2     1  UNL1        0.2661
      2 O          -9.4346  -20.7438   23.1947 O.2     1  UNL1       -0.2710
      3 N          -9.3986  -18.1983   23.7135 N.am    1  UNL1       -0.2714
      4 C         -10.7107  -18.3256   24.4293 C.3     1  UNL1        0.1153
      5 C          -2.3534  -18.2241   20.9059 C.ar    1  UNL1        0.1218
      6 C          -2.5065  -17.6775   22.2943 C.ar    1  UNL1        0.0230
      7 C          -3.8186  -17.8048   23.0101 C.ar    1  UNL1        0.0380
      8 C          -4.9775  -18.4788   22.3374 C.ar    1  UNL1        0.1351
      9 C          -4.8244  -19.0255   20.9490 C.ar    1  UNL1        0.0133
     10 C          -3.5124  -18.8981   20.2333 C.ar    1  UNL1        0.0186
     11 C          -5.9834  -19.6995   20.2763 C.3     1  UNL1        0.0337
     12 C          -7.2955  -19.8268   20.9920 C.3     1  UNL1        0.0579
     13 C          -7.4485  -19.2801   22.3805 C.3     1  UNL1        0.2415
     14 O          -6.2896  -18.6061   23.0532 O.3     1  UNL1       -0.4703
     15 S          -1.0414  -18.0968   20.1902 S.O2    1  UNL1        0.0603
     16 O          -0.9526  -19.5906   20.0871 O.2     1  UNL1       -0.1530
     17 O          -1.1301  -16.6030   20.2933 O.2     1  UNL1       -0.1530
     18 C           1.4529  -17.3699   20.1764 C.3     1  UNL1        0.1102
     19 N           0.2707  -17.9695   19.4745 N.3     1  UNL1       -0.1779
     20 H           0.5433  -18.9102   19.1898 H       1  UNL1        0.1488
     21 C          -8.7246  -16.8619   23.6151 C.3     1  UNL1        0.1139
     22 C          -8.0211  -16.2870   24.8086 C.ar    1  UNL1       -0.0029
     23 C          -8.6854  -16.3089   26.1533 C.ar    1  UNL1       -0.0026
     24 C          -7.9818  -15.7339   27.3468 C.ar    1  UNL1       -0.0003
     25 C          -6.6140  -15.1371   27.1956 C.ar    1  UNL1       -0.0000
     26 C          -5.9498  -15.1152   25.8509 C.ar    1  UNL1       -0.0003
     27 C          -6.6533  -15.6901   24.6574 C.ar    1  UNL1       -0.0026
     28 C          -8.7541  -16.1005   22.3231 C.3     1  UNL1        0.0968
     29 N          -9.8409  -16.3623   21.3228 N.3     1  UNL1       -0.2689
     30 C         -10.2636  -17.7078   20.8120 C.3     1  UNL1        0.0748
     31 C         -11.3797  -17.5016   19.8313 C.3     1  UNL1        0.0480
     32 C         -11.6468  -16.0286   19.7359 C.3     1  UNL1        0.1278
     33 O         -12.6829  -15.3746   18.8707 O.3     1  UNL1       -0.3830
     34 C         -10.6957  -15.3244   20.6578 C.3     1  UNL1        0.1017
     35 H         -12.6485  -14.4133   18.9956 H       1  UNL1        0.2104
@<TRIPOS>BOND
     1    18    19    1
     2    19    15    1
     3    15    16    2
     4    15    17    2
     5    15     5    1
     6     5     6   ar
     7     6     7   ar
     8     7     8   ar
     9     8     9   ar
    10     9    10   ar
    11     9    11    1
    12    11    12    1
    13    12    13    1
    14    13     1    1
    15     1     2    2
    16     1     3   am
    17     3     4    1
    18     3    21    1
    19    21    28    1
    20    28    29    1
    21    29    30    1
    22    30    31    1
    23    31    32    1
    24    32    33    1
    25    32    34    1
    26    21    22    1
    27    22    23   ar
    28    23    24   ar
    29    24    25   ar
    30    25    26   ar
    31    26    27   ar
    32    13    14    1
    33    10     5   ar
    34    34    29    1
    35    27    22   ar
    36    14     8    1
    37    19    20    1
    38    33    35    1
@<TRIPOS>MOLECULE
*****
 35 38 0 0 0
SMALL
GASTEIGER

@<TRIPOS>ATOM
      1 C          -9.7576  -19.5511   23.3204 C.2     1  UNL1        0.2661
      2 O         -10.1284  -20.9403   23.7477 O.2     1  UNL1       -0.2710
      3 N         -10.6019  -18.3857   23.7436 N.am    1  UNL1       -0.2714
      4 C         -11.8170  -18.6096   24.5941 C.3     1  UNL1        0.1153
      5 C          -3.5707  -18.3813   20.5629 C.ar    1  UNL1        0.1218
      6 C          -3.4595  -18.3307   22.0578 C.ar    1  UNL1        0.0230
      7 C          -4.6746  -18.5545   22.9083 C.ar    1  UNL1        0.0380
      8 C          -6.0009  -18.8290   22.2639 C.ar    1  UNL1        0.1351
      9 C          -6.1122  -18.8796   20.7689 C.ar    1  UNL1        0.0133
     10 C          -4.8970  -18.6558   19.9184 C.ar    1  UNL1        0.0186
     11 C          -7.4386  -19.1541   20.1243 C.3     1  UNL1        0.0337
     12 C          -8.6537  -19.3779   20.9748 C.3     1  UNL1        0.0579
     13 C          -8.5424  -19.3273   22.4699 C.3     1  UNL1        0.2415
     14 O          -7.2161  -19.0528   23.1144 O.3     1  UNL1       -0.4703
     15 S          -2.3556  -18.1575   19.7124 S.O2    1  UNL1        0.0603
     16 O          -1.5645  -19.0694   20.6026 O.2     1  UNL1       -0.1530
     17 O          -3.1467  -17.2455   18.8221 O.2     1  UNL1       -0.1530
     18 C           0.2130  -17.8301   19.5001 C.3     1  UNL1        0.1102
     19 N          -1.1404  -17.9336   18.8619 N.3     1  UNL1       -0.1779
     20 H          -1.0961  -18.7099   18.2016 H       1  UNL1        0.1488
     21 C         -10.2310  -16.9965   23.3163 C.3     1  UNL1        0.1139
     22 C         -10.5015  -16.5467   21.9111 C.ar    1  UNL1       -0.0029
     23 C          -9.7879  -15.3496   21.3564 C.ar    1  UNL1       -0.0026
     24 C         -10.0584  -14.8998   19.9512 C.ar    1  UNL1       -0.0003
     25 C         -11.0425  -15.6471   19.1009 C.ar    1  UNL1       -0.0000
     26 C         -11.7561  -16.8441   19.6556 C.ar    1  UNL1       -0.0003
     27 C         -11.4856  -17.2939   21.0607 C.ar    1  UNL1       -0.0026
     28 C          -9.5896  -16.0572   24.2942 C.3     1  UNL1        0.0968
     29 N          -8.1038  -15.8519   24.2730 N.3     1  UNL1       -0.2689
     30 C          -7.1355  -16.3089   25.3234 C.3     1  UNL1        0.0748
     31 C          -5.7588  -15.8930   24.8972 C.3     1  UNL1        0.0480
     32 C          -5.8763  -15.1789   23.5833 C.3     1  UNL1        0.1278
     33 O          -4.7433  -14.5931   22.7938 O.3     1  UNL1       -0.3830
     34 C          -7.3257  -15.1535   23.1975 C.3     1  UNL1        0.1017
     35 H          -5.0895  -14.1882   21.9832 H       1  UNL1        0.2104
@<TRIPOS>BOND
     1    18    19    1
     2    19    15    1
     3    15    16    2
     4    15    17    2
     5    15     5    1
     6     5     6   ar
     7     6     7   ar
     8     7     8   ar
     9     8     9   ar
    10     9    10   ar
    11     9    11    1
    12    11    12    1
    13    12    13    1
    14    13     1    1
    15     1     2    2
    16     1     3   am
    17     3     4    1
    18     3    21    1
    19    21    28    1
    20    28    29    1
    21    29    30    1
    22    30    31    1
    23    31    32    1
    24    32    33    1
    25    32    34    1
    26    21    22    1
    27    22    23   ar
    28    23    24   ar
    29    24    25   ar
    30    25    26   ar
    31    26    27   ar
    32    13    14    1
    33    10     5   ar
    34    34    29    1
    35    27    22   ar
    36    14     8    1
    37    19    20    1
    38    33    35    1
@<TRIPOS>MOLECULE
*****
 35 38 0 0 0
SMALL
GASTEIGER

@<TRIPOS>ATOM
      1 C           8.1546   -1.4377   19.7683 C.2     1  UNL1        0.2661
      2 O           9.5359   -1.2294   19.2219 O.2     1  UNL1       -0.2710
      3 N           6.9802   -0.7759   19.1104 N.am    1  UNL1       -0.2714
      4 C           7.1871    0.0942   17.9062 C.3     1  UNL1        0.1153
      5 C           6.9946   -4.2980   25.9102 C.ar    1  UNL1        0.1218
      6 C           6.8693   -2.8082   26.0308 C.ar    1  UNL1        0.0230
      7 C           7.0762   -1.9381   24.8266 C.ar    1  UNL1        0.0380
      8 C           7.4085   -2.5579   23.5017 C.ar    1  UNL1        0.1351
      9 C           7.5338   -4.0478   23.3810 C.ar    1  UNL1        0.0133
     10 C           7.3269   -4.9178   24.5853 C.ar    1  UNL1        0.0186
     11 C           7.8661   -4.6677   22.0561 C.3     1  UNL1        0.0337
     12 C           8.0731   -3.7976   20.8518 C.3     1  UNL1        0.0579
     13 C           7.9477   -2.3077   20.9725 C.3     1  UNL1        0.2415
     14 O           7.6154   -1.6879   22.2974 O.3     1  UNL1       -0.4703
     15 S           6.7877   -5.1680   27.1144 S.O2    1  UNL1        0.0603
     16 O           6.5226   -3.9500   27.9488 O.2     1  UNL1       -0.1530
     17 O           7.0528   -6.3860   26.2800 O.2     1  UNL1       -0.1530
     18 C           6.7772   -5.4736   29.6944 C.3     1  UNL1        0.1102
     19 N           6.5808   -6.0381   28.3187 N.3     1  UNL1       -0.1779
     20 H           5.6203   -6.3785   28.2745 H       1  UNL1        0.1488
     21 C           5.5989   -0.9841   19.6568 C.3     1  UNL1        0.1139
     22 C           5.0258   -2.3679   19.7398 C.ar    1  UNL1       -0.0029
     23 C           4.4484   -2.8643   21.0321 C.ar    1  UNL1       -0.0026
     24 C           3.8754   -4.2480   21.1151 C.ar    1  UNL1       -0.0003
     25 C           3.8799   -5.1354   19.9057 C.ar    1  UNL1       -0.0000
     26 C           4.4574   -4.6390   18.6134 C.ar    1  UNL1       -0.0003
     27 C           5.0303   -3.2553   18.5304 C.ar    1  UNL1       -0.0026
     28 C           4.7905    0.1914   20.1202 C.3     1  UNL1        0.0968
     29 N           3.3386    0.2930   19.7572 N.3     1  UNL1       -0.2689
     30 C           2.7896    0.6038   18.3963 C.3     1  UNL1        0.0748
     31 C           1.2925    0.6046   18.4895 C.3     1  UNL1        0.0480
     32 C           0.9162    0.2944   19.9080 C.3     1  UNL1        0.1278
     33 O          -0.4796    0.1943   20.4482 O.3     1  UNL1       -0.3830
     34 C           2.1808    0.1018   20.6916 C.3     1  UNL1        0.1017
     35 H          -0.4458   -0.0168   21.3943 H       1  UNL1        0.2104
@<TRIPOS>BOND
     1    18    19    1
     2    19    15    1
     3    15    16    2
     4    15    17    2
     5    15     5    1
     6     5     6   ar
     7     6     7   ar
     8     7     8   ar
     9     8     9   ar
    10     9    10   ar
    11     9    11    1
    12    11    12    1
    13    12    13    1
    14    13     1    1
    15     1     2    2
    16     1     3   am
    17     3     4    1
    18     3    21    1
    19    21    28    1
    20    28    29    1
    21    29    30    1
    22    30    31    1
    23    31    32    1
    24    32    33    1
    25    32    34    1
    26    21    22    1
    27    22    23   ar
    28    23    24   ar
    29    24    25   ar
    30    25    26   ar
    31    26    27   ar
    32    13    14    1
    33    10     5   ar
    34    34    29    1
    35    27    22   ar
    36    14     8    1
    37    19    20    1
    38    33    35    1
@<TRIPOS>MOLECULE
*****
 35 38 0 0 0
SMALL
GASTEIGER

@<TRIPOS>ATOM
      1 C           7.8606   -0.6047   21.3022 C.2     1  UNL1        0.2661
      2 O           9.1576    0.1104   21.0647 O.2     1  UNL1       -0.2710
      3 N           6.5720    0.0037   20.8338 N.am    1  UNL1       -0.2714
      4 C           6.5804    1.3271   20.1278 C.3     1  UNL1        0.1153
      5 C           7.3802   -5.9831   25.5556 C.ar    1  UNL1        0.1218
      6 C           6.9418   -4.7444   26.2790 C.ar    1  UNL1        0.0230
      7 C           6.9502   -3.4210   25.5730 C.ar    1  UNL1        0.0380
      8 C           7.3970   -3.3363   24.1436 C.ar    1  UNL1        0.1351
      9 C           7.8354   -4.5750   23.4203 C.ar    1  UNL1        0.0133
     10 C           7.8269   -5.8984   24.1263 C.ar    1  UNL1        0.0186
     11 C           8.2822   -4.4904   21.9908 C.3     1  UNL1        0.0337
     12 C           8.2906   -3.1669   21.2848 C.3     1  UNL1        0.0579
     13 C           7.8522   -1.9281   22.0082 C.3     1  UNL1        0.2415
     14 O           7.4054   -2.0128   23.4376 O.3     1  UNL1       -0.4703
     15 S           7.3717   -7.3066   26.2617 S.O2    1  UNL1        0.0603
     16 O           6.9766   -6.6235   27.5373 O.2     1  UNL1       -0.1530
     17 O           7.7669   -7.9896   24.9860 O.2     1  UNL1       -0.1530
     18 C           8.6251   -9.1612   27.5805 C.3     1  UNL1        0.1102
     19 N           7.3633   -8.6300   26.9677 N.3     1  UNL1       -0.1779
     20 H           6.6782   -8.5581   27.7199 H       1  UNL1        0.1488
     21 C           5.2750   -0.7114   21.0713 C.3     1  UNL1        0.1139
     22 C           5.0000   -2.0149   20.3819 C.ar    1  UNL1       -0.0029
     23 C           4.3929   -3.1541   21.1459 C.ar    1  UNL1       -0.0026
     24 C           4.1179   -4.4575   20.4565 C.ar    1  UNL1       -0.0003
     25 C           4.4500   -4.6218   19.0029 C.ar    1  UNL1       -0.0000
     26 C           5.0571   -3.4827   18.2389 C.ar    1  UNL1       -0.0003
     27 C           5.3321   -2.1793   18.9283 C.ar    1  UNL1       -0.0026
     28 C           4.2530   -0.1231   21.9983 C.3     1  UNL1        0.0968
     29 N           4.3671   -0.3436   23.4777 N.3     1  UNL1       -0.2689
     30 C           5.2901    0.3849   24.4091 C.3     1  UNL1        0.0748
     31 C           5.0717   -0.1526   25.7923 C.3     1  UNL1        0.0480
     32 C           4.0137   -1.2132   25.7159 C.3     1  UNL1        0.1278
     33 O           3.4841   -2.0150   26.8677 O.3     1  UNL1       -0.3830
     34 C           3.5782   -1.3312   24.2852 C.3     1  UNL1        0.1017
     35 H           2.8073   -2.6319   26.5481 H       1  UNL1        0.2104
@<TRIPOS>BOND
     1    18    19    1
     2    19    15    1
     3    15    16    2
     4    15    17    2
     5    15     5    1
     6     5     6   ar
     7     6     7   ar
     8     7     8   ar
     9     8     9   ar
    10     9    10   ar
    11     9    11    1
    12    11    12    1
    13    12    13    1
    14    13     1    1
    15     1     2    2
    16     1     3   am
    17     3     4    1
    18     3    21    1
    19    21    28    1
    20    28    29    1
    21    29    30    1
    22    30    31    1
    23    31    32    1
    24    32    33    1
    25    32    34    1
    26    21    22    1
    27    22    23   ar
    28    23    24   ar
    29    24    25   ar
    30    25    26   ar
    31    26    27   ar
    32    13    14    1
    33    10     5   ar
    34    34    29    1
    35    27    22   ar
    36    14     8    1
    37    19    20    1
    38    33    35    1
@<TRIPOS>MOLECULE
*****
 35 38 0 0 0
SMALL
GASTEIGER

@<TRIPOS>ATOM
      1 C          -2.0819    3.2796   21.0182 C.2     1  UNL1        0.2661
      2 O          -3.5094    2.8977   20.7609 O.2     1  UNL1       -0.2710
      3 N          -1.7625    4.3773   21.9895 N.am    1  UNL1       -0.2714
      4 C          -2.8707    5.0929   22.7034 C.3     1  UNL1        0.1153
      5 C           3.0473   -0.7357   18.8232 C.ar    1  UNL1        0.1218
      6 C           2.6354   -1.1728   20.1976 C.ar    1  UNL1        0.0230
      7 C           1.5271   -0.4571   20.9116 C.ar    1  UNL1        0.0380
      8 C           0.8309    0.6956   20.2510 C.ar    1  UNL1        0.1351
      9 C           1.2428    1.1326   18.8765 C.ar    1  UNL1        0.0133
     10 C           2.3510    0.4170   18.1626 C.ar    1  UNL1        0.0186
     11 C           0.5465    2.2854   18.2158 C.3     1  UNL1        0.0337
     12 C          -0.5617    3.0010   18.9297 C.3     1  UNL1        0.0579
     13 C          -0.9737    2.5640   20.3043 C.3     1  UNL1        0.2415
     14 O          -0.2774    1.4113   20.9649 O.3     1  UNL1       -0.4703
     15 S           4.1555   -1.4514   18.1092 S.O2    1  UNL1        0.0603
     16 O           3.6902   -0.8721   16.8062 O.2     1  UNL1       -0.1530
     17 O           4.6209   -2.0307   19.4123 O.2     1  UNL1       -0.1530
     18 C           6.6018   -2.3246   18.0546 C.3     1  UNL1        0.1102
     19 N           5.2637   -2.1671   17.3953 N.3     1  UNL1       -0.1779
     20 H           4.9238   -3.1068   17.1909 H       1  UNL1        0.1488
     21 C          -0.3350    4.7592   22.2468 C.3     1  UNL1        0.1139
     22 C           0.4945    5.3475   21.1440 C.ar    1  UNL1       -0.0029
     23 C          -0.0622    6.4503   20.2934 C.ar    1  UNL1       -0.0026
     24 C           0.7672    7.0385   19.1907 C.ar    1  UNL1       -0.0003
     25 C           2.1534    6.5239   18.9386 C.ar    1  UNL1       -0.0000
     26 C           2.7102    5.4210   19.7893 C.ar    1  UNL1       -0.0003
     27 C           1.8807    4.8328   20.8919 C.ar    1  UNL1       -0.0026
     28 C           0.2632    4.5529   23.6068 C.3     1  UNL1        0.0968
     29 N           0.4333    3.1645   24.1485 N.3     1  UNL1       -0.2689
     30 C          -0.4933    2.4704   25.1022 C.3     1  UNL1        0.0748
     31 C           0.0607    1.1034   25.3748 C.3     1  UNL1        0.0480
     32 C           1.3298    0.9525   24.5895 C.3     1  UNL1        0.1278
     33 O           2.2135   -0.2593   24.5661 O.3     1  UNL1       -0.3830
     34 C           1.5601    2.2264   23.8316 C.3     1  UNL1        0.1017
     35 H           2.9689   -0.0974   23.9797 H       1  UNL1        0.2104
@<TRIPOS>BOND
     1    18    19    1
     2    19    15    1
     3    15    16    2
     4    15    17    2
     5    15     5    1
     6     5     6   ar
     7     6     7   ar
     8     7     8   ar
     9     8     9   ar
    10     9    10   ar
    11     9    11    1
    12    11    12    1
    13    12    13    1
    14    13     1    1
    15     1     2    2
    16     1     3   am
    17     3     4    1
    18     3    21    1
    19    21    28    1
    20    28    29    1
    21    29    30    1
    22    30    31    1
    23    31    32    1
    24    32    33    1
    25    32    34    1
    26    21    22    1
    27    22    23   ar
    28    23    24   ar
    29    24    25   ar
    30    25    26   ar
    31    26    27   ar
    32    13    14    1
    33    10     5   ar
    34    34    29    1
    35    27    22   ar
    36    14     8    1
    37    19    20    1
    38    33    35    1
@<TRIPOS>MOLECULE
*****
 35 38 0 0 0
SMALL
GASTEIGER

@<TRIPOS>ATOM
      1 C          -2.3993    3.2915   20.7585 C.2     1  UNL1        0.2661
      2 O          -3.7226    3.2146   20.0565 O.2     1  UNL1       -0.2710
      3 N          -2.2958    3.9719   22.0914 N.am    1  UNL1       -0.2714
      4 C          -3.5157    4.5754   22.7221 C.3     1  UNL1        0.1153
      5 C           2.9932   -0.4486   18.7136 C.ar    1  UNL1        0.1218
      6 C           2.2866   -1.1711   19.8220 C.ar    1  UNL1        0.0230
      7 C           1.0667   -0.5676   20.4527 C.ar    1  UNL1        0.0380
      8 C           0.5536    0.7584   19.9749 C.ar    1  UNL1        0.1351
      9 C           1.2602    1.4809   18.8665 C.ar    1  UNL1        0.0133
     10 C           2.4800    0.8774   18.2359 C.ar    1  UNL1        0.0186
     11 C           0.7470    2.8070   18.3887 C.3     1  UNL1        0.0337
     12 C          -0.4728    3.4105   19.0194 C.3     1  UNL1        0.0579
     13 C          -1.1795    2.6880   20.1279 C.3     1  UNL1        0.2415
     14 O          -0.6663    1.3619   20.6056 O.3     1  UNL1       -0.4703
     15 S           4.2131   -1.0522   18.0829 S.O2    1  UNL1        0.0603
     16 O           4.7998   -1.2876   19.4432 O.2     1  UNL1       -0.1530
     17 O           3.6263   -0.8167   16.7227 O.2     1  UNL1       -0.1530
     18 C           6.4566   -2.3431   18.3063 C.3     1  UNL1        0.1102
     19 N           5.4329   -1.6557   17.4522 N.3     1  UNL1       -0.1779
     20 H           5.1043   -2.3440   16.7750 H       1  UNL1        0.1488
     21 C          -0.9725    4.0488   22.7935 C.3     1  UNL1        0.1139
     22 C          -0.6650    3.1065   23.9194 C.ar    1  UNL1       -0.0029
     23 C          -1.2875    3.3198   25.2672 C.ar    1  UNL1       -0.0026
     24 C          -0.9799    2.3775   26.3930 C.ar    1  UNL1       -0.0003
     25 C          -0.0498    1.2219   26.1709 C.ar    1  UNL1       -0.0000
     26 C           0.5728    1.0085   24.8230 C.ar    1  UNL1       -0.0003
     27 C           0.2652    1.9508   23.6972 C.ar    1  UNL1       -0.0026
     28 C           0.0432    5.0679   22.3698 C.3     1  UNL1        0.0968
     29 N           1.5068    4.7539   22.4679 N.3     1  UNL1       -0.2689
     30 C           2.3190    4.0095   21.4501 C.3     1  UNL1        0.0748
     31 C           3.7292    3.9248   21.9542 C.3     1  UNL1        0.0480
     32 C           3.7885    4.6168   23.2838 C.3     1  UNL1        0.1278
     33 O           5.0073    4.7696   24.1446 O.3     1  UNL1       -0.3830
     34 C           2.4149    5.1293   23.6013 C.3     1  UNL1        0.1017
     35 H           4.7748    5.2564   24.9508 H       1  UNL1        0.2104
@<TRIPOS>BOND
     1    18    19    1
     2    19    15    1
     3    15    16    2
     4    15    17    2
     5    15     5    1
     6     5     6   ar
     7     6     7   ar
     8     7     8   ar
     9     8     9   ar
    10     9    10   ar
    11     9    11    1
    12    11    12    1
    13    12    13    1
    14    13     1    1
    15     1     2    2
    16     1     3   am
    17     3     4    1
    18     3    21    1
    19    21    28    1
    20    28    29    1
    21    29    30    1
    22    30    31    1
    23    31    32    1
    24    32    33    1
    25    32    34    1
    26    21    22    1
    27    22    23   ar
    28    23    24   ar
    29    24    25   ar
    30    25    26   ar
    31    26    27   ar
    32    13    14    1
    33    10     5   ar
    34    34    29    1
    35    27    22   ar
    36    14     8    1
    37    19    20    1
    38    33    35    1
@<TRIPOS>MOLECULE
*****
 35 38 0 0 0
SMALL
GASTEIGER

@<TRIPOS>ATOM
      1 C          -2.3165    3.3934   20.8536 C.2     1  UNL1        0.2661
      2 O          -3.7064    3.2230   20.3159 O.2     1  UNL1       -0.2710
      3 N          -2.0797    4.2495   22.0624 N.am    1  UNL1       -0.2714
      4 C          -3.2328    4.9352   22.7334 C.3     1  UNL1        0.1153
      5 C           2.8505   -0.6190   18.7437 C.ar    1  UNL1        0.1218
      6 C           2.2522   -1.2032   19.9889 C.ar    1  UNL1        0.0230
      7 C           1.0991   -0.5175   20.6600 C.ar    1  UNL1        0.0380
      8 C           0.5444    0.7523   20.0857 C.ar    1  UNL1        0.1351
      9 C           1.1427    1.3364   18.8405 C.ar    1  UNL1        0.0133
     10 C           2.2957    0.6508   18.1694 C.ar    1  UNL1        0.0186
     11 C           0.5879    2.6063   18.2661 C.3     1  UNL1        0.0337
     12 C          -0.5652    3.2920   18.9372 C.3     1  UNL1        0.0579
     13 C          -1.1635    2.7078   20.1825 C.3     1  UNL1        0.2415
     14 O          -0.6087    1.4380   20.7568 O.3     1  UNL1       -0.4703
     15 S           4.0036   -1.3047   18.0726 S.O2    1  UNL1        0.0603
     16 O           4.4764   -1.8114   19.4029 O.2     1  UNL1       -0.1530
     17 O           3.5307   -0.7979   16.7423 O.2     1  UNL1       -0.1530
     18 C           6.2028   -2.6793   18.2267 C.3     1  UNL1        0.1102
     19 N           5.1567   -1.9903   17.4016 N.3     1  UNL1       -0.1779
     20 H           4.7592   -2.6957   16.7812 H       1  UNL1        0.1488
     21 C          -0.6898    4.4199   22.6000 C.3     1  UNL1        0.1139
     22 C          -0.0476    3.3133   23.3831 C.ar    1  UNL1       -0.0029
     23 C          -0.7957    2.6566   24.5052 C.ar    1  UNL1       -0.0026
     24 C          -0.1535    1.5501   25.2882 C.ar    1  UNL1       -0.0003
     25 C           1.2367    1.1002   24.9491 C.ar    1  UNL1       -0.0000
     26 C           1.9847    1.7569   23.8270 C.ar    1  UNL1       -0.0003
     27 C           1.3426    2.8634   23.0440 C.ar    1  UNL1       -0.0026
     28 C           0.0580    5.6968   22.3547 C.3     1  UNL1        0.0968
     29 N           0.6151    5.9900   20.9931 N.3     1  UNL1       -0.2689
     30 C          -0.0512    6.8051   19.9247 C.3     1  UNL1        0.0748
     31 C           0.8582    6.8384   18.7322 C.3     1  UNL1        0.0480
     32 C           2.0866    6.0438   19.0638 C.3     1  UNL1        0.1278
     33 O           3.2593    5.8139   18.1571 O.3     1  UNL1       -0.3830
     34 C           1.9363    5.5195   20.4612 C.3     1  UNL1        0.1017
     35 H           3.9183    5.2674   18.6132 H       1  UNL1        0.2104
@<TRIPOS>BOND
     1    18    19    1
     2    19    15    1
     3    15    16    2
     4    15    17    2
     5    15     5    1
     6     5     6   ar
     7     6     7   ar
     8     7     8   ar
     9     8     9   ar
    10     9    10   ar
    11     9    11    1
    12    11    12    1
    13    12    13    1
    14    13     1    1
    15     1     2    2
    16     1     3   am
    17     3     4    1
    18     3    21    1
    19    21    28    1
    20    28    29    1
    21    29    30    1
    22    30    31    1
    23    31    32    1
    24    32    33    1
    25    32    34    1
    26    21    22    1
    27    22    23   ar
    28    23    24   ar
    29    24    25   ar
    30    25    26   ar
    31    26    27   ar
    32    13    14    1
    33    10     5   ar
    34    34    29    1
    35    27    22   ar
    36    14     8    1
    37    19    20    1
    38    33    35    1
@<TRIPOS>MOLECULE
*****
 35 38 0 0 0
SMALL
GASTEIGER

@<TRIPOS>ATOM
      1 C           4.9094   -3.2636   21.5133 C.2     1  UNL1        0.2661
      2 O           4.4313   -4.6854   21.5048 O.2     1  UNL1       -0.2710
      3 N           6.3563   -2.9574   21.2626 N.am    1  UNL1       -0.2714
      4 C           7.3250   -4.0729   21.0033 C.3     1  UNL1        0.1153
      5 C           0.1947    1.7378   21.4308 C.ar    1  UNL1        0.1218
      6 C           0.3236    1.1617   20.0519 C.ar    1  UNL1        0.0230
      7 C           1.2923    0.0462   19.7926 C.ar    1  UNL1        0.0380
      8 C           2.1321   -0.4932   20.9122 C.ar    1  UNL1        0.1351
      9 C           2.0033    0.0829   22.2912 C.ar    1  UNL1        0.0133
     10 C           1.0346    1.1984   22.5504 C.ar    1  UNL1        0.0186
     11 C           2.8431   -0.4565   23.4109 C.3     1  UNL1        0.0337
     12 C           3.8119   -1.5720   23.1516 C.3     1  UNL1        0.0579
     13 C           3.9407   -2.1481   21.7726 C.3     1  UNL1        0.2415
     14 O           3.1009   -1.6087   20.6530 O.3     1  UNL1       -0.4703
     15 S          -0.7740    2.8533   21.6901 S.O2    1  UNL1        0.0603
     16 O          -0.2491    2.9840   23.0891 O.2     1  UNL1       -0.1530
     17 O          -1.2989    2.7227   20.2910 O.2     1  UNL1       -0.1530
     18 C          -3.1881    3.6621   22.2076 C.3     1  UNL1        0.1102
     19 N          -1.7427    3.9688   21.9493 N.3     1  UNL1       -0.1779
     20 H          -1.3985    4.4740   22.7659 H       1  UNL1        0.1488
     21 C           6.8344   -1.5357   21.2711 C.3     1  UNL1        0.1139
     22 C           7.0316   -0.8185   22.5738 C.ar    1  UNL1       -0.0029
     23 C           7.5504   -1.5624   23.7685 C.ar    1  UNL1       -0.0026
     24 C           7.7476   -0.8453   25.0710 C.ar    1  UNL1       -0.0003
     25 C           7.4260    0.6159   25.1789 C.ar    1  UNL1       -0.0000
     26 C           6.9073    1.3599   23.9842 C.ar    1  UNL1       -0.0003
     27 C           6.7101    0.6427   22.6816 C.ar    1  UNL1       -0.0026
     28 C           7.1153   -0.8311   19.9770 C.3     1  UNL1        0.0968
     29 N           5.9991   -0.5628   19.0115 N.3     1  UNL1       -0.2689
     30 C           5.1834    0.6936   18.9339 C.3     1  UNL1        0.0748
     31 C           4.1828    0.5291   17.8285 C.3     1  UNL1        0.0480
     32 C           4.3803   -0.8290   17.2229 C.3     1  UNL1        0.1278
     33 O           3.5933   -1.4102   16.0858 O.3     1  UNL1       -0.3830
     34 C           5.5028   -1.5038   17.9541 C.3     1  UNL1        0.1017
     35 H           3.9210   -2.3014   15.8880 H       1  UNL1        0.2104
@<TRIPOS>BOND
     1    18    19    1
     2    19    15    1
     3    15    16    2
     4    15    17    2
     5    15     5    1
     6     5     6   ar
     7     6     7   ar
     8     7     8   ar
     9     8     9   ar
    10     9    10   ar
    11     9    11    1
    12    11    12    1
    13    12    13    1
    14    13     1    1
    15     1     2    2
    16     1     3   am
    17     3     4    1
    18     3    21    1
    19    21    28    1
    20    28    29    1
    21    29    30    1
    22    30    31    1
    23    31    32    1
    24    32    33    1
    25    32    34    1
    26    21    22    1
    27    22    23   ar
    28    23    24   ar
    29    24    25   ar
    30    25    26   ar
    31    26    27   ar
    32    13    14    1
    33    10     5   ar
    34    34    29    1
    35    27    22   ar
    36    14     8    1
    37    19    20    1
    38    33    35    1
@<TRIPOS>MOLECULE
*****
 35 38 0 0 0
SMALL
GASTEIGER

@<TRIPOS>ATOM
      1 C           6.1921    1.2243   19.5652 C.2     1  UNL1        0.2661
      2 O           7.2192    2.3009   19.3760 O.2     1  UNL1       -0.2710
      3 N           5.8367    0.3177   18.4242 N.am    1  UNL1       -0.2714
      4 C           6.5085    0.4879   17.0939 C.3     1  UNL1        0.1153
      5 C           3.8590   -0.6216   25.7619 C.ar    1  UNL1        0.1218
      6 C           4.8849   -1.6168   25.3071 C.ar    1  UNL1        0.0230
      7 C           5.5568   -1.4467   23.9768 C.ar    1  UNL1        0.0380
      8 C           5.2026   -0.2813   23.1013 C.ar    1  UNL1        0.1351
      9 C           4.1766    0.7139   23.5562 C.ar    1  UNL1        0.0133
     10 C           3.5048    0.5437   24.8865 C.ar    1  UNL1        0.0186
     11 C           3.8224    1.8793   22.6807 C.3     1  UNL1        0.0337
     12 C           4.4943    2.0494   21.3504 C.3     1  UNL1        0.0579
     13 C           5.5203    1.0541   20.8955 C.3     1  UNL1        0.2415
     14 O           5.8744   -0.1112   21.7710 O.3     1  UNL1       -0.4703
     15 S           3.1872   -0.7917   27.0923 S.O2    1  UNL1        0.0603
     16 O           3.9549   -2.0605   27.3177 O.2     1  UNL1       -0.1530
     17 O           2.4194    0.4770   26.8668 O.2     1  UNL1       -0.1530
     18 C           1.2884   -0.1638   28.7507 C.3     1  UNL1        0.1102
     19 N           2.5153   -0.9619   28.4226 N.3     1  UNL1       -0.1779
     20 H           2.2557   -1.9454   28.4976 H       1  UNL1        0.1488
     21 C           4.8096   -0.7589   18.6134 C.3     1  UNL1        0.1139
     22 C           3.3908   -0.3937   18.9356 C.ar    1  UNL1       -0.0029
     23 C           2.6754   -1.0835   20.0591 C.ar    1  UNL1       -0.0026
     24 C           1.2567   -0.7183   20.3812 C.ar    1  UNL1       -0.0003
     25 C           0.5534    0.3368   19.5798 C.ar    1  UNL1       -0.0000
     26 C           1.2688    1.0267   18.4564 C.ar    1  UNL1       -0.0003
     27 C           2.6875    0.6614   18.1343 C.ar    1  UNL1       -0.0026
     28 C           5.2012   -2.2008   18.4806 C.3     1  UNL1        0.0968
     29 N           6.1638   -2.8095   19.4568 N.3     1  UNL1       -0.2689
     30 C           7.6575   -2.6763   19.4218 C.3     1  UNL1        0.0748
     31 C           8.2185   -3.4428   20.5827 C.3     1  UNL1        0.0480
     32 C           7.0716   -4.0498   21.3352 C.3     1  UNL1        0.1278
     33 O           7.1762   -4.8990   22.5672 O.3     1  UNL1       -0.3830
     34 C           5.8016   -3.6584   20.6393 C.3     1  UNL1        0.1017
     35 H           6.2880   -5.1633   22.8541 H       1  UNL1        0.2104
@<TRIPOS>BOND
     1    18    19    1
     2    19    15    1
     3    15    16    2
     4    15    17    2
     5    15     5    1
     6     5     6   ar
     7     6     7   ar
     8     7     8   ar
     9     8     9   ar
    10     9    10   ar
    11     9    11    1
    12    11    12    1
    13    12    13    1
    14    13     1    1
    15     1     2    2
    16     1     3   am
    17     3     4    1
    18     3    21    1
    19    21    28    1
    20    28    29    1
    21    29    30    1
    22    30    31    1
    23    31    32    1
    24    32    33    1
    25    32    34    1
    26    21    22    1
    27    22    23   ar
    28    23    24   ar
    29    24    25   ar
    30    25    26   ar
    31    26    27   ar
    32    13    14    1
    33    10     5   ar
    34    34    29    1
    35    27    22   ar
    36    14     8    1
    37    19    20    1
    38    33    35    1
