@<TRIPOS>MOLECULE
*****
 32 35 0 0 0
SMALL
GASTEIGER

@<TRIPOS>ATOM
      1 C         -11.0451  -18.8910   19.3592 C.3     1  UNL1        0.0203
      2 C          -9.8148  -19.2437   20.1415 C.3     1  UNL1        0.0888
      3 N          -9.7186  -18.8782   21.5931 N.3     1  UNL1       -0.2713
      4 C         -10.5060  -19.6455   22.6135 C.3     1  UNL1        0.0749
      5 C         -10.4098  -19.2800   24.0651 C.3     1  UNL1        0.0485
      6 C          -9.5262  -18.1472   24.4963 C.3     1  UNL1        0.1096
      7 O         -10.0726  -18.5723   25.8270 O.3     1  UNL1       -0.3826
      8 C          -8.7387  -17.3798   23.4759 C.3     1  UNL1        0.0485
      9 C          -8.8349  -17.7454   22.0243 C.3     1  UNL1        0.0749
     10 H         -10.6787  -19.3196   25.7039 H       1  UNL1        0.2107
     11 C          -8.8323  -17.1620   25.3897 C.ar    1  UNL1        0.0019
     12 C          -8.9817  -17.2649   26.8786 C.ar    1  UNL1        0.0003
     13 C          -8.2879  -16.2798   27.7720 C.ar    1  UNL1        0.0294
     14 C          -7.4446  -15.1916   27.1763 C.ar    1  UNL1        0.1401
     15 F          -6.7508  -14.2065   28.0696 F       1  UNL1       -0.2042
     16 C          -7.2951  -15.0887   25.6873 C.ar    1  UNL1        0.0294
     17 C          -7.9890  -16.0738   24.7940 C.ar    1  UNL1        0.0003
     18 C          -8.6808  -19.9620   19.4722 C.3     1  UNL1        0.1473
     19 O          -8.9382  -20.8016   18.2562 O.3     1  UNL1       -0.3787
     20 H          -8.1047  -21.1927   17.9509 H       1  UNL1        0.2108
     21 C          -7.2892  -19.8407   20.0189 C.ar    1  UNL1        0.0086
     22 C          -6.9172  -20.5497   21.2873 C.ar    1  UNL1       -0.0004
     23 C          -5.5257  -20.4284   21.8340 C.ar    1  UNL1        0.0175
     24 C          -4.5061  -19.5980   21.1123 C.ar    1  UNL1        0.0848
     25 C          -4.8781  -18.8890   19.8439 C.ar    1  UNL1        0.1523
     26 C          -6.2696  -19.0103   19.2972 C.ar    1  UNL1        0.0363
     27 O          -3.8585  -18.0586   19.1221 O.3     1  UNL1       -0.4644
     28 C          -2.4670  -17.9372   19.6688 C.3     1  UNL1        0.2897
     29 C          -2.0950  -18.6463   20.9372 C.2     1  UNL1        0.2707
     30 O          -0.7034  -18.5249   21.4839 O.2     1  UNL1       -0.2707
     31 N          -3.1145  -19.4767   21.6590 N.am    1  UNL1       -0.2785
     32 H          -2.8704  -19.9420   22.4915 H       1  UNL1        0.1551
@<TRIPOS>BOND
     1     1     2    1
     2     2    18    1
     3    18    19    1
     4    18    21    1
     5    21    22   ar
     6    22    23   ar
     7    23    24   ar
     8    24    25   ar
     9    25    26   ar
    10    25    27    1
    11    27    28    1
    12    28    29    1
    13    29    30    2
    14    29    31   am
    15     2     3    1
    16     3     4    1
    17     4     5    1
    18     5     6    1
    19     6     7    1
    20     6    11    1
    21    11    12   ar
    22    12    13   ar
    23    13    14   ar
    24    14    15    1
    25    14    16   ar
    26    16    17   ar
    27     6     8    1
    28     8     9    1
    29    26    21   ar
    30     9     3    1
    31    31    24    1
    32    17    11   ar
    33    19    20    1
    34    31    32    1
    35     7    10    1
@<TRIPOS>MOLECULE
*****
 32 35 0 0 0
SMALL
GASTEIGER

@<TRIPOS>ATOM
      1 C          -8.8836  -20.7243   18.4639 C.3     1  UNL1        0.0203
      2 C          -8.6537  -19.8697   19.6751 C.3     1  UNL1        0.0888
      3 N          -7.2645  -19.6854   20.2101 N.3     1  UNL1       -0.2713
      4 C          -6.8793  -20.2985   21.5237 C.3     1  UNL1        0.0749
      5 C          -5.4901  -20.1142   22.0588 C.3     1  UNL1        0.0485
      6 C          -4.4863  -19.3167   21.2802 C.3     1  UNL1        0.1096
      7 O          -3.6517  -19.6990   22.4666 O.3     1  UNL1       -0.3826
      8 C          -4.8715  -18.7035   19.9666 C.3     1  UNL1        0.0485
      9 C          -6.2606  -18.8878   19.4315 C.3     1  UNL1        0.0749
     10 H          -4.1830  -20.2340   23.0768 H       1  UNL1        0.2107
     11 C          -3.1925  -18.6519   20.9137 C.ar    1  UNL1        0.0019
     12 C          -2.5315  -18.9678   19.6048 C.ar    1  UNL1        0.0003
     13 C          -1.2377  -18.3031   19.2382 C.ar    1  UNL1        0.0294
     14 C          -0.6050  -17.3225   20.1806 C.ar    1  UNL1        0.1401
     15 F           0.6887  -16.6578   19.8140 F       1  UNL1       -0.2042
     16 C          -1.2660  -17.0066   21.4895 C.ar    1  UNL1        0.0294
     17 C          -2.5598  -17.6713   21.8561 C.ar    1  UNL1        0.0003
     18 C          -9.8129  -19.1995   20.3511 C.3     1  UNL1        0.1473
     19 O         -11.1354  -19.1012   19.6501 O.3     1  UNL1       -0.3787
     20 H         -11.7710  -18.6428   20.2218 H       1  UNL1        0.2108
     21 C          -9.6496  -18.6276   21.7282 C.ar    1  UNL1        0.0086
     22 C         -10.2702  -19.3190   22.9059 C.ar    1  UNL1       -0.0004
     23 C         -10.1069  -18.7471   24.2829 C.ar    1  UNL1        0.0175
     24 C          -9.3230  -17.4838   24.4823 C.ar    1  UNL1        0.0848
     25 C          -8.7025  -16.7925   23.3046 C.ar    1  UNL1        0.1523
     26 C          -8.8658  -17.3644   21.9276 C.ar    1  UNL1        0.0363
     27 O          -7.9186  -15.5292   23.5040 O.3     1  UNL1       -0.4644
     28 C          -7.7553  -14.9573   24.8810 C.3     1  UNL1        0.2897
     29 C          -8.3759  -15.6487   26.0588 C.2     1  UNL1        0.2707
     30 O          -8.2126  -15.0768   27.4358 O.2     1  UNL1       -0.2707
     31 N          -9.1598  -16.9119   25.8594 N.am    1  UNL1       -0.2785
     32 H          -9.5671  -17.3657   26.6323 H       1  UNL1        0.1551
@<TRIPOS>BOND
     1     1     2    1
     2     2    18    1
     3    18    19    1
     4    18    21    1
     5    21    22   ar
     6    22    23   ar
     7    23    24   ar
     8    24    25   ar
     9    25    26   ar
    10    25    27    1
    11    27    28    1
    12    28    29    1
    13    29    30    2
    14    29    31   am
    15     2     3    1
    16     3     4    1
    17     4     5    1
    18     5     6    1
    19     6     7    1
    20     6    11    1
    21    11    12   ar
    22    12    13   ar
    23    13    14   ar
    24    14    15    1
    25    14    16   ar
    26    16    17   ar
    27     6     8    1
    28     8     9    1
    29    26    21   ar
    30     9     3    1
    31    31    24    1
    32    17    11   ar
    33    19    20    1
    34    31    32    1
    35     7    10    1
@<TRIPOS>MOLECULE
*****
 32 35 0 0 0
SMALL
GASTEIGER

@<TRIPOS>ATOM
      1 C          -5.1487  -14.8968   26.1060 C.3     1  UNL1        0.0203
      2 C          -5.4295  -16.0443   25.1815 C.3     1  UNL1        0.0888
      3 N          -6.7471  -16.1288   24.4696 N.3     1  UNL1       -0.2713
      4 C          -6.9068  -15.5121   23.1117 C.3     1  UNL1        0.0749
      5 C          -8.2244  -15.5965   22.3998 C.3     1  UNL1        0.0485
      6 C          -9.3823  -16.2977   23.0459 C.3     1  UNL1        0.1096
      7 O         -10.0212  -15.8733   21.7567 O.3     1  UNL1       -0.3826
      8 C          -9.2227  -16.9145   24.4039 C.3     1  UNL1        0.0485
      9 C          -7.9051  -16.8300   25.1158 C.3     1  UNL1        0.0749
     10 H          -9.3734  -15.3934   21.2175 H       1  UNL1        0.2107
     11 C         -10.7622  -16.8515   23.2443 C.ar    1  UNL1        0.0019
     12 C         -11.9344  -16.2047   22.5680 C.ar    1  UNL1        0.0003
     13 C         -13.3142  -16.7584   22.7663 C.ar    1  UNL1        0.0294
     14 C         -13.5218  -17.9592   23.6411 C.ar    1  UNL1        0.1401
     15 F         -14.9016  -18.5130   23.8395 F       1  UNL1       -0.2042
     16 C         -12.3496  -18.6061   24.3174 C.ar    1  UNL1        0.0294
     17 C         -10.9698  -18.0523   24.1190 C.ar    1  UNL1        0.0003
     18 C          -4.3927  -17.1072   24.9690 C.3     1  UNL1        0.1473
     19 O          -3.7847  -17.8082   26.1476 O.3     1  UNL1       -0.3787
     20 H          -3.1377  -18.4608   25.8371 H       1  UNL1        0.2108
     21 C          -3.9639  -17.4693   23.5779 C.ar    1  UNL1        0.0086
     22 C          -4.7161  -18.5150   22.8095 C.ar    1  UNL1       -0.0004
     23 C          -4.2873  -18.8770   21.4184 C.ar    1  UNL1        0.0175
     24 C          -3.1063  -18.1933   20.7958 C.ar    1  UNL1        0.0848
     25 C          -2.3541  -17.1475   21.5643 C.ar    1  UNL1        0.1523
     26 C          -2.7829  -16.7855   22.9553 C.ar    1  UNL1        0.0363
     27 O          -1.1730  -16.4638   20.9417 O.3     1  UNL1       -0.4644
     28 C          -0.7442  -16.8258   19.5506 C.3     1  UNL1        0.2897
     29 C          -1.4964  -17.8716   18.7821 C.2     1  UNL1        0.2707
     30 O          -1.0676  -18.2336   17.3911 O.2     1  UNL1       -0.2707
     31 N          -2.6775  -18.5553   19.4047 N.am    1  UNL1       -0.2785
     32 H          -3.1712  -19.2417   18.9004 H       1  UNL1        0.1551
@<TRIPOS>BOND
     1     1     2    1
     2     2    18    1
     3    18    19    1
     4    18    21    1
     5    21    22   ar
     6    22    23   ar
     7    23    24   ar
     8    24    25   ar
     9    25    26   ar
    10    25    27    1
    11    27    28    1
    12    28    29    1
    13    29    30    2
    14    29    31   am
    15     2     3    1
    16     3     4    1
    17     4     5    1
    18     5     6    1
    19     6     7    1
    20     6    11    1
    21    11    12   ar
    22    12    13   ar
    23    13    14   ar
    24    14    15    1
    25    14    16   ar
    26    16    17   ar
    27     6     8    1
    28     8     9    1
    29    26    21   ar
    30     9     3    1
    31    31    24    1
    32    17    11   ar
    33    19    20    1
    34    31    32    1
    35     7    10    1
@<TRIPOS>MOLECULE
*****
 32 35 0 0 0
SMALL
GASTEIGER

@<TRIPOS>ATOM
      1 C          -7.6452  -15.8789   26.9958 C.3     1  UNL1        0.0203
      2 C          -7.0703  -15.8812   25.6102 C.3     1  UNL1        0.0888
      3 N          -7.8819  -16.4046   24.4624 N.3     1  UNL1       -0.2713
      4 C          -9.3027  -15.9583   24.2833 C.3     1  UNL1        0.0749
      5 C         -10.1142  -16.4816   23.1355 C.3     1  UNL1        0.0485
      6 C          -9.5050  -17.4513   22.1668 C.3     1  UNL1        0.1096
      7 O         -10.8801  -17.3267   21.5806 O.3     1  UNL1       -0.3826
      8 C          -8.0841  -17.8977   22.3458 C.3     1  UNL1        0.0485
      9 C          -7.2725  -17.3743   23.4936 C.3     1  UNL1        0.0749
     10 H         -11.4059  -16.7130   22.1170 H       1  UNL1        0.2107
     11 C          -9.3732  -18.3778   20.9944 C.ar    1  UNL1        0.0019
     12 C          -8.0270  -18.9185   20.6133 C.ar    1  UNL1        0.0003
     13 C          -7.8953  -19.8449   19.4410 C.ar    1  UNL1        0.0294
     14 C          -9.1099  -20.2306   18.6497 C.ar    1  UNL1        0.1401
     15 F          -8.9781  -21.1570   17.4774 F       1  UNL1       -0.2042
     16 C         -10.4561  -19.6899   19.0308 C.ar    1  UNL1        0.0294
     17 C         -10.5878  -18.7634   20.2032 C.ar    1  UNL1        0.0003
     18 C          -5.6840  -15.3602   25.3726 C.3     1  UNL1        0.1473
     19 O          -5.2734  -14.0342   25.9411 O.3     1  UNL1       -0.3787
     20 H          -4.3534  -13.8483   25.6962 H       1  UNL1        0.2108
     21 C          -4.7082  -16.1651   24.5664 C.ar    1  UNL1        0.0086
     22 C          -4.2450  -17.5015   25.0658 C.ar    1  UNL1       -0.0004
     23 C          -3.2692  -18.3064   24.2596 C.ar    1  UNL1        0.0175
     24 C          -2.7566  -17.7748   22.9540 C.ar    1  UNL1        0.0848
     25 C          -3.2197  -16.4384   22.4546 C.ar    1  UNL1        0.1523
     26 C          -4.1955  -15.6336   23.2608 C.ar    1  UNL1        0.0363
     27 O          -2.7071  -15.9069   21.1489 O.3     1  UNL1       -0.4644
     28 C          -1.7313  -16.7117   20.3427 C.3     1  UNL1        0.2897
     29 C          -1.2681  -18.0482   20.8422 C.2     1  UNL1        0.2707
     30 O          -0.2923  -18.8531   20.0360 O.2     1  UNL1       -0.2707
     31 N          -1.7808  -18.5798   22.1478 N.am    1  UNL1       -0.2785
     32 H          -1.4768  -19.4569   22.4756 H       1  UNL1        0.1551
@<TRIPOS>BOND
     1     1     2    1
     2     2    18    1
     3    18    19    1
     4    18    21    1
     5    21    22   ar
     6    22    23   ar
     7    23    24   ar
     8    24    25   ar
     9    25    26   ar
    10    25    27    1
    11    27    28    1
    12    28    29    1
    13    29    30    2
    14    29    31   am
    15     2     3    1
    16     3     4    1
    17     4     5    1
    18     5     6    1
    19     6     7    1
    20     6    11    1
    21    11    12   ar
    22    12    13   ar
    23    13    14   ar
    24    14    15    1
    25    14    16   ar
    26    16    17   ar
    27     6     8    1
    28     8     9    1
    29    26    21   ar
    30     9     3    1
    31    31    24    1
    32    17    11   ar
    33    19    20    1
    34    31    32    1
    35     7    10    1
@<TRIPOS>MOLECULE
*****
 32 35 0 0 0
SMALL
GASTEIGER

@<TRIPOS>ATOM
      1 C           0.1719    1.3537   25.1117 C.3     1  UNL1        0.0203
      2 C           0.0119    2.1632   23.8590 C.3     1  UNL1        0.0888
      3 N           0.4589    1.6025   22.5415 N.3     1  UNL1       -0.2713
      4 C          -0.2720    1.9685   21.2839 C.3     1  UNL1        0.0749
      5 C           0.1750    1.4078   19.9664 C.3     1  UNL1        0.0485
      6 C           1.3530    0.4811   19.9066 C.3     1  UNL1        0.1096
      7 O           0.9870    0.5313   18.4527 O.3     1  UNL1       -0.3826
      8 C           2.0840    0.1150   21.1643 C.3     1  UNL1        0.0485
      9 C           1.6370    0.6757   22.4818 C.3     1  UNL1        0.0749
     10 H           0.2182    1.1105   18.3327 H       1  UNL1        0.2107
     11 C           2.4039   -0.4282   19.3418 C.ar    1  UNL1        0.0019
     12 C           3.1142   -0.0571   18.0739 C.ar    1  UNL1        0.0003
     13 C           4.1650   -0.9663   17.5092 C.ar    1  UNL1        0.0294
     14 C           4.5056   -2.2468   18.2124 C.ar    1  UNL1        0.1401
     15 F           5.5564   -3.1560   17.6476 F       1  UNL1       -0.2042
     16 C           3.7952   -2.6180   19.4803 C.ar    1  UNL1        0.0294
     17 C           2.7443   -1.7087   20.0451 C.ar    1  UNL1        0.0003
     18 C          -0.5950    3.5333   23.9239 C.3     1  UNL1        0.1473
     19 O           0.2771    4.7469   23.7944 O.3     1  UNL1       -0.3787
     20 H          -0.2692    5.5459   23.8577 H       1  UNL1        0.2108
     21 C          -2.0742    3.6900   24.1182 C.ar    1  UNL1        0.0086
     22 C          -2.6602    3.6271   25.4975 C.ar    1  UNL1       -0.0004
     23 C          -4.1392    3.7838   25.6918 C.ar    1  UNL1        0.0175
     24 C          -5.0323    4.0034   24.5068 C.ar    1  UNL1        0.0848
     25 C          -4.4462    4.0663   23.1275 C.ar    1  UNL1        0.1523
     26 C          -2.9672    3.9096   22.9332 C.ar    1  UNL1        0.0363
     27 O          -5.3393    4.2859   21.9425 O.3     1  UNL1       -0.4644
     28 C          -6.8183    4.4426   22.1368 C.3     1  UNL1        0.2897
     29 C          -7.4044    4.3796   23.5161 C.2     1  UNL1        0.2707
     30 O          -8.8835    4.5363   23.7104 O.2     1  UNL1       -0.2707
     31 N          -6.5114    4.1600   24.7012 N.am    1  UNL1       -0.2785
     32 H          -6.8960    4.1187   25.6065 H       1  UNL1        0.1551
@<TRIPOS>BOND
     1     1     2    1
     2     2    18    1
     3    18    19    1
     4    18    21    1
     5    21    22   ar
     6    22    23   ar
     7    23    24   ar
     8    24    25   ar
     9    25    26   ar
    10    25    27    1
    11    27    28    1
    12    28    29    1
    13    29    30    2
    14    29    31   am
    15     2     3    1
    16     3     4    1
    17     4     5    1
    18     5     6    1
    19     6     7    1
    20     6    11    1
    21    11    12   ar
    22    12    13   ar
    23    13    14   ar
    24    14    15    1
    25    14    16   ar
    26    16    17   ar
    27     6     8    1
    28     8     9    1
    29    26    21   ar
    30     9     3    1
    31    31    24    1
    32    17    11   ar
    33    19    20    1
    34    31    32    1
    35     7    10    1
@<TRIPOS>MOLECULE
*****
 32 35 0 0 0
SMALL
GASTEIGER

@<TRIPOS>ATOM
      1 C           9.2646   -3.0095   21.9280 C.3     1  UNL1        0.0203
      2 C           8.1868   -4.0253   21.6901 C.3     1  UNL1        0.0888
      3 N           6.9398   -3.6370   20.9524 N.3     1  UNL1       -0.2713
      4 C           6.2296   -4.6445   20.0977 C.3     1  UNL1        0.0749
      5 C           4.9826   -4.2562   19.3600 C.3     1  UNL1        0.0485
      6 C           4.4458   -2.8604   19.4770 C.3     1  UNL1        0.1096
      7 O           3.4262   -3.4548   18.5512 O.3     1  UNL1       -0.3826
      8 C           5.1561   -1.8529   20.3318 C.3     1  UNL1        0.0485
      9 C           6.4031   -2.2412   21.0694 C.3     1  UNL1        0.0749
     10 H           3.6483   -4.3832   18.3787 H       1  UNL1        0.2107
     11 C           3.5549   -1.6711   19.2725 C.ar    1  UNL1        0.0019
     12 C           3.8433   -0.6992   18.1670 C.ar    1  UNL1        0.0003
     13 C           2.9525    0.4901   17.9625 C.ar    1  UNL1        0.0294
     14 C           1.7731    0.7076   18.8636 C.ar    1  UNL1        0.1401
     15 F           0.8823    1.8969   18.6591 F       1  UNL1       -0.2042
     16 C           1.4847   -0.2643   19.9691 C.ar    1  UNL1        0.0294
     17 C           2.3756   -1.4536   20.1736 C.ar    1  UNL1        0.0003
     18 C           8.3561   -5.4294   22.1899 C.3     1  UNL1        0.1473
     19 O           8.7780   -6.5159   21.2457 O.3     1  UNL1       -0.3787
     20 H           8.8396   -7.3561   21.7264 H       1  UNL1        0.2108
     21 C           8.1035   -5.7471   23.6340 C.ar    1  UNL1        0.0086
     22 C           8.3356   -7.1370   24.1479 C.ar    1  UNL1       -0.0004
     23 C           8.0830   -7.4546   25.5919 C.ar    1  UNL1        0.0175
     24 C           7.5983   -6.3823   26.5221 C.ar    1  UNL1        0.0848
     25 C           7.3661   -4.9923   26.0081 C.ar    1  UNL1        0.1523
     26 C           7.6188   -4.6747   24.5641 C.ar    1  UNL1        0.0363
     27 O           6.8814   -3.9200   26.9383 O.3     1  UNL1       -0.4644
     28 C           6.6288   -4.2376   28.3823 C.3     1  UNL1        0.2897
     29 C           6.8609   -5.6276   28.8963 C.2     1  UNL1        0.2707
     30 O           6.6083   -5.9452   30.3403 O.2     1  UNL1       -0.2707
     31 N           7.3456   -6.6999   27.9662 N.am    1  UNL1       -0.2785
     32 H           7.4980   -7.6122   28.3035 H       1  UNL1        0.1551
@<TRIPOS>BOND
     1     1     2    1
     2     2    18    1
     3    18    19    1
     4    18    21    1
     5    21    22   ar
     6    22    23   ar
     7    23    24   ar
     8    24    25   ar
     9    25    26   ar
    10    25    27    1
    11    27    28    1
    12    28    29    1
    13    29    30    2
    14    29    31   am
    15     2     3    1
    16     3     4    1
    17     4     5    1
    18     5     6    1
    19     6     7    1
    20     6    11    1
    21    11    12   ar
    22    12    13   ar
    23    13    14   ar
    24    14    15    1
    25    14    16   ar
    26    16    17   ar
    27     6     8    1
    28     8     9    1
    29    26    21   ar
    30     9     3    1
    31    31    24    1
    32    17    11   ar
    33    19    20    1
    34    31    32    1
    35     7    10    1
@<TRIPOS>MOLECULE
*****
 32 35 0 0 0
SMALL
GASTEIGER

@<TRIPOS>ATOM
      1 C           4.3097   -5.1204   19.0021 C.3     1  UNL1        0.0203
      2 C           5.1195   -3.9483   19.4718 C.3     1  UNL1        0.0888
      3 N           5.8453   -4.0153   20.7828 N.3     1  UNL1       -0.2713
      4 C           7.3335   -4.2013   20.8075 C.3     1  UNL1        0.0749
      5 C           8.0593   -4.2683   22.1185 C.3     1  UNL1        0.0485
      6 C           7.2969   -4.1493   23.4048 C.3     1  UNL1        0.1096
      7 O           8.6882   -4.3138   23.9409 O.3     1  UNL1       -0.3826
      8 C           5.8086   -3.9634   23.3801 C.3     1  UNL1        0.0485
      9 C           5.0828   -3.8964   22.0691 C.3     1  UNL1        0.0749
     10 H           9.3105   -4.4052   23.2025 H       1  UNL1        0.2107
     11 C           7.0177   -4.0875   24.8773 C.ar    1  UNL1        0.0019
     12 C           7.0527   -5.3408   25.7006 C.ar    1  UNL1        0.0003
     13 C           6.7735   -5.2791   27.1731 C.ar    1  UNL1        0.0294
     14 C           6.4592   -3.9638   27.8223 C.ar    1  UNL1        0.1401
     15 F           6.1800   -3.9020   29.2947 F       1  UNL1       -0.2042
     16 C           6.4242   -2.7104   26.9990 C.ar    1  UNL1        0.0294
     17 C           6.7034   -2.7723   25.5265 C.ar    1  UNL1        0.0003
     18 C           5.2034   -2.7093   18.6305 C.3     1  UNL1        0.1473
     19 O           6.3676   -2.5077   17.7064 O.3     1  UNL1       -0.3787
     20 H           6.2678   -1.6630   17.2402 H       1  UNL1        0.2108
     21 C           4.1231   -1.6719   18.7133 C.ar    1  UNL1        0.0086
     22 C           3.7783   -0.8502   17.5067 C.ar    1  UNL1       -0.0004
     23 C           2.6981    0.1871   17.5896 C.ar    1  UNL1        0.0175
     24 C           1.9627    0.4028   18.8790 C.ar    1  UNL1        0.0848
     25 C           2.3075   -0.4188   20.0856 C.ar    1  UNL1        0.1523
     26 C           3.3877   -1.4562   20.0028 C.ar    1  UNL1        0.0363
     27 O           1.5721   -0.2031   21.3751 O.3     1  UNL1       -0.4644
     28 C           0.4919    0.8342   21.4579 C.3     1  UNL1        0.2897
     29 C           0.1470    1.6560   20.2513 C.2     1  UNL1        0.2707
     30 O          -0.9333    2.6933   20.3341 O.2     1  UNL1       -0.2707
     31 N           0.8824    1.4403   18.9618 N.am    1  UNL1       -0.2785
     32 H           0.6560    1.9796   18.1699 H       1  UNL1        0.1551
@<TRIPOS>BOND
     1     1     2    1
     2     2    18    1
     3    18    19    1
     4    18    21    1
     5    21    22   ar
     6    22    23   ar
     7    23    24   ar
     8    24    25   ar
     9    25    26   ar
    10    25    27    1
    11    27    28    1
    12    28    29    1
    13    29    30    2
    14    29    31   am
    15     2     3    1
    16     3     4    1
    17     4     5    1
    18     5     6    1
    19     6     7    1
    20     6    11    1
    21    11    12   ar
    22    12    13   ar
    23    13    14   ar
    24    14    15    1
    25    14    16   ar
    26    16    17   ar
    27     6     8    1
    28     8     9    1
    29    26    21   ar
    30     9     3    1
    31    31    24    1
    32    17    11   ar
    33    19    20    1
    34    31    32    1
    35     7    10    1
@<TRIPOS>MOLECULE
*****
 32 35 0 0 0
SMALL
GASTEIGER

@<TRIPOS>ATOM
      1 C           1.2690    4.6684   23.5077 C.3     1  UNL1        0.0203
      2 C           0.4692    3.4245   23.2560 C.3     1  UNL1        0.0888
      3 N           0.7680    2.5700   22.0600 N.3     1  UNL1       -0.2713
      4 C          -0.1020    2.6553   20.8411 C.3     1  UNL1        0.0749
      5 C           0.1968    1.8007   19.6451 C.3     1  UNL1        0.0485
      6 C           1.3656    0.8609   19.6680 C.3     1  UNL1        0.1096
      7 O           0.8378    0.5867   18.2909 O.3     1  UNL1       -0.3826
      8 C           2.2357    0.7755   20.8869 C.3     1  UNL1        0.0485
      9 C           1.9369    1.6301   22.0829 C.3     1  UNL1        0.0749
     10 H           0.0572    1.1389   18.1279 H       1  UNL1        0.2107
     11 C           2.3512   -0.1742   19.2126 C.ar    1  UNL1        0.0019
     12 C           2.5987   -1.3938   20.0500 C.ar    1  UNL1        0.0003
     13 C           3.5842   -2.4289   19.5947 C.ar    1  UNL1        0.0294
     14 C           4.3222   -2.2443   18.3018 C.ar    1  UNL1        0.1401
     15 F           5.3077   -3.2794   17.8465 F       1  UNL1       -0.2042
     16 C           4.0746   -1.0248   17.4644 C.ar    1  UNL1        0.0294
     17 C           3.0891    0.0103   17.9198 C.ar    1  UNL1        0.0003
     18 C          -0.6293    3.0353   24.2003 C.3     1  UNL1        0.1473
     19 O          -2.0594    3.3110   23.8416 O.3     1  UNL1       -0.3787
     20 H          -2.6376    2.9993   24.5554 H       1  UNL1        0.2108
     21 C          -0.2976    2.3703   25.5034 C.ar    1  UNL1        0.0086
     22 C          -1.2519    2.4630   26.6569 C.ar    1  UNL1       -0.0004
     23 C          -0.9203    1.7981   27.9599 C.ar    1  UNL1        0.0175
     24 C           0.3656    1.0405   28.1094 C.ar    1  UNL1        0.0848
     25 C           1.3199    0.9477   26.9558 C.ar    1  UNL1        0.1523
     26 C           0.9883    1.6127   25.6529 C.ar    1  UNL1        0.0363
     27 O           2.6059    0.1901   27.1053 O.3     1  UNL1       -0.4644
     28 C           2.9375   -0.4748   28.4083 C.3     1  UNL1        0.2897
     29 C           1.9832   -0.3822   29.5619 C.2     1  UNL1        0.2707
     30 O           2.3148   -1.0471   30.8649 O.2     1  UNL1       -0.2707
     31 N           0.6973    0.3755   29.4125 N.am    1  UNL1       -0.2785
     32 H           0.0709    0.4363   30.1696 H       1  UNL1        0.1551
@<TRIPOS>BOND
     1     1     2    1
     2     2    18    1
     3    18    19    1
     4    18    21    1
     5    21    22   ar
     6    22    23   ar
     7    23    24   ar
     8    24    25   ar
     9    25    26   ar
    10    25    27    1
    11    27    28    1
    12    28    29    1
    13    29    30    2
    14    29    31   am
    15     2     3    1
    16     3     4    1
    17     4     5    1
    18     5     6    1
    19     6     7    1
    20     6    11    1
    21    11    12   ar
    22    12    13   ar
    23    13    14   ar
    24    14    15    1
    25    14    16   ar
    26    16    17   ar
    27     6     8    1
    28     8     9    1
    29    26    21   ar
    30     9     3    1
    31    31    24    1
    32    17    11   ar
    33    19    20    1
    34    31    32    1
    35     7    10    1
@<TRIPOS>MOLECULE
*****
 32 35 0 0 0
SMALL
GASTEIGER

@<TRIPOS>ATOM
      1 C          -0.2539    5.3874   19.1923 C.3     1  UNL1        0.0203
      2 C          -0.8267    4.0512   18.8225 C.3     1  UNL1        0.0888
      3 N          -0.0736    2.7959   19.1495 N.3     1  UNL1       -0.2713
      4 C          -0.4465    1.9910   20.3590 C.3     1  UNL1        0.0749
      5 C           0.3067    0.7357   20.6860 C.3     1  UNL1        0.0485
      6 C           1.4328    0.2852   19.8034 C.3     1  UNL1        0.1096
      7 O           1.4535   -0.8080   20.8303 O.3     1  UNL1       -0.3826
      8 C           1.8058    1.0902   18.5938 C.3     1  UNL1        0.0485
      9 C           1.0526    2.3455   18.2668 C.3     1  UNL1        0.0749
     10 H           0.7585   -0.6473   21.4877 H       1  UNL1        0.2107
     11 C           2.5661   -0.5449   19.2774 C.ar    1  UNL1        0.0019
     12 C           3.1466   -1.6416   20.1201 C.ar    1  UNL1        0.0003
     13 C           4.2799   -2.4717   19.5942 C.ar    1  UNL1        0.0294
     14 C           4.8327   -2.2050   18.2254 C.ar    1  UNL1        0.1401
     15 F           5.9659   -3.0351   17.6995 F       1  UNL1       -0.2042
     16 C           4.2521   -1.1083   17.3827 C.ar    1  UNL1        0.0294
     17 C           3.1188   -0.2782   17.9087 C.ar    1  UNL1        0.0003
     18 C          -2.1526    3.9704   18.1259 C.3     1  UNL1        0.1473
     19 O          -2.2082    3.7990   16.6367 O.3     1  UNL1       -0.3787
     20 H          -3.1341    3.7655   16.3495 H       1  UNL1        0.2108
     21 C          -3.4231    4.0611   18.9183 C.ar    1  UNL1        0.0086
     22 C          -4.7445    4.1279   18.2118 C.ar    1  UNL1       -0.0004
     23 C          -6.0149    4.2186   19.0043 C.ar    1  UNL1        0.0175
     24 C          -5.9637    4.2425   20.5032 C.ar    1  UNL1        0.0848
     25 C          -4.6422    4.1757   21.2097 C.ar    1  UNL1        0.1523
     26 C          -3.3719    4.0850   20.4172 C.ar    1  UNL1        0.0363
     27 O          -4.5910    4.1996   22.7086 O.3     1  UNL1       -0.4644
     28 C          -5.8614    4.2903   23.5011 C.3     1  UNL1        0.2897
     29 C          -7.1829    4.3571   22.7946 C.2     1  UNL1        0.2707
     30 O          -8.4533    4.4478   23.5870 O.2     1  UNL1       -0.2707
     31 N          -7.2341    4.3332   21.2956 N.am    1  UNL1       -0.2785
     32 H          -8.1015    4.3770   20.8319 H       1  UNL1        0.1551
@<TRIPOS>BOND
     1     1     2    1
     2     2    18    1
     3    18    19    1
     4    18    21    1
     5    21    22   ar
     6    22    23   ar
     7    23    24   ar
     8    24    25   ar
     9    25    26   ar
    10    25    27    1
    11    27    28    1
    12    28    29    1
    13    29    30    2
    14    29    31   am
    15     2     3    1
    16     3     4    1
    17     4     5    1
    18     5     6    1
    19     6     7    1
    20     6    11    1
    21    11    12   ar
    22    12    13   ar
    23    13    14   ar
    24    14    15    1
    25    14    16   ar
    26    16    17   ar
    27     6     8    1
    28     8     9    1
    29    26    21   ar
    30     9     3    1
    31    31    24    1
    32    17    11   ar
    33    19    20    1
    34    31    32    1
    35     7    10    1
