@<TRIPOS>MOLECULE
*****
 28 30 0 0 0
SMALL
GASTEIGER

@<TRIPOS>ATOM
      1 C          -9.2865  -19.0250   20.8596 C.ar    1  UNL1        0.0564
      2 C         -10.6078  -19.7073   20.6634 C.ar    1  UNL1        0.0056
      3 C         -11.8119  -19.2445   21.4288 C.ar    1  UNL1        0.0146
      4 C         -11.6947  -18.0992   22.3904 C.ar    1  UNL1        0.0915
      5 CL        -12.8989  -17.6364   23.1558 Cl      1  UNL1       -0.0791
      6 C         -10.3734  -17.4169   22.5866 C.ar    1  UNL1        0.1489
      7 C          -9.1693  -17.8797   21.8212 C.ar    1  UNL1        0.0423
      8 N          -6.9057  -20.0644   20.8241 N.am    1  UNL1       -0.2943
      9 C          -8.0824  -19.4878   20.0941 C.2     1  UNL1        0.2463
     10 O          -8.0549  -19.3740   18.5987 O.2     1  UNL1       -0.2701
     11 H          -6.9237  -20.1391   21.8056 H       1  UNL1        0.1501
     12 C          -5.7015  -20.5273   20.0587 C.3     1  UNL1        0.1579
     13 C          -2.4592  -18.5228   20.7896 C.ar    1  UNL1        0.1000
     14 C          -3.8868  -18.5841   20.3333 C.ar    1  UNL1        0.0553
     15 C          -4.3399  -20.0114   20.4190 C.ar    1  UNL1        0.1738
     16 O          -3.1924  -20.8323   20.9282 O.2     1  UNL1       -0.3563
     17 N          -2.0300  -19.9123   21.1573 N.ar    1  UNL1       -0.0817
     18 C          -0.3368  -17.2050   20.0761 C.3     1  UNL1        0.0064
     19 C          -1.6099  -17.2887   20.8649 C.3     1  UNL1        0.0436
     20 C          -2.0336  -16.1382   21.7292 C.3     1  UNL1        0.0064
     21 O         -10.2562  -16.2716   23.5482 O.3     1  UNL1       -0.4782
     22 C          -8.9362  -15.9639   24.1908 C.3     1  UNL1        0.1687
     23 C          -7.7827  -15.5015   23.3507 C.3     1  UNL1        0.0609
     24 C          -6.4628  -15.1938   23.9933 C.3     1  UNL1        0.0758
     25 N          -6.2962  -15.3485   25.4759 N.3     1  UNL1       -0.2713
     26 C          -4.9762  -15.0408   26.1185 C.3     1  UNL1        0.0896
     27 C          -7.4496  -15.8109   26.3160 C.3     1  UNL1        0.0758
     28 C          -8.7697  -16.1186   25.6734 C.3     1  UNL1        0.0609
@<TRIPOS>BOND
     1    18    19    1
     2    19    20    1
     3    19    13    1
     4    13    14   ar
     5    14    15   ar
     6    15    12    1
     7    12     8    1
     8     8     9   am
     9     9    10    2
    10     9     1    1
    11     1     2   ar
    12     2     3   ar
    13     3     4   ar
    14     4     5    1
    15     4     6   ar
    16     6    21    1
    17    21    22    1
    18    22    23    1
    19    23    24    1
    20    24    25    1
    21    25    26    1
    22    25    27    1
    23    27    28    1
    24     6     7   ar
    25    15    16   ar
    26    16    17   ar
    27    17    13   ar
    28     7     1   ar
    29    28    22    1
    30     8    11    1
@<TRIPOS>MOLECULE
*****
 28 30 0 0 0
SMALL
GASTEIGER

@<TRIPOS>ATOM
      1 C           8.0947   -8.0686   27.2582 C.ar    1  UNL1        0.0564
      2 C           7.6356   -7.6572   25.8907 C.ar    1  UNL1        0.0056
      3 C           7.5842   -6.2041   25.5226 C.ar    1  UNL1        0.0146
      4 C           7.9918   -5.1623   26.5218 C.ar    1  UNL1        0.0915
      5 CL          7.9403   -3.7090   26.1536 Cl      1  UNL1       -0.0791
      6 C           8.4508   -5.5737   27.8893 C.ar    1  UNL1        0.1489
      7 C           8.5023   -7.0268   28.2575 C.ar    1  UNL1        0.0423
      8 N           6.8771  -10.3148   27.7298 N.am    1  UNL1       -0.2943
      9 C           8.1462   -9.5219   27.6265 C.2     1  UNL1        0.2463
     10 O           9.4667  -10.1821   27.8914 O.2     1  UNL1       -0.2701
     11 H           6.0104   -9.8814   27.5559 H       1  UNL1        0.1501
     12 C           6.9286  -11.7680   28.0980 C.3     1  UNL1        0.1579
     13 C           3.6114  -13.7788   27.9637 C.ar    1  UNL1        0.1000
     14 C           4.5104  -12.7771   28.6259 C.ar    1  UNL1        0.0553
     15 C           5.7584  -12.6586   27.8023 C.ar    1  UNL1        0.1738
     16 O           5.6307  -13.5869   26.6310 O.2     1  UNL1       -0.3563
     17 N           4.3038  -14.2792   26.7307 N.ar    1  UNL1       -0.0817
     18 C           1.2885  -13.1818   28.9628 C.3     1  UNL1        0.0064
     19 C           2.2576  -14.2051   28.4491 C.3     1  UNL1        0.0436
     20 C           1.8730  -15.6546   28.4210 C.3     1  UNL1        0.0064
     21 O           8.8584   -4.5319   28.8885 O.3     1  UNL1       -0.4782
     22 C           7.8538   -3.9949   29.8644 C.3     1  UNL1        0.1687
     23 C           7.6187   -4.7038   31.1653 C.3     1  UNL1        0.0609
     24 C           6.6141   -4.1668   32.1411 C.3     1  UNL1        0.0758
     25 N           5.8444   -2.9210   31.8161 N.3     1  UNL1       -0.2713
     26 C           4.8397   -2.3841   32.7920 C.3     1  UNL1        0.0896
     27 C           6.0794   -2.2122   30.5153 C.3     1  UNL1        0.0758
     28 C           7.0841   -2.7491   29.5393 C.3     1  UNL1        0.0609
@<TRIPOS>BOND
     1    18    19    1
     2    19    20    1
     3    19    13    1
     4    13    14   ar
     5    14    15   ar
     6    15    12    1
     7    12     8    1
     8     8     9   am
     9     9    10    2
    10     9     1    1
    11     1     2   ar
    12     2     3   ar
    13     3     4   ar
    14     4     5    1
    15     4     6   ar
    16     6    21    1
    17    21    22    1
    18    22    23    1
    19    23    24    1
    20    24    25    1
    21    25    26    1
    22    25    27    1
    23    27    28    1
    24     6     7   ar
    25    15    16   ar
    26    16    17   ar
    27    17    13   ar
    28     7     1   ar
    29    28    22    1
    30     8    11    1
@<TRIPOS>MOLECULE
*****
 28 30 0 0 0
SMALL
GASTEIGER

@<TRIPOS>ATOM
      1 C         -13.0377   -7.3810   18.0832 C.ar    1  UNL1        0.0564
      2 C         -11.6461   -7.6450   17.5895 C.ar    1  UNL1        0.0056
      3 C         -10.5319   -6.7078   17.9505 C.ar    1  UNL1        0.0146
      4 C         -10.8094   -5.5067   18.8051 C.ar    1  UNL1        0.0915
      5 CL         -9.6951   -4.5695   19.1660 Cl      1  UNL1       -0.0791
      6 C         -12.2010   -5.2428   19.2988 C.ar    1  UNL1        0.1489
      7 C         -13.3151   -6.1799   18.9378 C.ar    1  UNL1        0.0423
      8 N         -14.4817   -9.4728   18.6212 N.am    1  UNL1       -0.2943
      9 C         -14.1519   -8.3182   17.7223 C.2     1  UNL1        0.2463
     10 O         -14.9363   -8.1008   16.4624 O.2     1  UNL1       -0.2701
     11 H         -13.9668   -9.6155   19.4482 H       1  UNL1        0.1501
     12 C         -15.5959  -10.4100   18.2603 C.3     1  UNL1        0.1579
     13 C         -18.9821   -8.9234   19.4388 C.ar    1  UNL1        0.1000
     14 C         -17.4857   -8.9950   19.5138 C.ar    1  UNL1        0.0553
     15 C         -17.0201  -10.0171   18.5195 C.ar    1  UNL1        0.1738
     16 O         -18.2287  -10.5772   17.8300 O.2     1  UNL1       -0.3563
     17 N         -19.4413   -9.9013   18.3981 N.ar    1  UNL1       -0.0817
     18 C         -20.1523   -6.6322   19.8007 C.3     1  UNL1        0.0064
     19 C         -19.8643   -8.0308   20.2602 C.3     1  UNL1        0.0436
     20 C         -20.4587   -8.5366   21.5412 C.3     1  UNL1        0.0064
     21 O         -12.4784   -4.0417   20.1534 O.3     1  UNL1       -0.4782
     22 C         -12.8825   -2.7452   19.5165 C.3     1  UNL1        0.1687
     23 C         -14.3329   -2.3726   19.4286 C.3     1  UNL1        0.0609
     24 C         -14.7370   -1.0761   18.7917 C.3     1  UNL1        0.0758
     25 N         -13.6907   -0.1521   18.2425 N.3     1  UNL1       -0.2713
     26 C         -14.0949    1.1445   17.6056 C.3     1  UNL1        0.0896
     27 C         -12.2404   -0.5245   18.3304 C.3     1  UNL1        0.0758
     28 C         -11.8363   -1.8211   18.9673 C.3     1  UNL1        0.0609
@<TRIPOS>BOND
     1    18    19    1
     2    19    20    1
     3    19    13    1
     4    13    14   ar
     5    14    15   ar
     6    15    12    1
     7    12     8    1
     8     8     9   am
     9     9    10    2
    10     9     1    1
    11     1     2   ar
    12     2     3   ar
    13     3     4   ar
    14     4     5    1
    15     4     6   ar
    16     6    21    1
    17    21    22    1
    18    22    23    1
    19    23    24    1
    20    24    25    1
    21    25    26    1
    22    25    27    1
    23    27    28    1
    24     6     7   ar
    25    15    16   ar
    26    16    17   ar
    27    17    13   ar
    28     7     1   ar
    29    28    22    1
    30     8    11    1
@<TRIPOS>MOLECULE
*****
 28 30 0 0 0
SMALL
GASTEIGER

@<TRIPOS>ATOM
      1 C           7.7519   -6.7530   26.8803 C.ar    1  UNL1        0.0564
      2 C           6.9937   -6.1368   28.0184 C.ar    1  UNL1        0.0056
      3 C           6.5338   -4.7119   27.9290 C.ar    1  UNL1        0.0146
      4 C           6.8321   -3.9031   26.7015 C.ar    1  UNL1        0.0915
      5 CL          6.3722   -2.4781   26.6121 Cl      1  UNL1       -0.0791
      6 C           7.5903   -4.5193   25.5633 C.ar    1  UNL1        0.1489
      7 C           8.0502   -5.9442   25.6527 C.ar    1  UNL1        0.0423
      8 N           7.3785   -9.1908   27.6976 N.am    1  UNL1       -0.2943
      9 C           8.2118   -8.1780   26.9697 C.2     1  UNL1        0.2463
     10 O           9.5049   -8.5902   26.3310 O.2     1  UNL1       -0.2701
     11 H           6.5298   -8.9202   28.1168 H       1  UNL1        0.1501
     12 C           7.8385  -10.6158   27.7870 C.3     1  UNL1        0.1579
     13 C           4.8207  -12.9428   28.5238 C.ar    1  UNL1        0.1000
     14 C           5.3888  -11.6693   27.9712 C.ar    1  UNL1        0.0553
     15 C           6.8730  -11.6918   28.1869 C.ar    1  UNL1        0.1738
     16 O           7.2222  -12.9793   28.8728 O.2     1  UNL1       -0.3563
     17 N           5.9538  -13.7525   29.0810 N.ar    1  UNL1       -0.0817
     18 C           2.4213  -12.7060   29.4917 C.3     1  UNL1        0.0064
     19 C           3.3735  -13.3374   28.5198 C.3     1  UNL1        0.0436
     20 C           2.8786  -14.3635   27.5440 C.3     1  UNL1        0.0064
     21 O           7.8886   -3.7106   24.3357 O.3     1  UNL1       -0.4782
     22 C           7.0024   -3.8217   23.1307 C.3     1  UNL1        0.1687
     23 C           5.5148   -3.6997   23.2799 C.3     1  UNL1        0.0609
     24 C           4.6285   -3.8109   22.0748 C.3     1  UNL1        0.0758
     25 N           5.2299   -4.0441   20.7205 N.3     1  UNL1       -0.2713
     26 C           4.3435   -4.1552   19.5154 C.3     1  UNL1        0.0896
     27 C           6.7174   -4.1661   20.5713 C.3     1  UNL1        0.0758
     28 C           7.6037   -4.0549   21.7764 C.3     1  UNL1        0.0609
@<TRIPOS>BOND
     1    18    19    1
     2    19    20    1
     3    19    13    1
     4    13    14   ar
     5    14    15   ar
     6    15    12    1
     7    12     8    1
     8     8     9   am
     9     9    10    2
    10     9     1    1
    11     1     2   ar
    12     2     3   ar
    13     3     4   ar
    14     4     5    1
    15     4     6   ar
    16     6    21    1
    17    21    22    1
    18    22    23    1
    19    23    24    1
    20    24    25    1
    21    25    26    1
    22    25    27    1
    23    27    28    1
    24     6     7   ar
    25    15    16   ar
    26    16    17   ar
    27    17    13   ar
    28     7     1   ar
    29    28    22    1
    30     8    11    1
@<TRIPOS>MOLECULE
*****
 28 30 0 0 0
SMALL
GASTEIGER

@<TRIPOS>ATOM
      1 C          -7.8398  -19.4876   20.8388 C.ar    1  UNL1        0.0564
      2 C          -8.5044  -19.6727   19.5070 C.ar    1  UNL1        0.0056
      3 C          -9.8603  -19.0821   19.2569 C.ar    1  UNL1        0.0146
      4 C         -10.5517  -18.3064   20.3387 C.ar    1  UNL1        0.0915
      5 CL        -11.9077  -17.7158   20.0886 Cl      1  UNL1       -0.0791
      6 C          -9.8870  -18.1213   21.6706 C.ar    1  UNL1        0.1489
      7 C          -8.5311  -18.7119   21.9207 C.ar    1  UNL1        0.0423
      8 N          -5.6674  -19.6134   22.2583 N.am    1  UNL1       -0.2943
      9 C          -6.4838  -20.0782   21.0890 C.2     1  UNL1        0.2463
     10 O          -5.9442  -21.1335   20.1697 O.2     1  UNL1       -0.2701
     11 H          -6.0215  -18.9208   22.8617 H       1  UNL1        0.1501
     12 C          -4.3113  -20.2040   22.5084 C.3     1  UNL1        0.1579
     13 C          -1.7203  -18.5753   20.1212 C.ar    1  UNL1        0.1000
     14 C          -3.0426  -18.5563   20.8291 C.ar    1  UNL1        0.0553
     15 C          -3.1512  -19.8122   21.6421 C.ar    1  UNL1        0.1738
     16 O          -1.8960  -20.6073   21.4367 O.2     1  UNL1       -0.3563
     17 N          -1.0116  -19.8430   20.4967 N.ar    1  UNL1       -0.0817
     18 C          -1.8371  -17.3034   17.8588 C.3     1  UNL1        0.0064
     19 C          -1.1983  -17.5132   19.1996 C.3     1  UNL1        0.0436
     20 C          -0.0374  -16.6608   19.6189 C.3     1  UNL1        0.0064
     21 O         -10.5784  -17.3456   22.7524 O.3     1  UNL1       -0.4782
     22 C          -9.8320  -16.9655   23.9968 C.3     1  UNL1        0.1687
     23 C          -9.1039  -15.6557   24.0641 C.3     1  UNL1        0.0609
     24 C          -8.3576  -15.2755   25.3084 C.3     1  UNL1        0.0758
     25 N          -8.3392  -16.2052   26.4854 N.3     1  UNL1       -0.2713
     26 C          -7.5927  -15.8250   27.7298 C.3     1  UNL1        0.0896
     27 C          -9.0671  -17.5149   26.4182 C.3     1  UNL1        0.0758
     28 C          -9.8136  -17.8951   25.1738 C.3     1  UNL1        0.0609
@<TRIPOS>BOND
     1    18    19    1
     2    19    20    1
     3    19    13    1
     4    13    14   ar
     5    14    15   ar
     6    15    12    1
     7    12     8    1
     8     8     9   am
     9     9    10    2
    10     9     1    1
    11     1     2   ar
    12     2     3   ar
    13     3     4   ar
    14     4     5    1
    15     4     6   ar
    16     6    21    1
    17    21    22    1
    18    22    23    1
    19    23    24    1
    20    24    25    1
    21    25    26    1
    22    25    27    1
    23    27    28    1
    24     6     7   ar
    25    15    16   ar
    26    16    17   ar
    27    17    13   ar
    28     7     1   ar
    29    28    22    1
    30     8    11    1
@<TRIPOS>MOLECULE
*****
 28 30 0 0 0
SMALL
GASTEIGER

@<TRIPOS>ATOM
      1 C          -8.3378  -16.1535   24.6983 C.ar    1  UNL1        0.0564
      2 C          -8.4543  -15.7809   26.1466 C.ar    1  UNL1        0.0056
      3 C          -7.2808  -15.1819   26.8635 C.ar    1  UNL1        0.0146
      4 C          -5.9909  -14.9554   26.1322 C.ar    1  UNL1        0.0915
      5 CL         -4.8174  -14.3564   26.8492 Cl      1  UNL1       -0.0791
      6 C          -5.8745  -15.3280   24.6839 C.ar    1  UNL1        0.1489
      7 C          -7.0479  -15.9271   23.9670 C.ar    1  UNL1        0.0423
      8 N         -10.2214  -15.9676   22.9185 N.am    1  UNL1       -0.2943
      9 C          -9.5114  -16.7526   23.9813 C.2     1  UNL1        0.2463
     10 O          -9.9747  -18.1367   24.3271 O.2     1  UNL1       -0.2701
     11 H          -9.9173  -15.0592   22.6916 H       1  UNL1        0.1501
     12 C         -11.3950  -16.5667   22.2015 C.3     1  UNL1        0.1579
     13 C         -10.1230  -19.1307   19.5799 C.ar    1  UNL1        0.1000
     14 C          -9.8971  -18.2701   20.7875 C.ar    1  UNL1        0.0553
     15 C         -11.1727  -17.5369   21.0794 C.ar    1  UNL1        0.1738
     16 O         -12.1871  -17.9445   20.0523 O.2     1  UNL1       -0.3563
     17 N         -11.5384  -18.9295   19.1255 N.ar    1  UNL1       -0.0817
     18 C          -9.5161  -20.9285   17.8052 C.3     1  UNL1        0.0064
     19 C          -9.1113  -20.0340   18.9392 C.3     1  UNL1        0.0436
     20 C          -7.6948  -20.0428   19.4325 C.3     1  UNL1        0.0064
     21 O          -4.5845  -15.1016   23.9526 O.3     1  UNL1       -0.4782
     22 C          -3.9458  -16.2261   23.1928 C.3     1  UNL1        0.1687
     23 C          -4.4058  -17.6368   23.4132 C.3     1  UNL1        0.0609
     24 C          -3.7670  -18.7613   22.6533 C.3     1  UNL1        0.0758
     25 N          -2.6682  -18.4752   21.6731 N.3     1  UNL1       -0.2713
     26 C          -2.0294  -19.5998   20.9133 C.3     1  UNL1        0.0896
     27 C          -2.2082  -17.0647   21.4527 C.3     1  UNL1        0.0758
     28 C          -2.8470  -15.9400   22.2125 C.3     1  UNL1        0.0609
@<TRIPOS>BOND
     1    18    19    1
     2    19    20    1
     3    19    13    1
     4    13    14   ar
     5    14    15   ar
     6    15    12    1
     7    12     8    1
     8     8     9   am
     9     9    10    2
    10     9     1    1
    11     1     2   ar
    12     2     3   ar
    13     3     4   ar
    14     4     5    1
    15     4     6   ar
    16     6    21    1
    17    21    22    1
    18    22    23    1
    19    23    24    1
    20    24    25    1
    21    25    26    1
    22    25    27    1
    23    27    28    1
    24     6     7   ar
    25    15    16   ar
    26    16    17   ar
    27    17    13   ar
    28     7     1   ar
    29    28    22    1
    30     8    11    1
@<TRIPOS>MOLECULE
*****
 28 30 0 0 0
SMALL
GASTEIGER

@<TRIPOS>ATOM
      1 C           7.8614   -4.8919   23.8894 C.ar    1  UNL1        0.0564
      2 C           8.5406   -6.1845   23.5464 C.ar    1  UNL1        0.0056
      3 C           8.4081   -7.3668   24.4599 C.ar    1  UNL1        0.0146
      4 C           7.5963   -7.2565   25.7164 C.ar    1  UNL1        0.0915
      5 CL          7.4637   -8.4389   26.6299 Cl      1  UNL1       -0.0791
      6 C           6.9170   -5.9639   26.0594 C.ar    1  UNL1        0.1489
      7 C           7.0496   -4.7815   25.1459 C.ar    1  UNL1        0.0423
      8 N           8.6850   -3.8576   21.6528 N.am    1  UNL1       -0.2943
      9 C           7.9939   -3.7095   22.9759 C.2     1  UNL1        0.2463
     10 O           7.4354   -2.3789   23.3854 O.2     1  UNL1       -0.2701
     11 H           9.0516   -4.7309   21.3840 H       1  UNL1        0.1501
     12 C           8.8175   -2.6752   20.7393 C.3     1  UNL1        0.1579
     13 C           5.6776   -1.9245   18.5847 C.ar    1  UNL1        0.1000
     14 C           6.3416   -2.0902   19.9195 C.ar    1  UNL1        0.0553
     15 C           7.7841   -2.4253   19.6813 C.ar    1  UNL1        0.1738
     16 O           8.0117   -2.4666   18.1992 O.2     1  UNL1       -0.3563
     17 N           6.7099   -2.1571   17.5215 N.ar    1  UNL1       -0.0817
     18 C           3.2139   -1.8929   19.4088 C.3     1  UNL1        0.0064
     19 C           4.2348   -1.5856   18.3537 C.3     1  UNL1        0.0436
     20 C           3.8128   -0.9393   17.0675 C.3     1  UNL1        0.0064
     21 O           6.1053   -5.8535   27.3159 O.3     1  UNL1       -0.4782
     22 C           6.6779   -5.1683   28.5210 C.3     1  UNL1        0.1687
     23 C           6.5136   -3.6869   28.6902 C.3     1  UNL1        0.0609
     24 C           7.0863   -3.0016   29.8954 C.3     1  UNL1        0.0758
     25 N           7.8232   -3.7976   30.9314 N.3     1  UNL1       -0.2713
     26 C           8.3959   -3.1123   32.1366 C.3     1  UNL1        0.0896
     27 C           7.9875   -5.2789   30.7622 C.3     1  UNL1        0.0758
     28 C           7.4148   -5.9643   29.5570 C.3     1  UNL1        0.0609
@<TRIPOS>BOND
     1    18    19    1
     2    19    20    1
     3    19    13    1
     4    13    14   ar
     5    14    15   ar
     6    15    12    1
     7    12     8    1
     8     8     9   am
     9     9    10    2
    10     9     1    1
    11     1     2   ar
    12     2     3   ar
    13     3     4   ar
    14     4     5    1
    15     4     6   ar
    16     6    21    1
    17    21    22    1
    18    22    23    1
    19    23    24    1
    20    24    25    1
    21    25    26    1
    22    25    27    1
    23    27    28    1
    24     6     7   ar
    25    15    16   ar
    26    16    17   ar
    27    17    13   ar
    28     7     1   ar
    29    28    22    1
    30     8    11    1
@<TRIPOS>MOLECULE
*****
 28 30 0 0 0
SMALL
GASTEIGER

@<TRIPOS>ATOM
      1 C         -11.3236   -3.6634   17.5035 C.ar    1  UNL1        0.0564
      2 C         -10.0703   -3.7301   18.3249 C.ar    1  UNL1        0.0056
      3 C          -9.5846   -5.0501   18.8461 C.ar    1  UNL1        0.0146
      4 C         -10.3523   -6.3033   18.5460 C.ar    1  UNL1        0.0915
      5 CL         -9.8666   -7.6233   19.0673 Cl      1  UNL1       -0.0791
      6 C         -11.6056   -6.2366   17.7247 C.ar    1  UNL1        0.1489
      7 C         -12.0913   -4.9166   17.2034 C.ar    1  UNL1        0.0423
      8 N         -11.1765   -1.0698   17.4592 N.am    1  UNL1       -0.2943
      9 C         -11.8094   -2.3433   16.9822 C.2     1  UNL1        0.2463
     10 O         -12.9279   -2.2969   15.9839 O.2     1  UNL1       -0.2701
     11 H         -10.4424   -1.1003   18.1145 H       1  UNL1        0.1501
     12 C         -11.6622    0.2502   16.9379 C.3     1  UNL1        0.1579
     13 C         -14.8123    1.3605   18.9152 C.ar    1  UNL1        0.1000
     14 C         -13.8708    0.2925   18.4430 C.ar    1  UNL1        0.0553
     15 C         -12.8083    0.9463   17.6102 C.ar    1  UNL1        0.1738
     16 O         -13.0931    2.4184   17.5678 O.2     1  UNL1       -0.3563
     17 N         -14.3316    2.6744   18.3743 N.ar    1  UNL1       -0.0817
     18 C         -16.8319    2.3292   20.2316 C.3     1  UNL1        0.0064
     19 C         -16.0220    1.1513   19.7771 C.3     1  UNL1        0.0436
     20 C         -16.4219   -0.2358   20.1844 C.3     1  UNL1        0.0064
     21 O         -12.3733   -7.4898   17.4246 O.3     1  UNL1       -0.4782
     22 C         -13.7022   -7.7299   18.0776 C.3     1  UNL1        0.1687
     23 C         -14.4186   -9.0304   17.8645 C.3     1  UNL1        0.0609
     24 C         -15.7475   -9.2705   18.5174 C.3     1  UNL1        0.0758
     25 N         -16.3600   -8.2100   19.3836 N.3     1  UNL1       -0.2713
     26 C         -17.6890   -8.4500   20.0365 C.3     1  UNL1        0.0896
     27 C         -15.6437   -6.9094   19.5967 C.3     1  UNL1        0.0758
     28 C         -14.3147   -6.6694   18.9437 C.3     1  UNL1        0.0609
@<TRIPOS>BOND
     1    18    19    1
     2    19    20    1
     3    19    13    1
     4    13    14   ar
     5    14    15   ar
     6    15    12    1
     7    12     8    1
     8     8     9   am
     9     9    10    2
    10     9     1    1
    11     1     2   ar
    12     2     3   ar
    13     3     4   ar
    14     4     5    1
    15     4     6   ar
    16     6    21    1
    17    21    22    1
    18    22    23    1
    19    23    24    1
    20    24    25    1
    21    25    26    1
    22    25    27    1
    23    27    28    1
    24     6     7   ar
    25    15    16   ar
    26    16    17   ar
    27    17    13   ar
    28     7     1   ar
    29    28    22    1
    30     8    11    1
@<TRIPOS>MOLECULE
*****
 28 30 0 0 0
SMALL
GASTEIGER

@<TRIPOS>ATOM
      1 C           1.7492    0.8360   20.3853 C.ar    1  UNL1        0.0564
      2 C           2.3019    1.5568   19.1916 C.ar    1  UNL1        0.0056
      3 C           3.1407    0.8179   18.1915 C.ar    1  UNL1        0.0146
      4 C           3.4268   -0.6418   18.3849 C.ar    1  UNL1        0.0915
      5 CL          4.2656   -1.3807   17.3847 Cl      1  UNL1       -0.0791
      6 C           2.8740   -1.3627   19.5786 C.ar    1  UNL1        0.1489
      7 C           2.0352   -0.6238   20.5788 C.ar    1  UNL1        0.0423
      8 N           0.2857    2.8877   21.0166 N.am    1  UNL1       -0.2943
      9 C           0.9103    1.5749   21.3855 C.2     1  UNL1        0.2463
     10 O           0.6962    1.0008   22.7547 O.2     1  UNL1       -0.2701
     11 H           0.4262    3.2644   20.1180 H       1  UNL1        0.1501
     12 C          -0.5532    3.6266   22.0169 C.3     1  UNL1        0.1579
     13 C          -4.3850    3.6076   22.6348 C.ar    1  UNL1        0.1000
     14 C          -2.9933    3.9858   23.0472 C.ar    1  UNL1        0.0553
     15 C          -2.0451    3.4718   22.0048 C.ar    1  UNL1        0.1738
     16 O          -2.8508    2.7759   20.9481 O.2     1  UNL1       -0.3563
     17 N          -4.2969    2.8598   21.3375 N.ar    1  UNL1       -0.0817
     18 C          -6.9261    4.1485   22.6432 C.3     1  UNL1        0.0064
     19 C          -5.6438    3.9219   23.3876 C.3     1  UNL1        0.0436
     20 C          -5.6202    4.0097   24.8849 C.3     1  UNL1        0.0064
     21 O           3.1600   -2.8224   19.7721 O.3     1  UNL1       -0.4782
     22 C           4.3693   -3.2533   20.5479 C.3     1  UNL1        0.1687
     23 C           5.6320   -3.6203   19.8260 C.3     1  UNL1        0.0609
     24 C           6.8413   -4.0512   20.6018 C.3     1  UNL1        0.0758
     25 N           6.7879   -4.1152   22.0995 N.3     1  UNL1       -0.2713
     26 C           7.9973   -4.5461   22.8753 C.3     1  UNL1        0.0896
     27 C           5.5253   -3.7482   22.8214 C.3     1  UNL1        0.0758
     28 C           4.3160   -3.3173   22.0456 C.3     1  UNL1        0.0609
@<TRIPOS>BOND
     1    18    19    1
     2    19    20    1
     3    19    13    1
     4    13    14   ar
     5    14    15   ar
     6    15    12    1
     7    12     8    1
     8     8     9   am
     9     9    10    2
    10     9     1    1
    11     1     2   ar
    12     2     3   ar
    13     3     4   ar
    14     4     5    1
    15     4     6   ar
    16     6    21    1
    17    21    22    1
    18    22    23    1
    19    23    24    1
    20    24    25    1
    21    25    26    1
    22    25    27    1
    23    27    28    1
    24     6     7   ar
    25    15    16   ar
    26    16    17   ar
    27    17    13   ar
    28     7     1   ar
    29    28    22    1
    30     8    11    1
