@<TRIPOS>MOLECULE
*****
 41 45 0 0 0
SMALL
GASTEIGER

@<TRIPOS>ATOM
      1 C           3.6221    0.6542   23.6071 C.ar    1  UNL1        0.0088
      2 S           2.4733    1.5811   23.3406 S.2     1  UNL1       -0.0722
      3 C           1.7980    1.1316   22.0789 C.ar    1  UNL1        0.1166
      4 N           0.6116    1.6636   21.3311 N.ar    1  UNL1       -0.2172
      5 C           0.1566    0.9909   20.0700 C.ar    1  UNL1        0.2020
      6 N           0.8881   -0.2138   19.5567 N.ar    1  UNL1       -0.1893
      7 C           2.0745   -0.7458   20.3044 C.ar    1  UNL1        0.2284
      8 C           2.5295   -0.0731   21.5656 C.ar    1  UNL1        0.0772
      9 C           3.6569   -0.3682   22.5100 C.ar    1  UNL1        0.0082
     10 C           4.6454   -1.4889   22.3802 C.ar    1  UNL1       -0.0026
     11 C           4.3255   -2.8405   22.9463 C.ar    1  UNL1        0.0029
     12 C           5.3140   -3.9612   22.8164 C.ar    1  UNL1        0.0378
     13 C           6.6226   -3.7302   22.1205 C.ar    1  UNL1        0.1487
     14 C           6.9426   -2.3785   21.5544 C.ar    1  UNL1        0.0876
     15 CL          8.2510   -2.1474   20.8584 Cl      1  UNL1       -0.0794
     16 C           5.9540   -1.2578   21.6842 C.ar    1  UNL1       -0.0083
     17 C           6.2740    0.0939   21.1181 C.3     1  UNL1        0.0320
     18 O           7.6111   -4.8509   21.9906 O.3     1  UNL1       -0.4731
     19 C           8.4780   -5.2252   23.1562 C.3     1  UNL1        0.2227
     20 C           8.1205   -6.4073   24.0075 C.3     1  UNL1        0.1201
     21 N           7.8189   -6.2183   25.4647 N.3     1  UNL1       -0.2672
     22 C           6.9753   -5.0614   25.9121 C.3     1  UNL1        0.0898
     23 C           6.6736   -4.8724   27.3692 C.3     1  UNL1        0.0897
     24 N           7.2156   -5.8402   28.3790 N.3     1  UNL1       -0.2691
     25 C           6.9140   -5.6512   29.8361 C.3     1  UNL1        0.0897
     26 C           8.0592   -6.9970   27.9316 C.3     1  UNL1        0.0897
     27 C           8.3608   -7.1861   26.4745 C.3     1  UNL1        0.0898
     28 C           4.5038   -0.2871   25.8624 C.3     1  UNL1        0.0056
     29 C           4.5698    0.7354   24.7670 C.3     1  UNL1        0.0330
     30 O           2.8060   -1.9506   19.7911 O.3     1  UNL1       -0.4578
     31 C           3.7716   -1.8125   18.6516 C.3     1  UNL1        0.2078
     32 C           4.8722   -2.8164   18.4753 C.2     1  UNL1        0.0903
     33 O           6.0083   -2.5272   17.5395 O.co2   1  UNL1       -0.5455
     34 O           4.8368   -4.1094   19.2348 O.co2   1  UNL1       -0.5455
     35 C           3.6367   -0.6707   17.6883 C.3     1  UNL1        0.0758
     36 C           4.4096    0.5952   17.9127 C.ar    1  UNL1       -0.0182
     37 C           5.8546    0.6717   17.5178 C.ar    1  UNL1       -0.0041
     38 C           6.6275    1.9376   17.7422 C.ar    1  UNL1       -0.0003
     39 C           5.9552    3.1269   18.3615 C.ar    1  UNL1       -0.0000
     40 C           4.5101    3.0504   18.7564 C.ar    1  UNL1       -0.0003
     41 C           3.7373    1.7846   18.5320 C.ar    1  UNL1       -0.0041
@<TRIPOS>UNITY_ATOM_ATTR
33 1
charge -1
@<TRIPOS>BOND
     1    28    29    1
     2    29     1    1
     3     1     2   ar
     4     2     3   ar
     5     3     4   ar
     6     4     5   ar
     7     5     6   ar
     8     6     7   ar
     9     7    30    1
    10    30    31    1
    11    31    35    1
    12    35    36    1
    13    36    37   ar
    14    37    38   ar
    15    38    39   ar
    16    39    40   ar
    17    40    41   ar
    18    31    32    1
    19    32    33   ar
    20    32    34   ar
    21     7     8   ar
    22     8     9   ar
    23     9    10    1
    24    10    11   ar
    25    11    12   ar
    26    12    13   ar
    27    13    18    1
    28    18    19    1
    29    19    20    1
    30    20    21    1
    31    21    22    1
    32    22    23    1
    33    23    24    1
    34    24    25    1
    35    24    26    1
    36    26    27    1
    37    13    14   ar
    38    14    15    1
    39    14    16   ar
    40    16    17    1
    41     9     1   ar
    42    16    10   ar
    43     8     3   ar
    44    27    21    1
    45    41    36   ar
@<TRIPOS>MOLECULE
*****
 41 45 0 0 0
SMALL
GASTEIGER

@<TRIPOS>ATOM
      1 C           8.8773    0.6841   20.9519 C.ar    1  UNL1        0.0088
      2 S           8.8472    1.7641   19.9114 S.2     1  UNL1       -0.0722
      3 C           8.0986    1.2408   18.7215 C.ar    1  UNL1        0.1166
      4 N           7.7550    1.8609   17.3997 N.ar    1  UNL1       -0.2172
      5 C           6.9786    1.0776   16.3830 C.ar    1  UNL1        0.2020
      6 N           6.5459   -0.3258   16.6882 N.ar    1  UNL1       -0.1893
      7 C           6.8895   -0.9460   18.0100 C.ar    1  UNL1        0.2284
      8 C           7.6658   -0.1627   19.0267 C.ar    1  UNL1        0.0772
      9 C           8.1471   -0.5067   20.4051 C.ar    1  UNL1        0.0082
     10 C           7.9354   -1.8124   21.1126 C.ar    1  UNL1       -0.0026
     11 C           8.8952   -2.9451   20.8996 C.ar    1  UNL1        0.0029
     12 C           8.6835   -4.2508   21.6070 C.ar    1  UNL1        0.0378
     13 C           7.5118   -4.4236   22.5275 C.ar    1  UNL1        0.1487
     14 C           6.5519   -3.2909   22.7405 C.ar    1  UNL1        0.0876
     15 CL          5.3802   -3.4637   23.6610 Cl      1  UNL1       -0.0794
     16 C           6.7636   -1.9852   22.0331 C.ar    1  UNL1       -0.0083
     17 C           5.8037   -0.8525   22.2462 C.3     1  UNL1        0.0320
     18 O           7.3001   -5.7293   23.2349 O.3     1  UNL1       -0.4731
     19 C           8.3512   -6.2570   24.1659 C.3     1  UNL1        0.2227
     20 C           7.9823   -7.2502   25.2277 C.3     1  UNL1        0.1201
     21 N           7.7302   -6.7877   26.6322 N.3     1  UNL1       -0.2672
     22 C           6.6014   -5.8424   26.9193 C.3     1  UNL1        0.0898
     23 C           6.3493   -5.3799   28.3237 C.3     1  UNL1        0.0897
     24 N           7.2259   -5.8627   29.4411 N.3     1  UNL1       -0.2691
     25 C           6.9738   -5.4002   30.8455 C.3     1  UNL1        0.0897
     26 C           8.3546   -6.8080   29.1540 C.3     1  UNL1        0.0897
     27 C           8.6068   -7.2705   27.7495 C.3     1  UNL1        0.0898
     28 C           8.7781    1.3923   23.4496 C.3     1  UNL1        0.0056
     29 C           9.5239    0.7783   22.3021 C.3     1  UNL1        0.0330
     30 O           6.4568   -2.3494   18.3152 O.3     1  UNL1       -0.4578
     31 C           5.0083   -2.6507   18.5621 C.3     1  UNL1        0.2078
     32 C           4.6023   -3.9899   19.1024 C.2     1  UNL1        0.0903
     33 O           3.1757   -4.4409   18.9947 O.co2   1  UNL1       -0.5455
     34 O           5.6228   -4.8780   19.7502 O.co2   1  UNL1       -0.5455
     35 C           3.9658   -1.6129   18.2688 C.3     1  UNL1        0.0758
     36 C           3.5070   -0.6833   19.3530 C.ar    1  UNL1       -0.0182
     37 C           3.9985    0.7335   19.3838 C.ar    1  UNL1       -0.0041
     38 C           3.5397    1.6631   20.4680 C.ar    1  UNL1       -0.0003
     39 C           2.5895    1.1758   21.5214 C.ar    1  UNL1       -0.0000
     40 C           2.0980   -0.2411   21.4905 C.ar    1  UNL1       -0.0003
     41 C           2.5567   -1.1706   20.4063 C.ar    1  UNL1       -0.0041
@<TRIPOS>UNITY_ATOM_ATTR
33 1
charge -1
@<TRIPOS>BOND
     1    28    29    1
     2    29     1    1
     3     1     2   ar
     4     2     3   ar
     5     3     4   ar
     6     4     5   ar
     7     5     6   ar
     8     6     7   ar
     9     7    30    1
    10    30    31    1
    11    31    35    1
    12    35    36    1
    13    36    37   ar
    14    37    38   ar
    15    38    39   ar
    16    39    40   ar
    17    40    41   ar
    18    31    32    1
    19    32    33   ar
    20    32    34   ar
    21     7     8   ar
    22     8     9   ar
    23     9    10    1
    24    10    11   ar
    25    11    12   ar
    26    12    13   ar
    27    13    18    1
    28    18    19    1
    29    19    20    1
    30    20    21    1
    31    21    22    1
    32    22    23    1
    33    23    24    1
    34    24    25    1
    35    24    26    1
    36    26    27    1
    37    13    14   ar
    38    14    15    1
    39    14    16   ar
    40    16    17    1
    41     9     1   ar
    42    16    10   ar
    43     8     3   ar
    44    27    21    1
    45    41    36   ar
@<TRIPOS>MOLECULE
*****
 41 45 0 0 0
SMALL
GASTEIGER

@<TRIPOS>ATOM
      1 C           4.0004   -3.0528   20.6731 C.ar    1  UNL1        0.0088
      2 S           4.7584   -3.7738   21.7481 S.2     1  UNL1       -0.0722
      3 C           4.8738   -2.8561   22.9291 C.ar    1  UNL1        0.1166
      4 N           5.5154   -3.0271   24.2741 N.ar    1  UNL1       -0.2172
      5 C           5.4704   -1.9098   25.2739 C.ar    1  UNL1        0.2020
      6 N           4.7837   -0.6216   24.9287 N.ar    1  UNL1       -0.1893
      7 C           4.1421   -0.4507   23.5837 C.ar    1  UNL1        0.2284
      8 C           4.1871   -1.5679   22.5839 C.ar    1  UNL1        0.0772
      9 C           3.6474   -1.6895   21.1897 C.ar    1  UNL1        0.0082
     10 C           2.8879   -0.6332   20.4430 C.ar    1  UNL1       -0.0026
     11 C           1.3882   -0.6292   20.4674 C.ar    1  UNL1        0.0029
     12 C           0.6287    0.4272   19.7208 C.ar    1  UNL1        0.0378
     13 C           1.3690    1.4795   18.9498 C.ar    1  UNL1        0.1487
     14 C           2.8688    1.4755   18.9253 C.ar    1  UNL1        0.0876
     15 CL          3.6092    2.5277   18.1543 Cl      1  UNL1       -0.0794
     16 C           3.6283    0.4192   19.6719 C.ar    1  UNL1       -0.0083
     17 C           5.1281    0.4152   19.6475 C.3     1  UNL1        0.0320
     18 O           0.6096    2.5358   18.2032 O.3     1  UNL1       -0.4731
     19 C          -0.2558    3.5068   18.9504 C.3     1  UNL1        0.2227
     20 C          -1.6709    3.7418   18.5116 C.3     1  UNL1        0.1201
     21 N          -2.7771    3.7590   19.5245 N.3     1  UNL1       -0.2672
     22 C          -2.4642    3.5753   20.9800 C.3     1  UNL1        0.0898
     23 C          -3.5704    3.5925   21.9929 C.3     1  UNL1        0.0897
     24 N          -4.9895    3.7934   21.5502 N.3     1  UNL1       -0.2691
     25 C          -6.0957    3.8106   22.5631 C.3     1  UNL1        0.0897
     26 C          -5.3024    3.9772   20.0948 C.3     1  UNL1        0.0897
     27 C          -4.1962    3.9600   19.0819 C.3     1  UNL1        0.0898
     28 C           4.1124   -4.9730   18.9266 C.3     1  UNL1        0.0056
     29 C           3.6559   -3.5992   19.3193 C.3     1  UNL1        0.0330
     30 O           3.4555    0.8375   23.2386 O.3     1  UNL1       -0.4578
     31 C           2.4810    1.4492   24.2009 C.3     1  UNL1        0.2078
     32 C           2.9069    2.5914   25.0751 C.2     1  UNL1        0.0903
     33 O           3.5346    2.3205   26.4102 O.co2   1  UNL1       -0.5455
     34 O           2.7050    4.0045   24.6141 O.co2   1  UNL1       -0.5455
     35 C           1.0807    0.9189   24.2891 C.3     1  UNL1        0.0758
     36 C           0.0530    1.6468   25.1040 C.ar    1  UNL1       -0.0182
     37 C          -0.1486    1.2919   26.5474 C.ar    1  UNL1       -0.0041
     38 C          -1.1763    2.0198   27.3623 C.ar    1  UNL1       -0.0003
     39 C          -2.0024    3.1026   26.7338 C.ar    1  UNL1       -0.0000
     40 C          -1.8008    3.4575   25.2903 C.ar    1  UNL1       -0.0003
     41 C          -0.7732    2.7296   24.4755 C.ar    1  UNL1       -0.0041
@<TRIPOS>UNITY_ATOM_ATTR
33 1
charge -1
@<TRIPOS>BOND
     1    28    29    1
     2    29     1    1
     3     1     2   ar
     4     2     3   ar
     5     3     4   ar
     6     4     5   ar
     7     5     6   ar
     8     6     7   ar
     9     7    30    1
    10    30    31    1
    11    31    35    1
    12    35    36    1
    13    36    37   ar
    14    37    38   ar
    15    38    39   ar
    16    39    40   ar
    17    40    41   ar
    18    31    32    1
    19    32    33   ar
    20    32    34   ar
    21     7     8   ar
    22     8     9   ar
    23     9    10    1
    24    10    11   ar
    25    11    12   ar
    26    12    13   ar
    27    13    18    1
    28    18    19    1
    29    19    20    1
    30    20    21    1
    31    21    22    1
    32    22    23    1
    33    23    24    1
    34    24    25    1
    35    24    26    1
    36    26    27    1
    37    13    14   ar
    38    14    15    1
    39    14    16   ar
    40    16    17    1
    41     9     1   ar
    42    16    10   ar
    43     8     3   ar
    44    27    21    1
    45    41    36   ar
@<TRIPOS>MOLECULE
*****
 41 45 0 0 0
SMALL
GASTEIGER

@<TRIPOS>ATOM
      1 C           4.2691   -1.8036   18.6822 C.ar    1  UNL1        0.0088
      2 S           5.2146   -2.9052   19.0600 S.2     1  UNL1       -0.0722
      3 C           5.1697   -3.0636   20.5510 C.ar    1  UNL1        0.1166
      4 N           5.8893   -3.9920   21.4837 N.ar    1  UNL1       -0.2172
      5 C           5.6357   -3.9168   22.9602 C.ar    1  UNL1        0.2020
      6 N           4.6625   -2.9131   23.5039 N.ar    1  UNL1       -0.1893
      7 C           3.9430   -1.9847   22.5711 C.ar    1  UNL1        0.2284
      8 C           4.1966   -2.0599   21.0946 C.ar    1  UNL1        0.0772
      9 C           3.6400   -1.2813   19.9397 C.ar    1  UNL1        0.0082
     10 C           2.6313   -0.1745   20.0269 C.ar    1  UNL1       -0.0026
     11 C           1.1700   -0.4976   20.1267 C.ar    1  UNL1        0.0029
     12 C           0.1613    0.6091   20.2140 C.ar    1  UNL1        0.0378
     13 C           0.6139    2.0391   20.2014 C.ar    1  UNL1        0.1487
     14 C           2.0752    2.3624   20.1016 C.ar    1  UNL1        0.0876
     15 CL          2.5280    3.7923   20.0891 Cl      1  UNL1       -0.0794
     16 C           3.0839    1.2556   20.0144 C.ar    1  UNL1       -0.0083
     17 C           4.5453    1.5788   19.9146 C.3     1  UNL1        0.0320
     18 O          -0.3948    3.1459   20.2887 O.3     1  UNL1       -0.4731
     19 C          -1.7763    2.8630   20.8001 C.3     1  UNL1        0.2227
     20 C          -2.9571    3.5662   20.1990 C.3     1  UNL1        0.1201
     21 N          -4.1913    3.7953   21.0201 N.3     1  UNL1       -0.2672
     22 C          -5.3878    4.4601   20.4063 C.3     1  UNL1        0.0898
     23 C          -6.6220    4.6891   21.2274 C.3     1  UNL1        0.0897
     24 N          -6.6597    4.2534   22.6623 N.3     1  UNL1       -0.2691
     25 C          -7.8940    4.4825   23.4833 C.3     1  UNL1        0.0897
     26 C          -5.4633    3.5887   23.2760 C.3     1  UNL1        0.0897
     27 C          -4.2291    3.3596   22.4549 C.3     1  UNL1        0.0898
     28 C           4.7906   -0.1636   16.7359 C.3     1  UNL1        0.0056
     29 C           4.0001   -1.3110   17.2912 C.3     1  UNL1        0.0330
     30 O           2.9698   -0.9810   23.1148 O.3     1  UNL1       -0.4578
     31 C           3.4598    0.3485   23.6069 C.3     1  UNL1        0.2078
     32 C           4.8364    0.4714   24.1902 C.2     1  UNL1        0.0903
     33 O           5.0213    0.4898   25.6786 O.co2   1  UNL1       -0.5455
     34 O           6.0278    0.5758   23.2850 O.co2   1  UNL1       -0.5455
     35 C           2.5734    1.5551   23.5158 C.3     1  UNL1        0.0758
     36 C           1.4193    1.7110   24.4612 C.ar    1  UNL1       -0.0182
     37 C           0.1671    2.4018   24.0088 C.ar    1  UNL1       -0.0041
     38 C          -0.9870    2.5577   24.9542 C.ar    1  UNL1       -0.0003
     39 C          -0.8889    2.0227   26.3521 C.ar    1  UNL1       -0.0000
     40 C           0.3634    1.3318   26.8046 C.ar    1  UNL1       -0.0003
     41 C           1.5174    1.1760   25.8592 C.ar    1  UNL1       -0.0041
@<TRIPOS>UNITY_ATOM_ATTR
33 1
charge -1
@<TRIPOS>BOND
     1    28    29    1
     2    29     1    1
     3     1     2   ar
     4     2     3   ar
     5     3     4   ar
     6     4     5   ar
     7     5     6   ar
     8     6     7   ar
     9     7    30    1
    10    30    31    1
    11    31    35    1
    12    35    36    1
    13    36    37   ar
    14    37    38   ar
    15    38    39   ar
    16    39    40   ar
    17    40    41   ar
    18    31    32    1
    19    32    33   ar
    20    32    34   ar
    21     7     8   ar
    22     8     9   ar
    23     9    10    1
    24    10    11   ar
    25    11    12   ar
    26    12    13   ar
    27    13    18    1
    28    18    19    1
    29    19    20    1
    30    20    21    1
    31    21    22    1
    32    22    23    1
    33    23    24    1
    34    24    25    1
    35    24    26    1
    36    26    27    1
    37    13    14   ar
    38    14    15    1
    39    14    16   ar
    40    16    17    1
    41     9     1   ar
    42    16    10   ar
    43     8     3   ar
    44    27    21    1
    45    41    36   ar
@<TRIPOS>MOLECULE
*****
 41 45 0 0 0
SMALL
GASTEIGER

@<TRIPOS>ATOM
      1 C           4.9335   -3.1006   19.6452 C.ar    1  UNL1        0.0088
      2 S           5.4417   -2.8291   18.2602 S.2     1  UNL1       -0.0722
      3 C           6.0549   -1.4601   18.2515 C.ar    1  UNL1        0.1166
      4 N           6.7142   -0.6626   17.1657 N.ar    1  UNL1       -0.2172
      5 C           7.2443    0.7095   17.4594 C.ar    1  UNL1        0.2020
      6 N           7.1150    1.2841   18.8390 N.ar    1  UNL1       -0.1893
      7 C           6.4557    0.4865   19.9248 C.ar    1  UNL1        0.2284
      8 C           5.9257   -0.8856   19.6311 C.ar    1  UNL1        0.0772
      9 C           5.2326   -1.8995   20.4924 C.ar    1  UNL1        0.0082
     10 C           4.8975   -1.7401   21.9458 C.ar    1  UNL1       -0.0026
     11 C           3.5405   -1.2475   22.3530 C.ar    1  UNL1        0.0029
     12 C           3.2054   -1.0882   23.8064 C.ar    1  UNL1        0.0378
     13 C           4.2273   -1.4215   24.8526 C.ar    1  UNL1        0.1487
     14 C           5.5843   -1.9141   24.4454 C.ar    1  UNL1        0.0876
     15 CL          6.6063   -2.2474   25.4916 Cl      1  UNL1       -0.0794
     16 C           5.9195   -2.0734   22.9920 C.ar    1  UNL1       -0.0083
     17 C           7.2765   -2.5661   22.5849 C.3     1  UNL1        0.0320
     18 O           3.8922   -1.2621   26.3060 O.3     1  UNL1       -0.4731
     19 C           3.5451    0.0913   26.8516 C.3     1  UNL1        0.2227
     20 C           2.2674    0.2881   27.6124 C.3     1  UNL1        0.1201
     21 N           1.1348    1.0507   26.9915 N.3     1  UNL1       -0.2672
     22 C           1.1989    1.4437   25.5453 C.3     1  UNL1        0.0898
     23 C           0.0662    2.2063   24.9244 C.3     1  UNL1        0.0897
     24 N          -1.1305    2.5760   25.7498 N.3     1  UNL1       -0.2691
     25 C          -2.2632    3.3386   25.1289 C.3     1  UNL1        0.0897
     26 C          -1.1946    2.1830   27.1959 C.3     1  UNL1        0.0897
     27 C          -0.0620    1.4204   27.8168 C.3     1  UNL1        0.0898
     28 C           3.1341   -4.9397   19.2853 C.3     1  UNL1        0.0056
     29 C           4.2468   -4.3533   20.1025 C.3     1  UNL1        0.0330
     30 O           6.3265    1.0610   21.3044 O.3     1  UNL1       -0.4578
     31 C           5.2731    2.0892   21.5930 C.3     1  UNL1        0.2078
     32 C           5.2484    2.7851   22.9216 C.2     1  UNL1        0.0903
     33 O           4.5583    2.1463   24.0902 O.co2   1  UNL1       -0.5455
     34 O           5.9137    4.1199   23.0816 O.co2   1  UNL1       -0.5455
     35 C           4.2444    2.4214   20.5530 C.3     1  UNL1        0.0758
     36 C           2.9603    1.6483   20.4945 C.ar    1  UNL1       -0.0182
     37 C           1.9254    1.8309   21.5648 C.ar    1  UNL1       -0.0041
     38 C           0.6413    1.0578   21.5062 C.ar    1  UNL1       -0.0003
     39 C           0.3921    0.1020   20.3772 C.ar    1  UNL1       -0.0000
     40 C           1.4271   -0.0805   19.3069 C.ar    1  UNL1       -0.0003
     41 C           2.7111    0.6926   19.3655 C.ar    1  UNL1       -0.0041
@<TRIPOS>UNITY_ATOM_ATTR
33 1
charge -1
@<TRIPOS>BOND
     1    28    29    1
     2    29     1    1
     3     1     2   ar
     4     2     3   ar
     5     3     4   ar
     6     4     5   ar
     7     5     6   ar
     8     6     7   ar
     9     7    30    1
    10    30    31    1
    11    31    35    1
    12    35    36    1
    13    36    37   ar
    14    37    38   ar
    15    38    39   ar
    16    39    40   ar
    17    40    41   ar
    18    31    32    1
    19    32    33   ar
    20    32    34   ar
    21     7     8   ar
    22     8     9   ar
    23     9    10    1
    24    10    11   ar
    25    11    12   ar
    26    12    13   ar
    27    13    18    1
    28    18    19    1
    29    19    20    1
    30    20    21    1
    31    21    22    1
    32    22    23    1
    33    23    24    1
    34    24    25    1
    35    24    26    1
    36    26    27    1
    37    13    14   ar
    38    14    15    1
    39    14    16   ar
    40    16    17    1
    41     9     1   ar
    42    16    10   ar
    43     8     3   ar
    44    27    21    1
    45    41    36   ar
@<TRIPOS>MOLECULE
*****
 41 45 0 0 0
SMALL
GASTEIGER

@<TRIPOS>ATOM
      1 C           2.2716   -0.0697   19.6304 C.ar    1  UNL1        0.0088
      2 S           2.6523   -0.0538   18.1796 S.2     1  UNL1       -0.0722
      3 C           4.1484    0.0118   18.0936 C.ar    1  UNL1        0.1166
      4 N           5.0856    0.0522   16.9232 N.ar    1  UNL1       -0.2172
      5 C           6.5668    0.1173   17.1505 C.ar    1  UNL1        0.2020
      6 N           7.1108    0.1420   18.5481 N.ar    1  UNL1       -0.1893
      7 C           6.1736    0.1015   19.7185 C.ar    1  UNL1        0.2284
      8 C           4.6923    0.0364   19.4912 C.ar    1  UNL1        0.0772
      9 C           3.5324   -0.0139   20.4410 C.ar    1  UNL1        0.0082
     10 C           3.6183   -0.0094   21.9385 C.ar    1  UNL1       -0.0026
     11 C           3.4738   -1.2923   22.7020 C.ar    1  UNL1        0.0029
     12 C           3.5596   -1.2877   24.1996 C.ar    1  UNL1        0.0378
     13 C           3.7901   -0.0001   24.9337 C.ar    1  UNL1        0.1487
     14 C           3.9346    1.2830   24.1702 C.ar    1  UNL1        0.0876
     15 CL          4.1651    2.5706   24.9042 Cl      1  UNL1       -0.0794
     16 C           3.8488    1.2784   22.6727 C.ar    1  UNL1       -0.0083
     17 C           3.9933    2.5614   21.9092 C.3     1  UNL1        0.0320
     18 O           3.8760    0.0045   26.4312 O.3     1  UNL1       -0.4731
     19 C           4.1506   -1.2714   27.1706 C.3     1  UNL1        0.2227
     20 C           5.5197   -1.8829   27.1283 C.3     1  UNL1        0.1201
     21 N           5.9442   -2.8460   28.1970 N.3     1  UNL1       -0.2672
     22 C           6.0674   -2.3826   29.6184 C.3     1  UNL1        0.0898
     23 C           6.4920   -3.3457   30.6871 C.3     1  UNL1        0.0897
     24 N           6.7932   -4.7722   30.3345 N.3     1  UNL1       -0.2691
     25 C           7.2178   -5.7353   31.4032 C.3     1  UNL1        0.0897
     26 C           6.6700   -5.2356   28.9132 C.3     1  UNL1        0.0897
     27 C           6.2455   -4.2725   27.8444 C.3     1  UNL1        0.0898
     28 C           0.2402    1.1005   20.7502 C.3     1  UNL1        0.0056
     29 C           0.8752   -0.1306   20.1749 C.3     1  UNL1        0.0330
     30 O           6.7175    0.1261   21.1162 O.3     1  UNL1       -0.4578
     31 C           7.0473   -1.1593   21.8154 C.3     1  UNL1        0.2078
     32 C           7.1622   -1.1917   23.3107 C.2     1  UNL1        0.0903
     33 O           7.2099   -2.5066   24.0309 O.co2   1  UNL1       -0.5455
     34 O           7.2294    0.0908   24.0857 O.co2   1  UNL1       -0.5455
     35 C           7.2622   -2.4124   21.0194 C.3     1  UNL1        0.0758
     36 C           6.0840   -3.2061   20.5376 C.ar    1  UNL1       -0.0182
     37 C           5.8385   -3.3660   19.0665 C.ar    1  UNL1       -0.0041
     38 C           4.6603   -4.1597   18.5847 C.ar    1  UNL1       -0.0003
     39 C           3.7278   -4.7935   19.5740 C.ar    1  UNL1       -0.0000
     40 C           3.9735   -4.6336   21.0451 C.ar    1  UNL1       -0.0003
     41 C           5.1516   -3.8399   21.5269 C.ar    1  UNL1       -0.0041
@<TRIPOS>UNITY_ATOM_ATTR
33 1
charge -1
@<TRIPOS>BOND
     1    28    29    1
     2    29     1    1
     3     1     2   ar
     4     2     3   ar
     5     3     4   ar
     6     4     5   ar
     7     5     6   ar
     8     6     7   ar
     9     7    30    1
    10    30    31    1
    11    31    35    1
    12    35    36    1
    13    36    37   ar
    14    37    38   ar
    15    38    39   ar
    16    39    40   ar
    17    40    41   ar
    18    31    32    1
    19    32    33   ar
    20    32    34   ar
    21     7     8   ar
    22     8     9   ar
    23     9    10    1
    24    10    11   ar
    25    11    12   ar
    26    12    13   ar
    27    13    18    1
    28    18    19    1
    29    19    20    1
    30    20    21    1
    31    21    22    1
    32    22    23    1
    33    23    24    1
    34    24    25    1
    35    24    26    1
    36    26    27    1
    37    13    14   ar
    38    14    15    1
    39    14    16   ar
    40    16    17    1
    41     9     1   ar
    42    16    10   ar
    43     8     3   ar
    44    27    21    1
    45    41    36   ar
@<TRIPOS>MOLECULE
*****
 41 45 0 0 0
SMALL
GASTEIGER

@<TRIPOS>ATOM
      1 C           6.5504   -1.1145   22.2335 C.ar    1  UNL1        0.0088
      2 S           7.0382   -2.3777   21.5882 S.2     1  UNL1       -0.0722
      3 C           5.9201   -2.9361   20.7587 C.ar    1  UNL1        0.1166
      4 N           5.8232   -4.1620   19.8997 N.ar    1  UNL1       -0.2172
      5 C           4.5474   -4.4698   19.1734 C.ar    1  UNL1        0.2020
      6 N           3.3686   -3.5518   19.3061 N.ar    1  UNL1       -0.1893
      7 C           3.4655   -2.3260   20.1651 C.ar    1  UNL1        0.2284
      8 C           4.7413   -2.0181   20.8914 C.ar    1  UNL1        0.0772
      9 C           5.1308   -0.8924   21.8029 C.ar    1  UNL1        0.0082
     10 C           4.2546    0.2543   22.2119 C.ar    1  UNL1       -0.0026
     11 C           4.3029    1.5447   21.4487 C.ar    1  UNL1        0.0029
     12 C           3.4266    2.6913   21.8577 C.ar    1  UNL1        0.0378
     13 C           2.5020    2.5477   23.0301 C.ar    1  UNL1        0.1487
     14 C           2.4537    1.2573   23.7934 C.ar    1  UNL1        0.0876
     15 CL          1.5291    1.1136   24.9657 Cl      1  UNL1       -0.0794
     16 C           3.3299    0.1107   23.3844 C.ar    1  UNL1       -0.0083
     17 C           3.2815   -1.1797   24.1477 C.3     1  UNL1        0.0320
     18 O           1.6258    3.6944   23.4391 O.3     1  UNL1       -0.4731
     19 C           0.3848    4.0064   22.6564 C.3     1  UNL1        0.2227
     20 C          -0.9367    3.4451   23.0907 C.3     1  UNL1        0.1201
     21 N          -2.1075    3.4723   22.1534 N.3     1  UNL1       -0.2672
     22 C          -1.8823    3.4384   20.6707 C.3     1  UNL1        0.0898
     23 C          -3.0531    3.4657   19.7335 C.3     1  UNL1        0.0897
     24 N          -4.4491    3.5269   20.2789 N.3     1  UNL1       -0.2691
     25 C          -5.6199    3.5541   19.3416 C.3     1  UNL1        0.0897
     26 C          -4.6743    3.5608   21.7615 C.3     1  UNL1        0.0897
     27 C          -3.5035    3.5336   22.6988 C.3     1  UNL1        0.0898
     28 C           7.9020    1.0666   22.6404 C.3     1  UNL1        0.0056
     29 C           7.3430   -0.2291   23.1489 C.3     1  UNL1        0.0330
     30 O           2.2867   -1.4079   20.2978 O.3     1  UNL1       -0.4578
     31 C           2.0322   -0.3587   19.2565 C.3     1  UNL1        0.2078
     32 C           0.8390    0.5425   19.3757 C.2     1  UNL1        0.0903
     33 O           0.0525    0.5805   20.6525 O.co2   1  UNL1       -0.5455
     34 O           0.4323    1.4055   18.2183 O.co2   1  UNL1       -0.5455
     35 C           2.9709   -0.2106   18.0959 C.3     1  UNL1        0.0758
     36 C           4.0985    0.7763   18.1646 C.ar    1  UNL1       -0.0182
     37 C           5.5119    0.2920   18.2982 C.ar    1  UNL1       -0.0041
     38 C           6.6395    1.2789   18.3669 C.ar    1  UNL1       -0.0003
     39 C           6.3537    2.7500   18.3019 C.ar    1  UNL1       -0.0000
     40 C           4.9403    3.2342   18.1684 C.ar    1  UNL1       -0.0003
     41 C           3.8127    2.2474   18.0997 C.ar    1  UNL1       -0.0041
@<TRIPOS>UNITY_ATOM_ATTR
33 1
charge -1
@<TRIPOS>BOND
     1    28    29    1
     2    29     1    1
     3     1     2   ar
     4     2     3   ar
     5     3     4   ar
     6     4     5   ar
     7     5     6   ar
     8     6     7   ar
     9     7    30    1
    10    30    31    1
    11    31    35    1
    12    35    36    1
    13    36    37   ar
    14    37    38   ar
    15    38    39   ar
    16    39    40   ar
    17    40    41   ar
    18    31    32    1
    19    32    33   ar
    20    32    34   ar
    21     7     8   ar
    22     8     9   ar
    23     9    10    1
    24    10    11   ar
    25    11    12   ar
    26    12    13   ar
    27    13    18    1
    28    18    19    1
    29    19    20    1
    30    20    21    1
    31    21    22    1
    32    22    23    1
    33    23    24    1
    34    24    25    1
    35    24    26    1
    36    26    27    1
    37    13    14   ar
    38    14    15    1
    39    14    16   ar
    40    16    17    1
    41     9     1   ar
    42    16    10   ar
    43     8     3   ar
    44    27    21    1
    45    41    36   ar
@<TRIPOS>MOLECULE
*****
 41 45 0 0 0
SMALL
GASTEIGER

@<TRIPOS>ATOM
      1 C           5.9881   -2.1378   25.4912 C.ar    1  UNL1        0.0088
      2 S           6.9454   -3.2924   25.5137 S.2     1  UNL1       -0.0722
      3 C           7.2545   -3.6660   24.0942 C.ar    1  UNL1        0.1166
      4 N           8.1348   -4.7279   23.5048 N.ar    1  UNL1       -0.2172
      5 C           8.2487   -4.8662   22.0156 C.ar    1  UNL1        0.2020
      6 N           7.4824   -3.9425   21.1158 N.ar    1  UNL1       -0.1893
      7 C           6.6021   -2.8806   21.7052 C.ar    1  UNL1        0.2284
      8 C           6.4882   -2.7424   23.1944 C.ar    1  UNL1        0.0772
      9 C           5.7055   -1.7979   24.0578 C.ar    1  UNL1        0.0082
     10 C           4.7994   -0.7053   23.5729 C.ar    1  UNL1       -0.0026
     11 C           3.3111   -0.8783   23.6442 C.ar    1  UNL1        0.0029
     12 C           2.4050    0.2143   23.1592 C.ar    1  UNL1        0.0378
     13 C           2.9871    1.4799   22.6030 C.ar    1  UNL1        0.1487
     14 C           4.4753    1.6529   22.5317 C.ar    1  UNL1        0.0876
     15 CL          5.0575    2.9184   21.9755 Cl      1  UNL1       -0.0794
     16 C           5.3815    0.5603   23.0166 C.ar    1  UNL1       -0.0083
     17 C           6.8698    0.7333   22.9453 C.3     1  UNL1        0.0320
     18 O           2.0809    2.5724   22.1181 O.3     1  UNL1       -0.4731
     19 C           1.5326    3.5776   23.0872 C.3     1  UNL1        0.2227
     20 C           0.2551    3.2933   23.8201 C.3     1  UNL1        0.1201
     21 N           0.2969    2.7830   25.2300 N.3     1  UNL1       -0.2672
     22 C          -0.9705    2.3626   25.9134 C.3     1  UNL1        0.0898
     23 C          -0.9287    1.8523   27.3233 C.3     1  UNL1        0.0897
     24 N           0.3806    1.7625   28.0498 N.3     1  UNL1       -0.2691
     25 C           0.4225    1.2522   29.4597 C.3     1  UNL1        0.0897
     26 C           1.6480    2.1829   27.3664 C.3     1  UNL1        0.0897
     27 C           1.6062    2.6931   25.9565 C.3     1  UNL1        0.0898
     28 C           3.9784   -1.6620   27.0674 C.3     1  UNL1        0.0056
     29 C           5.4141   -1.4449   26.6913 C.3     1  UNL1        0.0330
     30 O           5.8358   -1.9570   20.8054 O.3     1  UNL1       -0.4578
     31 C           4.7667   -2.5024   19.9057 C.3     1  UNL1        0.2078
     32 C           5.1422   -3.3110   18.6993 C.2     1  UNL1        0.0903
     33 O           4.7694   -4.7619   18.6232 O.co2   1  UNL1       -0.5455
     34 O           5.8904   -2.6686   17.5690 O.co2   1  UNL1       -0.5455
     35 C           3.3222   -2.2394   20.2124 C.3     1  UNL1        0.0758
     36 C           2.6824   -0.9576   19.7676 C.ar    1  UNL1       -0.0182
     37 C           1.2267   -0.7138   20.0346 C.ar    1  UNL1       -0.0041
     38 C           0.5869    0.5680   19.5899 C.ar    1  UNL1       -0.0003
     39 C           1.4029    1.6060   18.8781 C.ar    1  UNL1       -0.0000
     40 C           2.8587    1.3622   18.6111 C.ar    1  UNL1       -0.0003
     41 C           3.4984    0.0804   19.0558 C.ar    1  UNL1       -0.0041
@<TRIPOS>UNITY_ATOM_ATTR
33 1
charge -1
@<TRIPOS>BOND
     1    28    29    1
     2    29     1    1
     3     1     2   ar
     4     2     3   ar
     5     3     4   ar
     6     4     5   ar
     7     5     6   ar
     8     6     7   ar
     9     7    30    1
    10    30    31    1
    11    31    35    1
    12    35    36    1
    13    36    37   ar
    14    37    38   ar
    15    38    39   ar
    16    39    40   ar
    17    40    41   ar
    18    31    32    1
    19    32    33   ar
    20    32    34   ar
    21     7     8   ar
    22     8     9   ar
    23     9    10    1
    24    10    11   ar
    25    11    12   ar
    26    12    13   ar
    27    13    18    1
    28    18    19    1
    29    19    20    1
    30    20    21    1
    31    21    22    1
    32    22    23    1
    33    23    24    1
    34    24    25    1
    35    24    26    1
    36    26    27    1
    37    13    14   ar
    38    14    15    1
    39    14    16   ar
    40    16    17    1
    41     9     1   ar
    42    16    10   ar
    43     8     3   ar
    44    27    21    1
    45    41    36   ar
@<TRIPOS>MOLECULE
*****
 41 45 0 0 0
SMALL
GASTEIGER

@<TRIPOS>ATOM
      1 C           4.6947   -1.8232   23.4373 C.ar    1  UNL1        0.0088
      2 S           5.2333   -3.1534   23.0006 S.2     1  UNL1       -0.0722
      3 C           4.7055   -3.4385   21.6258 C.ar    1  UNL1        0.1166
      4 N           4.9007   -4.5998   20.6967 N.ar    1  UNL1       -0.2172
      5 C           4.2310   -4.6072   19.3545 C.ar    1  UNL1        0.2020
      6 N           3.3662   -3.4533   18.9414 N.ar    1  UNL1       -0.1893
      7 C           3.1711   -2.2920   19.8705 C.ar    1  UNL1        0.2284
      8 C           3.8407   -2.2846   21.2127 C.ar    1  UNL1        0.0772
      9 C           3.8340   -1.2863   22.3323 C.ar    1  UNL1        0.0082
     10 C           3.0962    0.0196   22.3446 C.ar    1  UNL1       -0.0026
     11 C           1.7057    0.0902   22.9025 C.ar    1  UNL1        0.0029
     12 C           0.9679    1.3962   22.9149 C.ar    1  UNL1        0.0378
     13 C           1.6206    2.6316   22.3693 C.ar    1  UNL1        0.1487
     14 C           3.0112    2.5610   21.8113 C.ar    1  UNL1        0.0876
     15 CL          3.6640    3.7963   21.2657 Cl      1  UNL1       -0.0794
     16 C           3.7490    1.2551   21.7990 C.ar    1  UNL1       -0.0083
     17 C           5.1396    1.1845   21.2410 C.3     1  UNL1        0.0320
     18 O           0.8828    3.9375   22.3816 O.3     1  UNL1       -0.4731
     19 C          -0.5628    3.9860   21.9843 C.3     1  UNL1        0.2227
     20 C          -0.9392    4.1172   20.5382 C.3     1  UNL1        0.1201
     21 N          -2.3615    3.9060   20.1113 N.3     1  UNL1       -0.2672
     22 C          -3.3905    3.4787   21.1158 C.3     1  UNL1        0.0898
     23 C          -4.8129    3.2674   20.6889 C.3     1  UNL1        0.0897
     24 N          -5.2063    3.4835   19.2576 N.3     1  UNL1       -0.2691
     25 C          -6.6286    3.2723   18.8307 C.3     1  UNL1        0.0897
     26 C          -4.1774    3.9108   18.2532 C.3     1  UNL1        0.0897
     27 C          -2.7550    4.1220   18.6801 C.3     1  UNL1        0.0898
     28 C           3.9150   -1.1280   25.8161 C.3     1  UNL1        0.0056
     29 C           4.9686   -1.1485   24.7486 C.3     1  UNL1        0.0330
     30 O           2.3063   -1.1381   19.4575 O.3     1  UNL1       -0.4578
     31 C           2.7878   -0.1766   18.4117 C.3     1  UNL1        0.2078
     32 C           2.1581    1.1796   18.2929 C.2     1  UNL1        0.0903
     33 O           3.0212    2.4052   18.2386 O.co2   1  UNL1       -0.5455
     34 O           0.6652    1.3103   18.2283 O.co2   1  UNL1       -0.5455
     35 C           3.8992   -0.5713   17.4848 C.3     1  UNL1        0.0758
     36 C           5.3194   -0.2335   17.8300 C.ar    1  UNL1       -0.0182
     37 C           5.8631    1.1293   17.5187 C.ar    1  UNL1       -0.0041
     38 C           7.2833    1.4671   17.8639 C.ar    1  UNL1       -0.0003
     39 C           8.1596    0.4420   18.5204 C.ar    1  UNL1       -0.0000
     40 C           7.6158   -0.9209   18.8318 C.ar    1  UNL1       -0.0003
     41 C           6.1957   -1.2586   18.4866 C.ar    1  UNL1       -0.0041
@<TRIPOS>UNITY_ATOM_ATTR
33 1
charge -1
@<TRIPOS>BOND
     1    28    29    1
     2    29     1    1
     3     1     2   ar
     4     2     3   ar
     5     3     4   ar
     6     4     5   ar
     7     5     6   ar
     8     6     7   ar
     9     7    30    1
    10    30    31    1
    11    31    35    1
    12    35    36    1
    13    36    37   ar
    14    37    38   ar
    15    38    39   ar
    16    39    40   ar
    17    40    41   ar
    18    31    32    1
    19    32    33   ar
    20    32    34   ar
    21     7     8   ar
    22     8     9   ar
    23     9    10    1
    24    10    11   ar
    25    11    12   ar
    26    12    13   ar
    27    13    18    1
    28    18    19    1
    29    19    20    1
    30    20    21    1
    31    21    22    1
    32    22    23    1
    33    23    24    1
    34    24    25    1
    35    24    26    1
    36    26    27    1
    37    13    14   ar
    38    14    15    1
    39    14    16   ar
    40    16    17    1
    41     9     1   ar
    42    16    10   ar
    43     8     3   ar
    44    27    21    1
    45    41    36   ar
