@<TRIPOS>MOLECULE
*****
 26 29 0 0 0
SMALL
GASTEIGER

@<TRIPOS>ATOM
      1 C          -6.4529  -19.3157   20.7933 C.3     1  UNL1        0.0991
      2 C          -8.8536  -21.6382   17.7779 C.ar    1  UNL1       -0.0000
      3 C          -7.6517  -22.2633   18.4217 C.ar    1  UNL1       -0.0003
      4 C          -6.8514  -21.4891   19.4268 C.ar    1  UNL1       -0.0029
      5 C          -7.2531  -20.0898   19.7882 C.ar    1  UNL1       -0.0061
      6 C          -8.4551  -19.4647   19.1444 C.ar    1  UNL1       -0.0029
      7 C          -9.2554  -20.2389   18.1393 C.ar    1  UNL1       -0.0003
      8 N          -4.9643  -19.2077   20.6442 N.3     1  UNL1       -0.2690
      9 C          -4.3793  -18.3710   19.5452 C.3     1  UNL1        0.0724
     10 C          -2.8906  -18.2630   19.3961 C.3     1  UNL1        0.0174
     11 C          -1.9869  -18.9917   20.3460 C.3     1  UNL1        0.0029
     12 C          -2.5719  -19.8284   21.4450 C.3     1  UNL1        0.0174
     13 C          -4.0605  -19.9364   21.5941 C.3     1  UNL1        0.0724
     14 C          -7.1413  -18.6495   21.9475 C.3     1  UNL1        0.0991
     15 C          -8.5055  -19.1063   22.3722 C.ar    1  UNL1       -0.0061
     16 C          -9.7273  -18.4368   21.8164 C.ar    1  UNL1       -0.0029
     17 C         -11.0915  -18.8935   22.2411 C.ar    1  UNL1       -0.0003
     18 C         -11.2338  -20.0198   23.2216 C.ar    1  UNL1       -0.0000
     19 C         -10.0120  -20.6892   23.7774 C.ar    1  UNL1       -0.0003
     20 C          -8.6478  -20.2325   23.3527 C.ar    1  UNL1       -0.0029
     21 N          -6.4655  -17.5265   22.6772 N.3     1  UNL1       -0.2690
     22 C          -7.2323  -16.2822   23.0141 C.3     1  UNL1        0.0724
     23 C          -6.5566  -15.1592   23.7437 C.3     1  UNL1        0.0174
     24 C          -5.1139  -15.2806   24.1363 C.3     1  UNL1        0.0029
     25 C          -4.3471  -16.5250   23.7994 C.3     1  UNL1        0.0174
     26 C          -5.0229  -17.6480   23.0698 C.3     1  UNL1        0.0724
@<TRIPOS>BOND
     1     2     3   ar
     2     3     4   ar
     3     4     5   ar
     4     5     1    1
     5     1    14    1
     6    14    15    1
     7    15    16   ar
     8    16    17   ar
     9    17    18   ar
    10    18    19   ar
    11    19    20   ar
    12    14    21    1
    13    21    22    1
    14    22    23    1
    15    23    24    1
    16    24    25    1
    17    25    26    1
    18     1     8    1
    19     8     9    1
    20     9    10    1
    21    10    11    1
    22    11    12    1
    23    12    13    1
    24     5     6   ar
    25     6     7   ar
    26     7     2   ar
    27    20    15   ar
    28    26    21    1
    29    13     8    1
@<TRIPOS>MOLECULE
*****
 26 29 0 0 0
SMALL
GASTEIGER

@<TRIPOS>ATOM
      1 C          -7.1597  -18.6207   21.9106 C.3     1  UNL1        0.0991
      2 C         -11.3103  -19.8977   23.0904 C.ar    1  UNL1       -0.0000
      3 C         -11.1200  -18.7736   22.1156 C.ar    1  UNL1       -0.0003
      4 C          -9.7365  -18.3480   21.7223 C.ar    1  UNL1       -0.0029
      5 C          -8.5432  -19.0464   22.3039 C.ar    1  UNL1       -0.0061
      6 C          -8.7335  -20.1704   23.2787 C.ar    1  UNL1       -0.0029
      7 C         -10.1170  -20.5961   23.6719 C.ar    1  UNL1       -0.0003
      8 N          -6.4770  -17.5106   22.6532 N.3     1  UNL1       -0.2690
      9 C          -7.2273  -16.2529   22.9777 C.3     1  UNL1        0.0724
     10 C          -6.5446  -15.1427   23.7204 C.3     1  UNL1        0.0174
     11 C          -5.1116  -15.2902   24.1384 C.3     1  UNL1        0.0029
     12 C          -4.3613  -16.5479   23.8139 C.3     1  UNL1        0.0174
     13 C          -5.0440  -17.6580   23.0713 C.3     1  UNL1        0.0724
     14 C          -6.4588  -19.3052   20.7748 C.3     1  UNL1        0.0991
     15 C          -7.2477  -20.0987   19.7757 C.ar    1  UNL1       -0.0061
     16 C          -6.8262  -21.4952   19.4260 C.ar    1  UNL1       -0.0029
     17 C          -7.6151  -22.2887   18.4270 C.ar    1  UNL1       -0.0003
     18 C          -8.8254  -21.6856   17.7776 C.ar    1  UNL1       -0.0000
     19 C          -9.2468  -20.2892   18.1273 C.ar    1  UNL1       -0.0003
     20 C          -8.4579  -19.4957   19.1264 C.ar    1  UNL1       -0.0029
     21 N          -4.9690  -19.1963   20.6380 N.3     1  UNL1       -0.2690
     22 C          -4.0727  -19.9141   21.6031 C.3     1  UNL1        0.0724
     23 C          -2.5830  -19.8052   21.4663 C.3     1  UNL1        0.0174
     24 C          -1.9894  -18.9785   20.3644 C.3     1  UNL1        0.0029
     25 C          -2.8856  -18.2606   19.3993 C.3     1  UNL1        0.0174
     26 C          -4.3755  -18.3696   19.5361 C.3     1  UNL1        0.0724
@<TRIPOS>BOND
     1     2     3   ar
     2     3     4   ar
     3     4     5   ar
     4     5     1    1
     5     1    14    1
     6    14    15    1
     7    15    16   ar
     8    16    17   ar
     9    17    18   ar
    10    18    19   ar
    11    19    20   ar
    12    14    21    1
    13    21    22    1
    14    22    23    1
    15    23    24    1
    16    24    25    1
    17    25    26    1
    18     1     8    1
    19     8     9    1
    20     9    10    1
    21    10    11    1
    22    11    12    1
    23    12    13    1
    24     5     6   ar
    25     6     7   ar
    26     7     2   ar
    27    20    15   ar
    28    26    21    1
    29    13     8    1
@<TRIPOS>MOLECULE
*****
 26 29 0 0 0
SMALL
GASTEIGER

@<TRIPOS>ATOM
      1 C          -7.1553  -18.6405   21.9182 C.3     1  UNL1        0.0991
      2 C         -11.2634  -19.9890   23.1649 C.ar    1  UNL1       -0.0000
      3 C         -10.0486  -20.6398   23.7570 C.ar    1  UNL1       -0.0003
      4 C          -8.6792  -20.1903   23.3414 C.ar    1  UNL1       -0.0029
      5 C          -8.5246  -19.0900   22.3338 C.ar    1  UNL1       -0.0061
      6 C          -9.7395  -18.4392   21.7417 C.ar    1  UNL1       -0.0029
      7 C         -11.1089  -18.8887   22.1572 C.ar    1  UNL1       -0.0003
      8 N          -6.4818  -17.5156   22.6470 N.3     1  UNL1       -0.2690
      9 C          -5.0523  -17.6521   23.0804 C.3     1  UNL1        0.0724
     10 C          -4.3789  -16.5272   23.8092 C.3     1  UNL1        0.0174
     11 C          -5.1349  -15.2658   24.1045 C.3     1  UNL1        0.0029
     12 C          -6.5645  -15.1293   23.6711 C.3     1  UNL1        0.0174
     13 C          -7.2379  -16.2541   22.9423 C.3     1  UNL1        0.0724
     14 C          -6.4593  -19.3158   20.7739 C.3     1  UNL1        0.0991
     15 C          -7.2525  -20.1013   19.7720 C.ar    1  UNL1       -0.0061
     16 C          -8.4521  -19.4848   19.1155 C.ar    1  UNL1       -0.0029
     17 C          -9.2452  -20.2703   18.1136 C.ar    1  UNL1       -0.0003
     18 C          -8.8388  -21.6723   17.7681 C.ar    1  UNL1       -0.0000
     19 C          -7.6392  -22.2887   18.4246 C.ar    1  UNL1       -0.0003
     20 C          -6.8460  -21.5032   19.4265 C.ar    1  UNL1       -0.0029
     21 N          -4.9701  -19.2056   20.6315 N.3     1  UNL1       -0.2690
     22 C          -4.3814  -18.3791   19.5268 C.3     1  UNL1        0.0724
     23 C          -2.8923  -18.2689   19.3843 C.3     1  UNL1        0.0174
     24 C          -1.9918  -18.9853   20.3466 C.3     1  UNL1        0.0029
     25 C          -2.5804  -19.8118   21.4513 C.3     1  UNL1        0.0174
     26 C          -4.0696  -19.9220   21.5937 C.3     1  UNL1        0.0724
@<TRIPOS>BOND
     1     2     3   ar
     2     3     4   ar
     3     4     5   ar
     4     5     1    1
     5     1    14    1
     6    14    15    1
     7    15    16   ar
     8    16    17   ar
     9    17    18   ar
    10    18    19   ar
    11    19    20   ar
    12    14    21    1
    13    21    22    1
    14    22    23    1
    15    23    24    1
    16    24    25    1
    17    25    26    1
    18     1     8    1
    19     8     9    1
    20     9    10    1
    21    10    11    1
    22    11    12    1
    23    12    13    1
    24     5     6   ar
    25     6     7   ar
    26     7     2   ar
    27    20    15   ar
    28    26    21    1
    29    13     8    1
@<TRIPOS>MOLECULE
*****
 26 29 0 0 0
SMALL
GASTEIGER

@<TRIPOS>ATOM
      1 C          -7.1747  -18.6531   21.9532 C.3     1  UNL1        0.0991
      2 C          -5.1509  -15.3117   24.1868 C.ar    1  UNL1       -0.0000
      3 C          -4.3962  -16.5696   23.8738 C.ar    1  UNL1       -0.0003
      4 C          -5.0708  -17.6834   23.1292 C.ar    1  UNL1       -0.0029
      5 C          -6.5001  -17.5393   22.6977 C.ar    1  UNL1       -0.0061
      6 C          -7.2548  -16.2814   23.0108 C.ar    1  UNL1       -0.0029
      7 C          -6.5802  -15.1676   23.7553 C.ar    1  UNL1       -0.0003
      8 N          -8.5461  -19.1044   22.3599 N.3     1  UNL1       -0.2690
      9 C          -9.7580  -18.4460   21.7702 C.3     1  UNL1        0.0724
     10 C         -11.1295  -18.8974   22.1770 C.3     1  UNL1        0.0174
     11 C         -11.2890  -20.0072   23.1735 C.3     1  UNL1        0.0029
     12 C         -10.0771  -20.6656   23.7632 C.3     1  UNL1        0.0174
     13 C          -8.7057  -20.2143   23.3564 C.3     1  UNL1        0.0724
     14 C          -6.4779  -19.3156   20.8019 C.3     1  UNL1        0.0991
     15 C          -7.2692  -20.0978   19.7959 C.ar    1  UNL1       -0.0061
     16 C          -6.8454  -21.4882   19.4253 C.ar    1  UNL1       -0.0029
     17 C          -7.6367  -22.2704   18.4193 C.ar    1  UNL1       -0.0003
     18 C          -8.8518  -21.6622   17.7839 C.ar    1  UNL1       -0.0000
     19 C          -9.2755  -20.2719   18.1545 C.ar    1  UNL1       -0.0003
     20 C          -8.4842  -19.4897   19.1605 C.ar    1  UNL1       -0.0029
     21 N          -4.9897  -19.1959   20.6565 N.3     1  UNL1       -0.2690
     22 C          -4.4086  -18.3492   19.5631 C.3     1  UNL1        0.0724
     23 C          -2.9206  -18.2294   19.4178 C.3     1  UNL1        0.0174
     24 C          -2.0134  -18.9565   20.3657 C.3     1  UNL1        0.0029
     25 C          -2.5945  -19.8032   21.4591 C.3     1  UNL1        0.0174
     26 C          -4.0826  -19.9229   21.6045 C.3     1  UNL1        0.0724
@<TRIPOS>BOND
     1     2     3   ar
     2     3     4   ar
     3     4     5   ar
     4     5     1    1
     5     1    14    1
     6    14    15    1
     7    15    16   ar
     8    16    17   ar
     9    17    18   ar
    10    18    19   ar
    11    19    20   ar
    12    14    21    1
    13    21    22    1
    14    22    23    1
    15    23    24    1
    16    24    25    1
    17    25    26    1
    18     1     8    1
    19     8     9    1
    20     9    10    1
    21    10    11    1
    22    11    12    1
    23    12    13    1
    24     5     6   ar
    25     6     7   ar
    26     7     2   ar
    27    20    15   ar
    28    26    21    1
    29    13     8    1
@<TRIPOS>MOLECULE
*****
 26 29 0 0 0
SMALL
GASTEIGER

@<TRIPOS>ATOM
      1 C           4.2322   -0.4076   20.3611 C.3     1  UNL1        0.0991
      2 C           3.4584    0.7279   24.6461 C.ar    1  UNL1       -0.0000
      3 C           4.0937    1.7144   23.7118 C.ar    1  UNL1       -0.0003
      4 C           4.3517    1.3359   22.2835 C.ar    1  UNL1       -0.0029
      5 C           3.9742   -0.0291   21.7894 C.ar    1  UNL1       -0.0061
      6 C           3.3389   -1.0157   22.7237 C.ar    1  UNL1       -0.0029
      7 C           3.0809   -0.6372   24.1521 C.ar    1  UNL1       -0.0003
      8 N           4.3988   -1.8503   19.9858 N.3     1  UNL1       -0.2690
      9 C           5.7315   -2.5188   20.1497 C.3     1  UNL1        0.0724
     10 C           5.8981   -3.9616   19.7744 C.3     1  UNL1        0.0174
     11 C           4.7319   -4.7358   19.2353 C.3     1  UNL1        0.0029
     12 C           3.3992   -4.0673   19.0715 C.3     1  UNL1        0.0174
     13 C           3.2326   -2.6246   19.4467 C.3     1  UNL1        0.0724
     14 C           4.3235    0.6565   19.3079 C.3     1  UNL1        0.0991
     15 C           3.1123    1.4675   18.9541 C.ar    1  UNL1       -0.0061
     16 C           3.2230    2.9563   18.8080 C.ar    1  UNL1       -0.0029
     17 C           2.0118    3.7673   18.4542 C.ar    1  UNL1       -0.0003
     18 C           0.6898    3.0895   18.2465 C.ar    1  UNL1       -0.0000
     19 C           0.5791    1.6008   18.3926 C.ar    1  UNL1       -0.0003
     20 C           1.7904    0.7898   18.7464 C.ar    1  UNL1       -0.0029
     21 N           5.6262    0.9098   18.6085 N.3     1  UNL1       -0.2690
     22 C           5.7270    0.7303   17.1227 C.3     1  UNL1        0.0724
     23 C           7.0295    0.9836   16.4233 C.3     1  UNL1        0.0174
     24 C           8.2314    1.4162   17.2098 C.3     1  UNL1        0.0029
     25 C           8.1306    1.5956   18.6956 C.3     1  UNL1        0.0174
     26 C           6.8280    1.3424   19.3950 C.3     1  UNL1        0.0724
@<TRIPOS>BOND
     1     2     3   ar
     2     3     4   ar
     3     4     5   ar
     4     5     1    1
     5     1    14    1
     6    14    15    1
     7    15    16   ar
     8    16    17   ar
     9    17    18   ar
    10    18    19   ar
    11    19    20   ar
    12    14    21    1
    13    21    22    1
    14    22    23    1
    15    23    24    1
    16    24    25    1
    17    25    26    1
    18     1     8    1
    19     8     9    1
    20     9    10    1
    21    10    11    1
    22    11    12    1
    23    12    13    1
    24     5     6   ar
    25     6     7   ar
    26     7     2   ar
    27    20    15   ar
    28    26    21    1
    29    13     8    1
@<TRIPOS>MOLECULE
*****
 26 29 0 0 0
SMALL
GASTEIGER

@<TRIPOS>ATOM
      1 C           4.3032    0.6780   19.2894 C.3     1  UNL1        0.0991
      2 C           0.6580    3.1025   18.2482 C.ar    1  UNL1       -0.0000
      3 C           0.5598    1.6098   18.3575 C.ar    1  UNL1       -0.0003
      4 C           1.7749    0.8016   18.7045 C.ar    1  UNL1       -0.0029
      5 C           3.0881    1.4862   18.9423 C.ar    1  UNL1       -0.0061
      6 C           3.1864    2.9789   18.8330 C.ar    1  UNL1       -0.0029
      7 C           1.9713    3.7871   18.4860 C.ar    1  UNL1       -0.0003
      8 N           5.5977    0.9246   18.5730 N.3     1  UNL1       -0.2690
      9 C           6.8141    1.3430   19.3446 C.3     1  UNL1        0.0724
     10 C           8.1087    1.5896   18.6281 C.3     1  UNL1        0.0174
     11 C           8.1869    1.4178   17.1400 C.3     1  UNL1        0.0029
     12 C           6.9705    0.9994   16.3684 C.3     1  UNL1        0.0174
     13 C           5.6760    0.7528   17.0848 C.3     1  UNL1        0.0724
     14 C           4.2237   -0.3768   20.3529 C.3     1  UNL1        0.0991
     15 C           4.3842   -1.8230   19.9884 C.ar    1  UNL1       -0.0061
     16 C           5.7145   -2.4955   20.1559 C.ar    1  UNL1       -0.0029
     17 C           5.8750   -3.9417   19.7914 C.ar    1  UNL1       -0.0003
     18 C           4.7051   -4.7153   19.2594 C.ar    1  UNL1       -0.0000
     19 C           3.3748   -4.0428   19.0919 C.ar    1  UNL1       -0.0003
     20 C           3.2144   -2.5966   19.4564 C.ar    1  UNL1       -0.0029
     21 N           3.9838    0.0146   21.7810 N.3     1  UNL1       -0.2690
     22 C           4.5808    1.2797   22.3224 C.3     1  UNL1        0.0724
     23 C           4.3409    1.6711   23.7503 C.3     1  UNL1        0.0174
     24 C           3.5040    0.7973   24.6371 C.3     1  UNL1        0.0029
     25 C           2.9070   -0.4678   24.0957 C.3     1  UNL1        0.0174
     26 C           3.1469   -0.8592   22.6676 C.3     1  UNL1        0.0724
@<TRIPOS>BOND
     1     2     3   ar
     2     3     4   ar
     3     4     5   ar
     4     5     1    1
     5     1    14    1
     6    14    15    1
     7    15    16   ar
     8    16    17   ar
     9    17    18   ar
    10    18    19   ar
    11    19    20   ar
    12    14    21    1
    13    21    22    1
    14    22    23    1
    15    23    24    1
    16    24    25    1
    17    25    26    1
    18     1     8    1
    19     8     9    1
    20     9    10    1
    21    10    11    1
    22    11    12    1
    23    12    13    1
    24     5     6   ar
    25     6     7   ar
    26     7     2   ar
    27    20    15   ar
    28    26    21    1
    29    13     8    1
@<TRIPOS>MOLECULE
*****
 26 29 0 0 0
SMALL
GASTEIGER

@<TRIPOS>ATOM
      1 C           4.2190   -0.3111   20.3494 C.3     1  UNL1        0.0991
      2 C           4.7356   -4.6417   19.2406 C.ar    1  UNL1       -0.0000
      3 C           5.9118   -3.8454   19.7228 C.ar    1  UNL1       -0.0003
      4 C           5.7396   -2.4019   20.0924 C.ar    1  UNL1       -0.0029
      5 C           4.3912   -1.7546   19.9798 C.ar    1  UNL1       -0.0061
      6 C           3.2150   -2.5508   19.4976 C.ar    1  UNL1       -0.0029
      7 C           3.3872   -3.9944   19.1280 C.ar    1  UNL1       -0.0003
      8 N           3.9577    0.0718   21.7759 N.3     1  UNL1       -0.2690
      9 C           4.4765    1.3740   22.3100 C.3     1  UNL1        0.0724
     10 C           4.2152    1.7569   23.7366 C.3     1  UNL1        0.0174
     11 C           3.4352    0.8377   24.6291 C.3     1  UNL1        0.0029
     12 C           2.9165   -0.4645   24.0950 C.3     1  UNL1        0.0174
     13 C           3.1777   -0.8474   22.6685 C.3     1  UNL1        0.0724
     14 C           4.3080    0.7495   19.2924 C.3     1  UNL1        0.0991
     15 C           3.0965    1.5609   18.9402 C.ar    1  UNL1       -0.0061
     16 C           1.7747    0.8832   18.7313 C.ar    1  UNL1       -0.0029
     17 C           0.5633    1.6946   18.3790 C.ar    1  UNL1       -0.0003
     18 C           0.6737    3.1837   18.2358 C.ar    1  UNL1       -0.0000
     19 C           1.9954    3.8613   18.4447 C.ar    1  UNL1       -0.0003
     20 C           3.2069    3.0499   18.7969 C.ar    1  UNL1       -0.0029
     21 N           5.6085    0.9987   18.5876 N.3     1  UNL1       -0.2690
     22 C           5.7280    0.7294   17.1168 C.3     1  UNL1        0.0724
     23 C           7.0284    0.9786   16.4120 C.3     1  UNL1        0.0174
     24 C           8.2094    1.4971   17.1780 C.3     1  UNL1        0.0029
     25 C           8.0898    1.7664   18.6488 C.3     1  UNL1        0.0174
     26 C           6.7893    1.5172   19.3536 C.3     1  UNL1        0.0724
@<TRIPOS>BOND
     1     2     3   ar
     2     3     4   ar
     3     4     5   ar
     4     5     1    1
     5     1    14    1
     6    14    15    1
     7    15    16   ar
     8    16    17   ar
     9    17    18   ar
    10    18    19   ar
    11    19    20   ar
    12    14    21    1
    13    21    22    1
    14    22    23    1
    15    23    24    1
    16    24    25    1
    17    25    26    1
    18     1     8    1
    19     8     9    1
    20     9    10    1
    21    10    11    1
    22    11    12    1
    23    12    13    1
    24     5     6   ar
    25     6     7   ar
    26     7     2   ar
    27    20    15   ar
    28    26    21    1
    29    13     8    1
@<TRIPOS>MOLECULE
*****
 26 29 0 0 0
SMALL
GASTEIGER

@<TRIPOS>ATOM
      1 C           4.2316   -0.3267   20.3702 C.3     1  UNL1        0.0991
      2 C           4.7025   -4.6632   19.2642 C.ar    1  UNL1       -0.0000
      3 C           3.3696   -3.9916   19.1150 C.ar    1  UNL1       -0.0003
      4 C           3.2127   -2.5461   19.4836 C.ar    1  UNL1       -0.0029
      5 C           4.3886   -1.7722   20.0016 C.ar    1  UNL1       -0.0061
      6 C           5.7215   -2.4438   20.1508 C.ar    1  UNL1       -0.0029
      7 C           5.8784   -3.8893   19.7821 C.ar    1  UNL1       -0.0003
      8 N           3.9847    0.0606   21.7982 N.3     1  UNL1       -0.2690
      9 C           3.2671   -0.8825   22.7177 C.3     1  UNL1        0.0724
     10 C           3.0202   -0.4952   24.1457 C.3     1  UNL1        0.0174
     11 C           3.4910    0.8352   24.6541 C.3     1  UNL1        0.0029
     12 C           4.2085    1.7783   23.7345 C.3     1  UNL1        0.0174
     13 C           4.4554    1.3910   22.3066 C.3     1  UNL1        0.0724
     14 C           4.3215    0.7315   19.3110 C.3     1  UNL1        0.0991
     15 C           5.6214    0.9759   18.6034 C.ar    1  UNL1       -0.0061
     16 C           5.7248    0.7472   17.1245 C.ar    1  UNL1       -0.0029
     17 C           7.0246    0.9916   16.4169 C.ar    1  UNL1       -0.0003
     18 C           8.2211    1.4647   17.1882 C.ar    1  UNL1       -0.0000
     19 C           8.1176    1.6933   18.6671 C.ar    1  UNL1       -0.0003
     20 C           6.8178    1.4489   19.3746 C.ar    1  UNL1       -0.0029
     21 N           3.1116    1.5454   18.9593 N.3     1  UNL1       -0.2690
     22 C           1.7866    0.8713   18.7589 C.3     1  UNL1        0.0724
     23 C           0.5767    1.6851   18.4072 C.3     1  UNL1        0.0174
     24 C           0.6917    3.1731   18.2558 C.3     1  UNL1        0.0029
     25 C           2.0166    3.8472   18.4562 C.3     1  UNL1        0.0174
     26 C           3.2266    3.0333   18.8079 C.3     1  UNL1        0.0724
@<TRIPOS>BOND
     1     2     3   ar
     2     3     4   ar
     3     4     5   ar
     4     5     1    1
     5     1    14    1
     6    14    15    1
     7    15    16   ar
     8    16    17   ar
     9    17    18   ar
    10    18    19   ar
    11    19    20   ar
    12    14    21    1
    13    21    22    1
    14    22    23    1
    15    23    24    1
    16    24    25    1
    17    25    26    1
    18     1     8    1
    19     8     9    1
    20     9    10    1
    21    10    11    1
    22    11    12    1
    23    12    13    1
    24     5     6   ar
    25     6     7   ar
    26     7     2   ar
    27    20    15   ar
    28    26    21    1
    29    13     8    1
@<TRIPOS>MOLECULE
*****
 26 29 0 0 0
SMALL
GASTEIGER

@<TRIPOS>ATOM
      1 C           3.7708   -0.0853   29.6192 C.3     1  UNL1        0.0991
      2 C           4.8722   -0.2274   25.2584 C.ar    1  UNL1       -0.0000
      3 C           5.3742    0.8910   26.1227 C.ar    1  UNL1       -0.0003
      4 C           5.0071    0.9384   27.5763 C.ar    1  UNL1       -0.0029
      5 C           4.1380   -0.1327   28.1656 C.ar    1  UNL1       -0.0061
      6 C           3.6360   -1.2511   27.3014 C.ar    1  UNL1       -0.0029
      7 C           4.0031   -1.2985   25.8477 C.ar    1  UNL1       -0.0003
      8 N           4.4563   -0.9943   30.5959 N.3     1  UNL1       -0.2690
      9 C           3.7668   -1.3828   31.8701 C.3     1  UNL1        0.0724
     10 C           4.4523   -2.2918   32.8468 C.3     1  UNL1        0.0174
     11 C           5.8272   -2.8123   32.5492 C.3     1  UNL1        0.0029
     12 C           6.5167   -2.4239   31.2750 C.3     1  UNL1        0.0174
     13 C           5.8313   -1.5149   30.2983 C.3     1  UNL1        0.0724
     14 C           2.7183    0.8710   30.0962 C.3     1  UNL1        0.0991
     15 C           1.4402    1.0248   29.3262 C.ar    1  UNL1       -0.0061
     16 C           0.5006   -0.1369   29.1928 C.ar    1  UNL1       -0.0029
     17 C          -0.7774    0.0168   28.4228 C.ar    1  UNL1       -0.0003
     18 C          -1.1159    1.3323   27.7862 C.ar    1  UNL1       -0.0000
     19 C          -0.1763    2.4939   27.9196 C.ar    1  UNL1       -0.0003
     20 C           1.1018    2.3401   28.6896 C.ar    1  UNL1       -0.0029
     21 N           2.9438    1.6736   31.3432 N.3     1  UNL1       -0.2690
     22 C           1.8806    1.7325   32.3997 C.3     1  UNL1        0.0724
     23 C           2.1061    2.5351   33.6467 C.3     1  UNL1        0.0174
     24 C           3.3948    3.2789   33.8372 C.3     1  UNL1        0.0029
     25 C           4.4579    3.2200   32.7807 C.3     1  UNL1        0.0174
     26 C           4.2324    2.4173   31.5337 C.3     1  UNL1        0.0724
@<TRIPOS>BOND
     1     2     3   ar
     2     3     4   ar
     3     4     5   ar
     4     5     1    1
     5     1    14    1
     6    14    15    1
     7    15    16   ar
     8    16    17   ar
     9    17    18   ar
    10    18    19   ar
    11    19    20   ar
    12    14    21    1
    13    21    22    1
    14    22    23    1
    15    23    24    1
    16    24    25    1
    17    25    26    1
    18     1     8    1
    19     8     9    1
    20     9    10    1
    21    10    11    1
    22    11    12    1
    23    12    13    1
    24     5     6   ar
    25     6     7   ar
    26     7     2   ar
    27    20    15   ar
    28    26    21    1
    29    13     8    1
