@<TRIPOS>MOLECULE
*****
 37 41 0 0 0
SMALL
GASTEIGER

@<TRIPOS>ATOM
      1 C          -0.4440    3.0096   25.4694 C.3     1  UNL1        0.0972
      2 C           0.8772    3.6081   25.8520 C.3     1  UNL1        0.0431
      3 C           1.4641    2.7720   26.9504 C.3     1  UNL1        0.0968
      4 N           0.5057    1.6568   27.2467 N.am    1  UNL1       -0.2623
      5 C           0.6935    0.5832   28.2772 C.2     1  UNL1        0.3073
      6 O          -0.3567   -0.4719   28.4612 O.2     1  UNL1       -0.2523
      7 N           1.9316    0.5647   29.1239 N.am    1  UNL1       -0.2626
      8 C           3.0621    1.5480   29.0542 C.3     1  UNL1        0.0964
      9 C           4.0858    1.1506   30.0761 C.3     1  UNL1        0.0392
     10 C           3.5879   -0.0784   30.7773 C.3     1  UNL1        0.0791
     11 C           2.2565   -0.4405   30.1888 C.3     1  UNL1        0.1109
     12 C          -0.6735    1.8036   26.3314 C.3     1  UNL1        0.1147
     13 C          -1.0034    3.3996   22.9624 C.2     1  UNL1        0.2551
     14 O          -1.9319    3.9164   21.9038 O.2     1  UNL1       -0.2694
     15 N          -1.3725    3.5264   24.4108 N.am    1  UNL1       -0.2738
     16 C          -2.6701    4.1700   24.8004 C.3     1  UNL1        0.1152
     17 C           1.9445    1.1031   21.9128 C.ar    1  UNL1        0.0296
     18 C           2.6377    2.4279   22.0331 C.ar    1  UNL1        0.0071
     19 C           1.6178    3.4494   22.4409 C.ar    1  UNL1        0.0115
     20 C           0.2943    2.7560   22.5727 C.ar    1  UNL1        0.0830
     21 S           0.4962    1.3059   22.2463 S.2     1  UNL1       -0.0824
     22 C           3.8715   -2.7951   20.7549 C.ar    1  UNL1       -0.0222
     23 C           3.0600   -2.0321   19.7504 C.ar    1  UNL1       -0.0043
     24 C           2.4177   -0.7327   20.1363 C.ar    1  UNL1        0.0002
     25 C           2.5868   -0.1963   21.5269 C.ar    1  UNL1        0.0060
     26 C           3.3984   -0.9593   22.5314 C.ar    1  UNL1        0.0002
     27 C           4.0407   -2.2587   22.1455 C.ar    1  UNL1       -0.0043
     28 C           4.2296   -4.7023   19.0274 C.3     1  UNL1        0.0050
     29 C           4.5138   -4.0945   20.3689 C.3     1  UNL1        0.0264
     30 N           4.2969   -0.8157   31.8744 N.3     1  UNL1       -0.2723
     31 C           4.0116   -0.4817   33.3087 C.3     1  UNL1        0.0896
     32 C           5.2912   -1.8870   31.5373 C.3     1  UNL1        0.0626
     33 C           5.9330   -1.9149   30.1817 C.3     1  UNL1        0.0481
     34 C           6.9273   -2.9861   29.8446 C.3     1  UNL1        0.1435
     35 O           7.2799   -4.0296   30.8629 O.3     1  UNL1       -0.3537
     36 C           6.6381   -4.0017   32.2184 C.3     1  UNL1        0.1435
     37 C           5.6437   -2.9304   32.5556 C.3     1  UNL1        0.0481
@<TRIPOS>BOND
     1    28    29    1
     2    29    22    1
     3    22    23   ar
     4    23    24   ar
     5    24    25   ar
     6    25    17    1
     7    17    18   ar
     8    18    19   ar
     9    19    20   ar
    10    20    13    1
    11    13    14    2
    12    13    15   am
    13    15    16    1
    14     1    15    1
    15     1     2    1
    16     2     3    1
    17     3     4    1
    18     4     5   am
    19     5     6    2
    20     5     7   am
    21     7     8    1
    22     8     9    1
    23     9    10    1
    24    10    30    1
    25    30    31    1
    26    30    32    1
    27    32    33    1
    28    33    34    1
    29    34    35    1
    30    35    36    1
    31    36    37    1
    32    10    11    1
    33     4    12    1
    34    20    21   ar
    35    25    26   ar
    36    26    27   ar
    37    27    22   ar
    38    21    17   ar
    39    12     1    1
    40    11     7    1
    41    37    32    1
@<TRIPOS>MOLECULE
*****
 37 41 0 0 0
SMALL
GASTEIGER

@<TRIPOS>ATOM
      1 C           1.1554    5.3103   21.2527 C.3     1  UNL1        0.0972
      2 C          -0.2262    5.2377   21.8321 C.3     1  UNL1        0.0431
      3 C          -0.1725    4.3653   23.0511 C.3     1  UNL1        0.0968
      4 N           1.2424    3.8988   23.2252 N.am    1  UNL1       -0.2623
      5 C           1.7479    3.0051   24.3187 C.2     1  UNL1        0.3073
      6 O           3.1973    2.6211   24.3638 O.2     1  UNL1       -0.2523
      7 N           0.8041    2.4954   25.3672 N.am    1  UNL1       -0.2626
      8 C          -0.6637    2.7926   25.4517 C.3     1  UNL1        0.0964
      9 C          -1.2126    2.0798   26.6520 C.3     1  UNL1        0.0392
     10 C          -0.0840    1.3422   27.3094 C.3     1  UNL1        0.0791
     11 C           1.1624    1.5990   26.5154 C.3     1  UNL1        0.1109
     12 C           2.0632    4.4828   22.1138 C.3     1  UNL1        0.1147
     13 C           1.7781    5.3547   18.7307 C.2     1  UNL1        0.2551
     14 O           2.1813    6.1203   17.5055 O.2     1  UNL1       -0.2694
     15 N           1.5587    6.0760   20.0275 N.am    1  UNL1       -0.2738
     16 C           1.7424    7.5629   20.0990 C.3     1  UNL1        0.1152
     17 C           2.0525    1.4846   18.6169 C.ar    1  UNL1        0.0296
     18 C           0.5707    1.6743   18.4812 C.ar    1  UNL1        0.0071
     19 C           0.2876    3.1471   18.5074 C.ar    1  UNL1        0.0115
     20 C           1.5943    3.8677   18.6592 C.ar    1  UNL1        0.0830
     21 S           2.6851    2.8402   18.7268 S.2     1  UNL1       -0.0824
     22 C           4.2194   -2.4587   18.6824 C.ar    1  UNL1       -0.0222
     23 C           4.5166   -1.4574   17.6058 C.ar    1  UNL1       -0.0043
     24 C           3.7943   -0.1430   17.5840 C.ar    1  UNL1        0.0002
     25 C           2.7748    0.1702   18.6387 C.ar    1  UNL1        0.0060
     26 C           2.4776   -0.8311   19.7153 C.ar    1  UNL1        0.0002
     27 C           3.1999   -2.1456   19.7371 C.ar    1  UNL1       -0.0043
     28 C           4.1925   -5.0357   19.0119 C.3     1  UNL1        0.0050
     29 C           4.9418   -3.7732   18.7042 C.3     1  UNL1        0.0264
     30 N          -0.1843    0.4963   28.5440 N.3     1  UNL1       -0.2723
     31 C          -1.2946   -0.5030   28.6803 C.3     1  UNL1        0.0896
     32 C           0.8258    0.6496   29.6423 C.3     1  UNL1        0.0626
     33 C           1.9326   -0.3522   29.7887 C.3     1  UNL1        0.0481
     34 C           2.9426   -0.1989   30.8869 C.3     1  UNL1        0.1435
     35 O           2.8460    0.9563   31.8389 O.3     1  UNL1       -0.3537
     36 C           1.7392    1.9581   31.6926 C.3     1  UNL1        0.1435
     37 C           0.7291    1.8048   30.5943 C.3     1  UNL1        0.0481
@<TRIPOS>BOND
     1    28    29    1
     2    29    22    1
     3    22    23   ar
     4    23    24   ar
     5    24    25   ar
     6    25    17    1
     7    17    18   ar
     8    18    19   ar
     9    19    20   ar
    10    20    13    1
    11    13    14    2
    12    13    15   am
    13    15    16    1
    14     1    15    1
    15     1     2    1
    16     2     3    1
    17     3     4    1
    18     4     5   am
    19     5     6    2
    20     5     7   am
    21     7     8    1
    22     8     9    1
    23     9    10    1
    24    10    30    1
    25    30    31    1
    26    30    32    1
    27    32    33    1
    28    33    34    1
    29    34    35    1
    30    35    36    1
    31    36    37    1
    32    10    11    1
    33     4    12    1
    34    20    21   ar
    35    25    26   ar
    36    26    27   ar
    37    27    22   ar
    38    21    17   ar
    39    12     1    1
    40    11     7    1
    41    37    32    1
@<TRIPOS>MOLECULE
*****
 37 41 0 0 0
SMALL
GASTEIGER

@<TRIPOS>ATOM
      1 C           7.8582   -3.1045   21.1676 C.3     1  UNL1        0.0972
      2 C           7.2652   -4.3912   21.6600 C.3     1  UNL1        0.0431
      3 C           7.2303   -4.3419   23.1588 C.3     1  UNL1        0.0968
      4 N           7.8017   -3.0246   23.5927 N.am    1  UNL1       -0.2623
      5 C           7.9577   -2.5546   25.0086 C.2     1  UNL1        0.3073
      6 O           8.5492   -1.2052   25.2900 O.2     1  UNL1       -0.2523
      7 N           7.5221   -3.4340   26.1430 N.am    1  UNL1       -0.2626
      8 C           6.9170   -4.8007   26.0169 C.3     1  UNL1        0.0964
      9 C           6.6361   -5.3125   27.3987 C.3     1  UNL1        0.0392
     10 C           7.0676   -4.2621   28.3787 C.3     1  UNL1        0.0791
     11 C           7.6152   -3.1011   27.6026 C.3     1  UNL1        0.1109
     12 C           8.1897   -2.2598   22.3620 C.3     1  UNL1        0.1147
     13 C           6.9301   -2.2553   18.8943 C.2     1  UNL1        0.2551
     14 O           7.1524   -1.8792   17.4594 O.2     1  UNL1       -0.2694
     15 N           8.0805   -2.7283   19.7326 N.am    1  UNL1       -0.2738
     16 C           9.4533   -2.8251   19.1360 C.3     1  UNL1        0.1152
     17 C           3.6465   -1.3849   20.7720 C.ar    1  UNL1        0.0296
     18 C           3.2429   -2.6340   20.0461 C.ar    1  UNL1        0.0071
     19 C           4.4238   -3.1121   19.2543 C.ar    1  UNL1        0.0115
     20 C           5.5572   -2.1585   19.4909 C.ar    1  UNL1        0.0830
     21 S           5.0768   -1.0911   20.4289 S.2     1  UNL1       -0.0824
     22 C           1.0262    1.0527   23.5000 C.ar    1  UNL1       -0.0222
     23 C           0.7400    1.0076   22.0283 C.ar    1  UNL1       -0.0043
     24 C           1.6134    0.1950   21.1190 C.ar    1  UNL1        0.0002
     25 C           2.7730   -0.5724   21.6813 C.ar    1  UNL1        0.0060
     26 C           3.0593   -0.5272   23.1530 C.ar    1  UNL1        0.0002
     27 C           2.1859    0.2853   24.0624 C.ar    1  UNL1       -0.0043
     28 C          -0.2065    1.3424   25.7686 C.3     1  UNL1        0.0050
     29 C           0.1528    1.8653   24.4094 C.3     1  UNL1        0.0264
     30 N           6.9689   -4.3561   29.8725 N.3     1  UNL1       -0.2723
     31 C           6.9460   -5.6995   30.5394 C.3     1  UNL1        0.0896
     32 C           6.8931   -3.1069   30.6993 C.3     1  UNL1        0.0626
     33 C           7.8296   -2.9145   31.8552 C.3     1  UNL1        0.0481
     34 C           7.7539   -1.6653   32.6820 C.3     1  UNL1        0.1435
     35 O           6.7416   -0.6083   32.3529 O.3     1  UNL1       -0.3537
     36 C           5.8052   -0.8007   31.1970 C.3     1  UNL1        0.1435
     37 C           5.8809   -2.0499   30.3702 C.3     1  UNL1        0.0481
@<TRIPOS>BOND
     1    28    29    1
     2    29    22    1
     3    22    23   ar
     4    23    24   ar
     5    24    25   ar
     6    25    17    1
     7    17    18   ar
     8    18    19   ar
     9    19    20   ar
    10    20    13    1
    11    13    14    2
    12    13    15   am
    13    15    16    1
    14     1    15    1
    15     1     2    1
    16     2     3    1
    17     3     4    1
    18     4     5   am
    19     5     6    2
    20     5     7   am
    21     7     8    1
    22     8     9    1
    23     9    10    1
    24    10    30    1
    25    30    31    1
    26    30    32    1
    27    32    33    1
    28    33    34    1
    29    34    35    1
    30    35    36    1
    31    36    37    1
    32    10    11    1
    33     4    12    1
    34    20    21   ar
    35    25    26   ar
    36    26    27   ar
    37    27    22   ar
    38    21    17   ar
    39    12     1    1
    40    11     7    1
    41    37    32    1
@<TRIPOS>MOLECULE
*****
 37 41 0 0 0
SMALL
GASTEIGER

@<TRIPOS>ATOM
      1 C           3.6809   -0.5212   19.5026 C.3     1  UNL1        0.0972
      2 C           3.1305   -1.3213   20.6458 C.3     1  UNL1        0.0431
      3 C           2.4248   -0.3780   21.5745 C.3     1  UNL1        0.0968
      4 N           2.5391    1.0050   21.0052 N.am    1  UNL1       -0.2623
      5 C           1.9759    2.2568   21.6101 C.2     1  UNL1        0.3073
      6 O           2.1710    3.5756   20.9225 O.2     1  UNL1       -0.2523
      7 N           1.2177    2.1897   22.9026 N.am    1  UNL1       -0.2626
      8 C           0.9440    0.9496   23.7009 C.3     1  UNL1        0.0964
      9 C           0.1572    1.3445   24.9155 C.3     1  UNL1        0.0392
     10 C          -0.0553    2.8286   24.8678 C.3     1  UNL1        0.0791
     11 C           0.6001    3.3510   23.6238 C.3     1  UNL1        0.1109
     12 C           3.3153    0.9166   19.7247 C.3     1  UNL1        0.1147
     13 C           5.7710   -1.7541   18.5745 C.2     1  UNL1        0.2551
     14 O           6.5501   -2.2965   17.4132 O.2     1  UNL1       -0.2694
     15 N           4.4600   -1.0636   18.3412 N.am    1  UNL1       -0.2738
     16 C           3.9282   -0.9154   16.9466 C.3     1  UNL1        0.1152
     17 C           6.9065   -2.8490   22.1210 C.ar    1  UNL1        0.0296
     18 C           7.3364   -1.4119   22.1098 C.ar    1  UNL1        0.0071
     19 C           6.9634   -0.8269   20.7799 C.ar    1  UNL1        0.0115
     20 C           6.3029   -1.9023   19.9692 C.ar    1  UNL1        0.0830
     21 S           6.2677   -3.1520   20.7981 S.2     1  UNL1       -0.0824
     22 C           7.4393   -5.7427   25.5258 C.ar    1  UNL1       -0.0222
     23 C           8.0943   -6.0116   24.2035 C.ar    1  UNL1       -0.0043
     24 C           7.9167   -5.0470   23.0686 C.ar    1  UNL1        0.0002
     25 C           7.0841   -3.8135   23.2560 C.ar    1  UNL1        0.0060
     26 C           6.4291   -3.5446   24.5783 C.ar    1  UNL1        0.0002
     27 C           6.6067   -4.5092   25.7132 C.ar    1  UNL1       -0.0043
     28 C           8.0332   -8.1216   26.3848 C.3     1  UNL1        0.0050
     29 C           7.6169   -6.7072   26.6607 C.3     1  UNL1        0.0264
     30 N          -0.7937    3.6467   25.8854 N.3     1  UNL1       -0.2723
     31 C          -0.0382    4.3484   26.9749 C.3     1  UNL1        0.0896
     32 C          -2.2874    3.7630   25.8137 C.3     1  UNL1        0.0626
     33 C          -3.0626    4.2205   27.0137 C.3     1  UNL1        0.0481
     34 C          -4.5563    4.3368   26.9419 C.3     1  UNL1        0.1435
     35 O          -5.2750    3.9956   25.6702 O.3     1  UNL1       -0.3537
     36 C          -4.4998    3.5381   24.4703 C.3     1  UNL1        0.1435
     37 C          -3.0060    3.4217   24.5420 C.3     1  UNL1        0.0481
@<TRIPOS>BOND
     1    28    29    1
     2    29    22    1
     3    22    23   ar
     4    23    24   ar
     5    24    25   ar
     6    25    17    1
     7    17    18   ar
     8    18    19   ar
     9    19    20   ar
    10    20    13    1
    11    13    14    2
    12    13    15   am
    13    15    16    1
    14     1    15    1
    15     1     2    1
    16     2     3    1
    17     3     4    1
    18     4     5   am
    19     5     6    2
    20     5     7   am
    21     7     8    1
    22     8     9    1
    23     9    10    1
    24    10    30    1
    25    30    31    1
    26    30    32    1
    27    32    33    1
    28    33    34    1
    29    34    35    1
    30    35    36    1
    31    36    37    1
    32    10    11    1
    33     4    12    1
    34    20    21   ar
    35    25    26   ar
    36    26    27   ar
    37    27    22   ar
    38    21    17   ar
    39    12     1    1
    40    11     7    1
    41    37    32    1
@<TRIPOS>MOLECULE
*****
 37 41 0 0 0
SMALL
GASTEIGER

@<TRIPOS>ATOM
      1 C          -2.0709    4.4139   19.3877 C.3     1  UNL1        0.0972
      2 C          -0.8691    4.9865   18.6965 C.3     1  UNL1        0.0431
      3 C           0.2233    3.9595   18.7391 C.3     1  UNL1        0.0968
      4 N          -0.3033    2.7521   19.4566 N.am    1  UNL1       -0.2623
      5 C           0.4548    1.4862   19.7259 C.2     1  UNL1        0.3073
      6 O          -0.2069    0.3572   20.4592 O.2     1  UNL1       -0.2523
      7 N           1.8747    1.3491   19.2620 N.am    1  UNL1       -0.2626
      8 C           2.6641    2.3872   18.5211 C.3     1  UNL1        0.0964
      9 C           4.0318    1.8296   18.2587 C.3     1  UNL1        0.0392
     10 C           4.0875    0.4469   18.8376 C.3     1  UNL1        0.0791
     11 C           2.7543    0.1500   19.4577 C.3     1  UNL1        0.1109
     12 C          -1.7212    3.0329   19.8574 C.3     1  UNL1        0.1147
     13 C          -3.8072    5.5643   20.9407 C.2     1  UNL1        0.2551
     14 O          -5.1270    6.2519   21.1290 O.2     1  UNL1       -0.2694
     15 N          -3.3907    5.1014   19.5760 N.am    1  UNL1       -0.2738
     16 C          -4.2939    5.3262   18.3998 C.3     1  UNL1        0.1152
     17 C          -1.8231    4.3190   24.0355 C.ar    1  UNL1        0.0296
     18 C          -1.2052    5.6686   23.8189 C.ar    1  UNL1        0.0071
     19 C          -1.8733    6.2993   22.6332 C.ar    1  UNL1        0.0115
     20 C          -2.9040    5.3396   22.1170 C.ar    1  UNL1        0.0830
     21 S          -2.8730    4.1157   22.9836 S.2     1  UNL1       -0.0824
     22 C          -0.7204    1.3938   27.2723 C.ar    1  UNL1       -0.0222
     23 C          -1.7116    2.4841   27.5527 C.ar    1  UNL1       -0.0043
     24 C          -2.0792    3.4592   26.4737 C.ar    1  UNL1        0.0002
     25 C          -1.4555    3.3439   25.1144 C.ar    1  UNL1        0.0060
     26 C          -0.4643    2.2536   24.8341 C.ar    1  UNL1        0.0002
     27 C          -0.0968    1.2785   25.9130 C.ar    1  UNL1       -0.0043
     28 C          -1.3376   -0.6264   28.7849 C.3     1  UNL1        0.0050
     29 C          -0.3529    0.4187   28.3513 C.3     1  UNL1        0.0264
     30 N           5.2689   -0.4766   18.8025 N.3     1  UNL1       -0.2723
     31 C           6.5761   -0.0011   18.2413 C.3     1  UNL1        0.0896
     32 C           5.1431   -1.8757   19.3287 C.3     1  UNL1        0.0626
     33 C           5.3643   -2.1514   20.7865 C.3     1  UNL1        0.0481
     34 C           5.2385   -3.5504   21.3127 C.3     1  UNL1        0.1435
     35 O           4.8915   -4.6738   20.3811 O.3     1  UNL1       -0.3537
     36 C           4.6704   -4.3980   18.9234 C.3     1  UNL1        0.1435
     37 C           4.7961   -2.9990   18.3971 C.3     1  UNL1        0.0481
@<TRIPOS>BOND
     1    28    29    1
     2    29    22    1
     3    22    23   ar
     4    23    24   ar
     5    24    25   ar
     6    25    17    1
     7    17    18   ar
     8    18    19   ar
     9    19    20   ar
    10    20    13    1
    11    13    14    2
    12    13    15   am
    13    15    16    1
    14     1    15    1
    15     1     2    1
    16     2     3    1
    17     3     4    1
    18     4     5   am
    19     5     6    2
    20     5     7   am
    21     7     8    1
    22     8     9    1
    23     9    10    1
    24    10    30    1
    25    30    31    1
    26    30    32    1
    27    32    33    1
    28    33    34    1
    29    34    35    1
    30    35    36    1
    31    36    37    1
    32    10    11    1
    33     4    12    1
    34    20    21   ar
    35    25    26   ar
    36    26    27   ar
    37    27    22   ar
    38    21    17   ar
    39    12     1    1
    40    11     7    1
    41    37    32    1
@<TRIPOS>MOLECULE
*****
 37 41 0 0 0
SMALL
GASTEIGER

@<TRIPOS>ATOM
      1 C          -0.6225    2.5005   26.9876 C.3     1  UNL1        0.0972
      2 C          -0.4641    1.0156   27.1281 C.3     1  UNL1        0.0431
      3 C           0.5027    0.7561   28.2452 C.3     1  UNL1        0.0968
      4 N           0.9418    2.0808   28.7952 N.am    1  UNL1       -0.2623
      5 C           1.9069    2.2905   29.9242 C.2     1  UNL1        0.3073
      6 O           2.2523    3.6814   30.3670 O.2     1  UNL1       -0.2523
      7 N           2.5266    1.1093   30.6104 N.am    1  UNL1       -0.2626
      8 C           2.2787   -0.3325   30.2794 C.3     1  UNL1        0.0964
      9 C           3.1019   -1.1704   31.2125 C.3     1  UNL1        0.0392
     10 C           3.8585   -0.2462   32.1200 C.3     1  UNL1        0.0791
     11 C           3.5029    1.1627   31.7479 C.3     1  UNL1        0.1109
     12 C           0.2465    3.1589   28.0180 C.3     1  UNL1        0.1147
     13 C          -1.0697    3.3016   24.5569 C.2     1  UNL1        0.2551
     14 O          -1.9436    4.0048   23.5609 O.2     1  UNL1       -0.2694
     15 N          -1.4963    3.2037   25.9916 N.am    1  UNL1       -0.2738
     16 C          -2.7967    3.8090   26.4304 C.3     1  UNL1        0.1152
     17 C           1.8615    1.1823   23.1492 C.ar    1  UNL1        0.0296
     18 C           2.6019    2.3473   23.7363 C.ar    1  UNL1        0.0071
     19 C           1.5940    3.2830   24.3350 C.ar    1  UNL1        0.0115
     20 C           0.2307    2.6963   24.1181 C.ar    1  UNL1        0.0830
     21 S           0.3960    1.3980   23.3852 S.2     1  UNL1       -0.0824
     22 C           3.7120   -2.3412   21.0490 C.ar    1  UNL1       -0.0222
     23 C           4.0342   -2.0726   22.4891 C.ar    1  UNL1       -0.0043
     24 C           3.4173   -0.8981   23.1892 C.ar    1  UNL1        0.0002
     25 C           2.4784    0.0078   22.4491 C.ar    1  UNL1        0.0060
     26 C           2.1562   -0.2609   21.0090 C.ar    1  UNL1        0.0002
     27 C           2.7731   -1.4353   20.3089 C.ar    1  UNL1       -0.0043
     28 C           3.5937   -4.1930   19.2306 C.3     1  UNL1        0.0050
     29 C           4.3288   -3.5157   20.3489 C.3     1  UNL1        0.0264
     30 N           4.8045   -0.6587   33.2085 N.3     1  UNL1       -0.2723
     31 C           4.5674   -0.2072   34.6191 C.3     1  UNL1        0.0896
     32 C           5.9876   -1.5227   32.8864 C.3     1  UNL1        0.0626
     33 C           5.7811   -2.9288   32.4065 C.3     1  UNL1        0.0481
     34 C           6.9641   -3.7928   32.0844 C.3     1  UNL1        0.1435
     35 O           8.3539   -3.2507   32.2421 O.3     1  UNL1       -0.3537
     36 C           8.5604   -1.8446   32.7220 C.3     1  UNL1        0.1435
     37 C           7.3773   -0.9806   33.0441 C.3     1  UNL1        0.0481
@<TRIPOS>BOND
     1    28    29    1
     2    29    22    1
     3    22    23   ar
     4    23    24   ar
     5    24    25   ar
     6    25    17    1
     7    17    18   ar
     8    18    19   ar
     9    19    20   ar
    10    20    13    1
    11    13    14    2
    12    13    15   am
    13    15    16    1
    14     1    15    1
    15     1     2    1
    16     2     3    1
    17     3     4    1
    18     4     5   am
    19     5     6    2
    20     5     7   am
    21     7     8    1
    22     8     9    1
    23     9    10    1
    24    10    30    1
    25    30    31    1
    26    30    32    1
    27    32    33    1
    28    33    34    1
    29    34    35    1
    30    35    36    1
    31    36    37    1
    32    10    11    1
    33     4    12    1
    34    20    21   ar
    35    25    26   ar
    36    26    27   ar
    37    27    22   ar
    38    21    17   ar
    39    12     1    1
    40    11     7    1
    41    37    32    1
@<TRIPOS>MOLECULE
*****
 37 41 0 0 0
SMALL
GASTEIGER

@<TRIPOS>ATOM
      1 C           3.6224   -0.0977   30.2316 C.3     1  UNL1        0.0972
      2 C           3.8214    1.3192   29.7816 C.3     1  UNL1        0.0431
      3 C           2.5649    1.7689   29.0966 C.3     1  UNL1        0.0968
      4 N           1.5893    0.6298   29.1234 N.am    1  UNL1       -0.2623
      5 C           0.2036    0.6421   28.5495 C.2     1  UNL1        0.3073
      6 O          -0.6617   -0.5788   28.6523 O.2     1  UNL1       -0.2523
      7 N          -0.3170    1.8755   27.8727 N.am    1  UNL1       -0.2626
      8 C           0.4286    3.1649   27.6950 C.3     1  UNL1        0.0964
      9 C          -0.4682    4.1222   26.9673 C.3     1  UNL1        0.0392
     10 C          -1.7678    3.4244   26.6953 C.3     1  UNL1        0.0791
     11 C          -1.6744    2.0359   27.2549 C.3     1  UNL1        0.1109
     12 C           2.2428   -0.5238   29.8248 C.3     1  UNL1        0.1147
     13 C           5.7694   -1.5606   30.2125 C.2     1  UNL1        0.2551
     14 O           6.7735   -2.4035   30.9414 O.2     1  UNL1       -0.2694
     15 N           4.6265   -0.9406   30.9605 N.am    1  UNL1       -0.2738
     16 C           4.4878   -1.1636   32.4373 C.3     1  UNL1        0.1152
     17 C           5.7399   -1.6268   26.3318 C.ar    1  UNL1        0.0296
     18 C           6.5035   -0.3627   26.5944 C.ar    1  UNL1        0.0071
     19 C           6.6075   -0.1840   28.0800 C.ar    1  UNL1        0.0115
     20 C           5.9082   -1.3377   28.7357 C.ar    1  UNL1        0.0830
     21 S           5.3720   -2.2294   27.6552 S.2     1  UNL1       -0.0824
     22 C           4.7303   -3.3149   22.2845 C.ar    1  UNL1       -0.0222
     23 C           5.8221   -3.9353   23.1048 C.ar    1  UNL1       -0.0043
     24 C           6.1586   -3.3726   24.4539 C.ar    1  UNL1        0.0002
     25 C           5.4034   -2.1895   24.9827 C.ar    1  UNL1        0.0060
     26 C           4.3116   -1.5690   24.1624 C.ar    1  UNL1        0.0002
     27 C           3.9750   -2.1318   22.8133 C.ar    1  UNL1       -0.0043
     28 C           3.8784   -2.9752   19.8537 C.3     1  UNL1        0.0050
     29 C           4.3937   -3.8776   20.9354 C.3     1  UNL1        0.0264
     30 N          -2.9528    4.0121   25.9879 N.3     1  UNL1       -0.2723
     31 C          -3.9045    4.9019   26.7312 C.3     1  UNL1        0.0896
     32 C          -3.1861    3.7100   24.5373 C.3     1  UNL1        0.0626
     33 C          -4.5580    3.3349   24.0605 C.3     1  UNL1        0.0481
     34 C          -4.7913    3.0328   22.6100 C.3     1  UNL1        0.1435
     35 O          -3.6527    3.1057   21.6361 O.3     1  UNL1       -0.3537
     36 C          -2.2808    3.4807   22.1129 C.3     1  UNL1        0.1435
     37 C          -2.0475    3.7828   23.5635 C.3     1  UNL1        0.0481
@<TRIPOS>BOND
     1    28    29    1
     2    29    22    1
     3    22    23   ar
     4    23    24   ar
     5    24    25   ar
     6    25    17    1
     7    17    18   ar
     8    18    19   ar
     9    19    20   ar
    10    20    13    1
    11    13    14    2
    12    13    15   am
    13    15    16    1
    14     1    15    1
    15     1     2    1
    16     2     3    1
    17     3     4    1
    18     4     5   am
    19     5     6    2
    20     5     7   am
    21     7     8    1
    22     8     9    1
    23     9    10    1
    24    10    30    1
    25    30    31    1
    26    30    32    1
    27    32    33    1
    28    33    34    1
    29    34    35    1
    30    35    36    1
    31    36    37    1
    32    10    11    1
    33     4    12    1
    34    20    21   ar
    35    25    26   ar
    36    26    27   ar
    37    27    22   ar
    38    21    17   ar
    39    12     1    1
    40    11     7    1
    41    37    32    1
@<TRIPOS>MOLECULE
*****
 37 41 0 0 0
SMALL
GASTEIGER

@<TRIPOS>ATOM
      1 C           1.7943    0.7469   28.9261 C.3     1  UNL1        0.0972
      2 C           0.5733    0.1577   28.2843 C.3     1  UNL1        0.0431
      3 C          -0.2728    1.2865   27.7744 C.3     1  UNL1        0.0968
      4 N           0.4252    2.5733   28.1011 N.am    1  UNL1       -0.2623
      5 C          -0.0677    3.9516   27.7736 C.2     1  UNL1        0.3073
      6 O           0.7433    5.1510   28.1656 O.2     1  UNL1       -0.2523
      7 N          -1.3716    4.1305   27.0539 N.am    1  UNL1       -0.2626
      8 C          -2.2865    3.0315   26.6009 C.3     1  UNL1        0.0964
      9 C          -3.4699    3.6616   25.9279 C.3     1  UNL1        0.0392
     10 C          -3.2862    5.1498   25.9652 C.3     1  UNL1        0.0791
     11 C          -1.9894    5.4396   26.6611 C.3     1  UNL1        0.1109
     12 C           1.7028    2.2399   28.8129 C.3     1  UNL1        0.1147
     13 C           4.0506   -0.5269   28.7342 C.2     1  UNL1        0.2551
     14 O           5.1671   -1.2956   29.3764 O.2     1  UNL1       -0.2694
     15 N           2.9108   -0.0218   29.5684 N.am    1  UNL1       -0.2738
     16 C           2.8876   -0.2855   31.0448 C.3     1  UNL1        0.1152
     17 C           4.0009   -0.5879   24.8535 C.ar    1  UNL1        0.0296
     18 C           4.2184    0.8725   25.1177 C.ar    1  UNL1        0.0071
     19 C           4.2636    1.0732   26.6036 C.ar    1  UNL1        0.0115
     20 C           4.0738   -0.2633   27.2577 C.ar    1  UNL1        0.0830
     21 S           3.9115   -1.2899   26.1761 S.2     1  UNL1       -0.0824
     22 C           3.6737   -2.5234   20.8043 C.ar    1  UNL1       -0.0222
     23 C           3.0648   -1.1733   21.0416 C.ar    1  UNL1       -0.0043
     24 C           3.1739   -0.5281   22.3914 C.ar    1  UNL1        0.0002
     25 C           3.8918   -1.2331   23.5038 C.ar    1  UNL1        0.0060
     26 C           4.5007   -2.5832   23.2664 C.ar    1  UNL1        0.0002
     27 C           4.3916   -3.2284   21.9167 C.ar    1  UNL1       -0.0043
     28 C           3.5407   -4.6638   19.3376 C.3     1  UNL1        0.0050
     29 C           3.5646   -3.1686   19.4545 C.3     1  UNL1        0.0264
     30 N          -4.2332    6.1693   25.4049 N.3     1  UNL1       -0.2723
     31 C          -3.7724    7.1115   24.3326 C.3     1  UNL1        0.0896
     32 C          -5.6410    6.2465   25.9168 C.3     1  UNL1        0.0626
     33 C          -6.7853    6.3494   24.9523 C.3     1  UNL1        0.0481
     34 C          -8.1930    6.4266   25.4641 C.3     1  UNL1        0.1435
     35 O          -8.4568    6.4008   26.9406 O.3     1  UNL1       -0.3537
     36 C          -7.3126    6.2978   27.9051 C.3     1  UNL1        0.1435
     37 C          -5.9047    6.2207   27.3932 C.3     1  UNL1        0.0481
@<TRIPOS>BOND
     1    28    29    1
     2    29    22    1
     3    22    23   ar
     4    23    24   ar
     5    24    25   ar
     6    25    17    1
     7    17    18   ar
     8    18    19   ar
     9    19    20   ar
    10    20    13    1
    11    13    14    2
    12    13    15   am
    13    15    16    1
    14     1    15    1
    15     1     2    1
    16     2     3    1
    17     3     4    1
    18     4     5   am
    19     5     6    2
    20     5     7   am
    21     7     8    1
    22     8     9    1
    23     9    10    1
    24    10    30    1
    25    30    31    1
    26    30    32    1
    27    32    33    1
    28    33    34    1
    29    34    35    1
    30    35    36    1
    31    36    37    1
    32    10    11    1
    33     4    12    1
    34    20    21   ar
    35    25    26   ar
    36    26    27   ar
    37    27    22   ar
    38    21    17   ar
    39    12     1    1
    40    11     7    1
    41    37    32    1
@<TRIPOS>MOLECULE
*****
 37 41 0 0 0
SMALL
GASTEIGER

@<TRIPOS>ATOM
      1 C           4.5164   -1.6215   20.1809 C.3     1  UNL1        0.0972
      2 C           3.2841   -1.7621   21.0244 C.3     1  UNL1        0.0431
      3 C           3.6642   -1.4891   22.4495 C.3     1  UNL1        0.0968
      4 N           5.1315   -1.1799   22.4868 N.am    1  UNL1       -0.2623
      5 C           5.9316   -0.8472   23.7112 C.2     1  UNL1        0.3073
      6 O           7.3990   -0.5592   23.5929 O.2     1  UNL1       -0.2523
      7 N           5.2645   -0.8027   25.0539 N.am    1  UNL1       -0.2626
      8 C           3.8132   -1.0664   25.3264 C.3     1  UNL1        0.0964
      9 C           3.5832   -0.9133   26.8008 C.3     1  UNL1        0.0392
     10 C           4.8923   -0.5549   27.4394 C.3     1  UNL1        0.0791
     11 C           5.9314   -0.4866   26.3598 C.3     1  UNL1        0.1109
     12 C           5.6582   -1.2617   21.0847 C.3     1  UNL1        0.1147
     13 C           3.9591   -0.8034   17.7787 C.2     1  UNL1        0.2551
     14 O           4.0362   -0.9899   16.2924 O.2     1  UNL1       -0.2694
     15 N           4.5935   -1.8079   18.6945 N.am    1  UNL1       -0.2738
     16 C           5.3048   -2.9988   18.1239 C.3     1  UNL1        0.1152
     17 C           1.4977    1.9417   18.9915 C.ar    1  UNL1        0.0296
     18 C           2.8082    2.4987   19.4629 C.ar    1  UNL1        0.0071
     19 C           3.8898    1.5382   19.0660 C.ar    1  UNL1        0.0115
     20 C           3.2478    0.3875   18.3493 C.ar    1  UNL1        0.0830
     21 S           1.7693    0.6369   18.3033 S.2     1  UNL1       -0.0824
     22 C          -2.5399    3.8500   19.5450 C.ar    1  UNL1       -0.0222
     23 C          -1.9251    3.0585   20.6610 C.ar    1  UNL1       -0.0043
     24 C          -0.5792    2.4224   20.4765 C.ar    1  UNL1        0.0002
     25 C           0.1518    2.5778   19.1760 C.ar    1  UNL1        0.0060
     26 C          -0.4630    3.3693   18.0600 C.ar    1  UNL1        0.0002
     27 C          -1.8088    4.0054   18.2445 C.ar    1  UNL1       -0.0043
     28 C          -5.1155    3.6306   19.8059 C.3     1  UNL1        0.0050
     29 C          -3.8858    4.4861   19.7295 C.3     1  UNL1        0.0264
     30 N           5.1220   -0.3082   28.9010 N.3     1  UNL1       -0.2723
     31 C           4.9441    1.0698   29.4661 C.3     1  UNL1        0.0896
     32 C           5.5295   -1.4396   29.7976 C.3     1  UNL1        0.0626
     33 C           5.1252   -1.4349   31.2422 C.3     1  UNL1        0.0481
     34 C           5.5327   -2.5662   32.1388 C.3     1  UNL1        0.1435
     35 O           6.3446   -3.7024   31.5909 O.3     1  UNL1       -0.3537
     36 C           6.7488   -3.7071   30.1465 C.3     1  UNL1        0.1435
     37 C           6.3413   -2.5757   29.2498 C.3     1  UNL1        0.0481
@<TRIPOS>BOND
     1    28    29    1
     2    29    22    1
     3    22    23   ar
     4    23    24   ar
     5    24    25   ar
     6    25    17    1
     7    17    18   ar
     8    18    19   ar
     9    19    20   ar
    10    20    13    1
    11    13    14    2
    12    13    15   am
    13    15    16    1
    14     1    15    1
    15     1     2    1
    16     2     3    1
    17     3     4    1
    18     4     5   am
    19     5     6    2
    20     5     7   am
    21     7     8    1
    22     8     9    1
    23     9    10    1
    24    10    30    1
    25    30    31    1
    26    30    32    1
    27    32    33    1
    28    33    34    1
    29    34    35    1
    30    35    36    1
    31    36    37    1
    32    10    11    1
    33     4    12    1
    34    20    21   ar
    35    25    26   ar
    36    26    27   ar
    37    27    22   ar
    38    21    17   ar
    39    12     1    1
    40    11     7    1
    41    37    32    1
