@<TRIPOS>MOLECULE
*****
 35 39 0 0 0
SMALL
GASTEIGER

@<TRIPOS>ATOM
      1 N          -2.9524    3.6265   21.8876 N.ar    1  UNL1       -0.2342
      2 N          -1.7200    2.7857   22.0435 N.ar    1  UNL1       -0.1679
      3 C          -1.0321    2.7202   20.7122 C.ar    1  UNL1        0.1065
      4 C          -1.8394    3.5205   19.7334 C.ar    1  UNL1        0.0860
      5 C          -1.6471    3.8116   18.2746 C.ar    1  UNL1        0.1316
      6 N          -0.4603    3.2514   17.5481 N.pl3   1  UNL1       -0.3425
      7 N          -2.6416    4.6628   17.5422 N.ar    1  UNL1       -0.2093
      8 C          -3.8283    5.2229   18.2687 C.ar    1  UNL1        0.2014
      9 N          -4.0206    4.9319   19.7276 N.ar    1  UNL1       -0.2050
     10 C          -3.0261    4.0807   20.4599 C.ar    1  UNL1        0.1653
     11 H           0.1924    2.6927   18.0288 H       1  UNL1        0.1437
     12 H          -0.3341    3.4425   16.5906 H       1  UNL1        0.1437
     13 C          -7.6032    5.4313   23.3411 C.2     1  UNL1        0.2492
     14 O          -7.9574    5.6758   21.9042 O.2     1  UNL1       -0.2699
     15 N          -6.2634    4.8579   23.6962 N.am    1  UNL1       -0.2741
     16 C          -5.9092    4.6134   25.1331 C.3     1  UNL1        0.0938
     17 C          -4.5694    4.0400   25.4882 C.3     1  UNL1        0.0236
     18 C          -3.5838    3.7110   24.4063 C.3     1  UNL1        0.0279
     19 C          -3.9379    3.9555   22.9695 C.3     1  UNL1        0.1266
     20 C          -5.2778    4.5290   22.6144 C.3     1  UNL1        0.1180
     21 C          -8.6723    7.1577   24.9618 C.2     1  UNL1        0.0048
     22 C          -8.5888    5.7603   24.4229 C.2     1  UNL1        0.0579
     23 C           0.2397    1.9837   20.4121 C.ar    1  UNL1        0.0197
     24 C           0.2085    0.5055   20.1589 C.ar    1  UNL1        0.0047
     25 C           1.4803   -0.2311   19.8589 C.ar    1  UNL1        0.0375
     26 C           2.7833    0.5105   19.8121 C.ar    1  UNL1        0.1453
     27 C           2.8145    1.9887   20.0653 C.ar    1  UNL1        0.0375
     28 C           1.5427    2.7252   20.3653 C.ar    1  UNL1        0.0047
     29 O           4.0551   -0.2260   19.5121 O.3     1  UNL1       -0.4535
     30 C           4.1543   -1.6962   19.7924 C.ar    1  UNL1        0.1453
     31 C           4.3458   -2.1803   21.1991 C.ar    1  UNL1        0.0375
     32 C           4.4449   -3.6507   21.4794 C.ar    1  UNL1        0.0031
     33 C           4.3526   -4.6368   20.3528 C.ar    1  UNL1        0.0002
     34 C           4.1611   -4.1526   18.9461 C.ar    1  UNL1        0.0031
     35 C           4.0620   -2.6824   18.6659 C.ar    1  UNL1        0.0375
@<TRIPOS>BOND
     1    21    22    2
     2    22    13    1
     3    13    14    2
     4    13    15   am
     5    15    16    1
     6    16    17    1
     7    17    18    1
     8    18    19    1
     9    19     1    1
    10     1     2   ar
    11     2     3   ar
    12     3    23    1
    13    23    24   ar
    14    24    25   ar
    15    25    26   ar
    16    26    29    1
    17    29    30    1
    18    30    31   ar
    19    31    32   ar
    20    32    33   ar
    21    33    34   ar
    22    34    35   ar
    23    26    27   ar
    24    27    28   ar
    25     3     4   ar
    26     4     5   ar
    27     5     6    1
    28     5     7   ar
    29     7     8   ar
    30     8     9   ar
    31     9    10   ar
    32    19    20    1
    33    20    15    1
    34    10     1   ar
    35    28    23   ar
    36    10     4   ar
    37    35    30   ar
    38     6    11    1
    39     6    12    1
@<TRIPOS>MOLECULE
*****
 35 39 0 0 0
SMALL
GASTEIGER

@<TRIPOS>ATOM
      1 N          -1.4440    2.8586   20.8449 N.ar    1  UNL1       -0.2342
      2 N          -0.8636    1.7369   20.0358 N.ar    1  UNL1       -0.1679
      3 C           0.5846    1.6019   20.4025 C.ar    1  UNL1        0.1065
      4 C           0.8992    2.6403   21.4382 C.ar    1  UNL1        0.0860
      5 C           2.1654    2.9789   22.1677 C.ar    1  UNL1        0.1316
      6 N           3.4192    2.2022   21.8942 N.pl3   1  UNL1       -0.3425
      7 N           2.1778    4.0942   23.1706 N.ar    1  UNL1       -0.2093
      8 C           0.9240    4.8709   23.4441 C.ar    1  UNL1        0.2014
      9 N          -0.3421    4.5323   22.7146 N.ar    1  UNL1       -0.2050
     10 C          -0.3545    3.4170   21.7117 C.ar    1  UNL1        0.1653
     11 H           3.4110    1.4701   21.2359 H       1  UNL1        0.1437
     12 H           4.2502    2.4244   22.3730 H       1  UNL1        0.1437
     13 C          -5.9101    3.9525   23.2652 C.2     1  UNL1        0.2492
     14 O          -5.3021    3.5409   24.5732 O.2     1  UNL1       -0.2699
     15 N          -5.0976    3.8849   22.0061 N.am    1  UNL1       -0.2741
     16 C          -5.7056    4.2966   20.6981 C.3     1  UNL1        0.0938
     17 C          -4.8931    4.2289   19.4391 C.3     1  UNL1        0.0236
     18 C          -3.4725    3.7496   19.4880 C.3     1  UNL1        0.0279
     19 C          -2.8645    3.3380   20.7960 C.3     1  UNL1        0.1266
     20 C          -3.6771    3.4056   22.0551 C.3     1  UNL1        0.1180
     21 C          -7.8250    5.4177   24.2330 C.2     1  UNL1        0.0048
     22 C          -7.3306    4.4319   23.2162 C.2     1  UNL1        0.0579
     23 C           1.5489    0.6038   19.8333 C.ar    1  UNL1        0.0197
     24 C           2.2735    0.9057   18.5550 C.ar    1  UNL1        0.0047
     25 C           3.2379   -0.0924   17.9858 C.ar    1  UNL1        0.0375
     26 C           3.4776   -1.3923   18.6949 C.ar    1  UNL1        0.1453
     27 C           2.7530   -1.6941   19.9731 C.ar    1  UNL1        0.0375
     28 C           1.7887   -0.6960   20.5423 C.ar    1  UNL1        0.0047
     29 O           4.4419   -2.3904   18.1257 O.3     1  UNL1       -0.4535
     30 C           5.7516   -2.6431   18.8117 C.ar    1  UNL1        0.1453
     31 C           7.0025   -1.9886   18.3048 C.ar    1  UNL1        0.0375
     32 C           8.3123   -2.2414   18.9909 C.ar    1  UNL1        0.0031
     33 C           8.3712   -3.1488   20.1839 C.ar    1  UNL1        0.0002
     34 C           7.1204   -3.8034   20.6908 C.ar    1  UNL1        0.0031
     35 C           5.8106   -3.5506   20.0047 C.ar    1  UNL1        0.0375
@<TRIPOS>BOND
     1    21    22    2
     2    22    13    1
     3    13    14    2
     4    13    15   am
     5    15    16    1
     6    16    17    1
     7    17    18    1
     8    18    19    1
     9    19     1    1
    10     1     2   ar
    11     2     3   ar
    12     3    23    1
    13    23    24   ar
    14    24    25   ar
    15    25    26   ar
    16    26    29    1
    17    29    30    1
    18    30    31   ar
    19    31    32   ar
    20    32    33   ar
    21    33    34   ar
    22    34    35   ar
    23    26    27   ar
    24    27    28   ar
    25     3     4   ar
    26     4     5   ar
    27     5     6    1
    28     5     7   ar
    29     7     8   ar
    30     8     9   ar
    31     9    10   ar
    32    19    20    1
    33    20    15    1
    34    10     1   ar
    35    28    23   ar
    36    10     4   ar
    37    35    30   ar
    38     6    11    1
    39     6    12    1
@<TRIPOS>MOLECULE
*****
 35 39 0 0 0
SMALL
GASTEIGER

@<TRIPOS>ATOM
      1 N           6.6290   -4.0715   23.7113 N.ar    1  UNL1       -0.2342
      2 N           6.4504   -3.5135   25.0922 N.ar    1  UNL1       -0.1679
      3 C           7.2699   -4.3420   26.0365 C.ar    1  UNL1        0.1065
      4 C           7.9550   -5.4122   25.2393 C.ar    1  UNL1        0.0860
      5 C           8.8884   -6.5172   25.6363 C.ar    1  UNL1        0.1316
      6 N           9.2845   -6.6844   27.0734 N.pl3   1  UNL1       -0.3425
      7 N           9.4257   -7.4550   24.5963 N.ar    1  UNL1       -0.2093
      8 C           9.0296   -7.2878   23.1592 C.ar    1  UNL1        0.2014
      9 N           8.0962   -6.1828   22.7622 N.ar    1  UNL1       -0.2050
     10 C           7.5589   -5.2450   23.8023 C.ar    1  UNL1        0.1653
     11 H           8.9319   -6.0688   27.7560 H       1  UNL1        0.1437
     12 H           9.8972   -7.4097   27.3340 H       1  UNL1        0.1437
     13 C           3.0318   -1.1297   21.3863 C.2     1  UNL1        0.2492
     14 O           2.5114   -0.7058   22.7278 O.2     1  UNL1       -0.2699
     15 N           4.1912   -2.0771   21.2968 N.am    1  UNL1       -0.2741
     16 C           4.7116   -2.5010   19.9553 C.3     1  UNL1        0.0938
     17 C           5.8711   -3.4484   19.8659 C.3     1  UNL1        0.0236
     18 C           6.5102   -3.9719   21.1179 C.3     1  UNL1        0.0279
     19 C           5.9899   -3.5480   22.4593 C.3     1  UNL1        0.1266
     20 C           4.8303   -2.6006   22.5488 C.3     1  UNL1        0.1180
     21 C           0.9287   -0.2795   20.1196 C.2     1  UNL1        0.0048
     22 C           2.3926   -0.6063   20.1343 C.2     1  UNL1        0.0579
     23 C           7.3843   -4.1366   27.5180 C.ar    1  UNL1        0.0197
     24 C           6.6043   -5.0071   28.4583 C.ar    1  UNL1        0.0047
     25 C           6.7187   -4.8016   29.9398 C.ar    1  UNL1        0.0375
     26 C           7.6130   -3.7258   30.4809 C.ar    1  UNL1        0.1453
     27 C           8.3928   -2.8554   29.5406 C.ar    1  UNL1        0.0375
     28 C           8.2785   -3.0608   28.0592 C.ar    1  UNL1        0.0047
     29 O           7.7273   -3.5203   31.9624 O.3     1  UNL1       -0.4535
     30 C           6.8294   -2.5384   32.6548 C.ar    1  UNL1        0.1453
     31 C           5.3719   -2.8476   32.8282 C.ar    1  UNL1        0.0375
     32 C           4.4740   -1.8656   33.5207 C.ar    1  UNL1        0.0031
     33 C           5.0337   -0.5743   34.0398 C.ar    1  UNL1        0.0002
     34 C           6.4912   -0.2650   33.8664 C.ar    1  UNL1        0.0031
     35 C           7.3890   -1.2471   33.1739 C.ar    1  UNL1        0.0375
@<TRIPOS>BOND
     1    21    22    2
     2    22    13    1
     3    13    14    2
     4    13    15   am
     5    15    16    1
     6    16    17    1
     7    17    18    1
     8    18    19    1
     9    19     1    1
    10     1     2   ar
    11     2     3   ar
    12     3    23    1
    13    23    24   ar
    14    24    25   ar
    15    25    26   ar
    16    26    29    1
    17    29    30    1
    18    30    31   ar
    19    31    32   ar
    20    32    33   ar
    21    33    34   ar
    22    34    35   ar
    23    26    27   ar
    24    27    28   ar
    25     3     4   ar
    26     4     5   ar
    27     5     6    1
    28     5     7   ar
    29     7     8   ar
    30     8     9   ar
    31     9    10   ar
    32    19    20    1
    33    20    15    1
    34    10     1   ar
    35    28    23   ar
    36    10     4   ar
    37    35    30   ar
    38     6    11    1
    39     6    12    1
@<TRIPOS>MOLECULE
*****
 35 39 0 0 0
SMALL
GASTEIGER

@<TRIPOS>ATOM
      1 N           4.9938   -2.0403   22.0098 N.ar    1  UNL1       -0.2342
      2 N           3.8724   -1.0814   22.2796 N.ar    1  UNL1       -0.1679
      3 C           3.3922   -0.5474   20.9627 C.ar    1  UNL1        0.1065
      4 C           4.2169   -1.1763   19.8790 C.ar    1  UNL1        0.0860
      5 C           4.1944   -1.0280   18.3865 C.ar    1  UNL1        0.1316
      6 N           3.2045   -0.1053   17.7394 N.pl3   1  UNL1       -0.3425
      7 N           5.1618   -1.8023   17.5413 N.ar    1  UNL1       -0.2093
      8 C           6.1516   -2.7250   18.1884 C.ar    1  UNL1        0.2014
      9 N           6.1741   -2.8733   19.6809 N.ar    1  UNL1       -0.2050
     10 C           5.2068   -2.0990   20.5261 C.ar    1  UNL1        0.1653
     11 H           2.5696    0.4029   18.2942 H       1  UNL1        0.1437
     12 H           3.1897   -0.0080   16.7598 H       1  UNL1        0.1437
     13 C           8.3365   -5.8240   23.2386 C.2     1  UNL1        0.2492
     14 O           8.4621   -6.1842   21.7879 O.2     1  UNL1       -0.2699
     15 N           7.4381   -4.6981   23.6568 N.am    1  UNL1       -0.2741
     16 C           7.3125   -4.3379   25.1075 C.3     1  UNL1        0.0938
     17 C           6.4141   -3.2118   25.5256 C.3     1  UNL1        0.0236
     18 C           5.6412   -2.4460   24.4930 C.3     1  UNL1        0.0279
     19 C           5.7667   -2.8061   23.0424 C.3     1  UNL1        0.1266
     20 C           6.6652   -3.9322   22.6242 C.3     1  UNL1        0.1180
     21 C           8.4912   -7.7824   24.9390 C.2     1  UNL1        0.0048
     22 C           9.1094   -6.5899   24.2712 C.2     1  UNL1        0.0579
     23 C           2.2822    0.4418   20.7642 C.ar    1  UNL1        0.0197
     24 C           2.5662    1.9128   20.8392 C.ar    1  UNL1        0.0047
     25 C           1.4562    2.9020   20.6407 C.ar    1  UNL1        0.0375
     26 C           0.0622    2.4203   20.3674 C.ar    1  UNL1        0.1453
     27 C          -0.2217    0.9493   20.2925 C.ar    1  UNL1        0.0375
     28 C           0.8883   -0.0399   20.4909 C.ar    1  UNL1        0.0047
     29 O          -1.0478    3.4095   20.1689 O.3     1  UNL1       -0.4535
     30 C          -2.2324    3.4019   21.0890 C.ar    1  UNL1        0.1453
     31 C          -2.0410    3.6229   22.5602 C.ar    1  UNL1        0.0375
     32 C          -3.2258    3.6152   23.4802 C.ar    1  UNL1        0.0031
     33 C          -4.6019    3.3866   22.9289 C.ar    1  UNL1        0.0002
     34 C          -4.7934    3.1656   21.4577 C.ar    1  UNL1        0.0031
     35 C          -3.6087    3.1732   20.5378 C.ar    1  UNL1        0.0375
@<TRIPOS>BOND
     1    21    22    2
     2    22    13    1
     3    13    14    2
     4    13    15   am
     5    15    16    1
     6    16    17    1
     7    17    18    1
     8    18    19    1
     9    19     1    1
    10     1     2   ar
    11     2     3   ar
    12     3    23    1
    13    23    24   ar
    14    24    25   ar
    15    25    26   ar
    16    26    29    1
    17    29    30    1
    18    30    31   ar
    19    31    32   ar
    20    32    33   ar
    21    33    34   ar
    22    34    35   ar
    23    26    27   ar
    24    27    28   ar
    25     3     4   ar
    26     4     5   ar
    27     5     6    1
    28     5     7   ar
    29     7     8   ar
    30     8     9   ar
    31     9    10   ar
    32    19    20    1
    33    20    15    1
    34    10     1   ar
    35    28    23   ar
    36    10     4   ar
    37    35    30   ar
    38     6    11    1
    39     6    12    1
@<TRIPOS>MOLECULE
*****
 35 39 0 0 0
SMALL
GASTEIGER

@<TRIPOS>ATOM
      1 N           6.7862   -3.5684   30.1959 N.ar    1  UNL1       -0.2342
      2 N           6.7588   -3.3483   31.6794 N.ar    1  UNL1       -0.1679
      3 C           6.1553   -1.9994   31.9367 C.ar    1  UNL1        0.1065
      4 C           5.8098   -1.3858   30.6123 C.ar    1  UNL1        0.0860
      5 C           5.1905   -0.0694   30.2471 C.ar    1  UNL1        0.1316
      6 N           4.8006    0.9003   31.3230 N.pl3   1  UNL1       -0.3425
      7 N           4.9611    0.2774   28.8059 N.ar    1  UNL1       -0.2093
      8 C           5.3509   -0.6923   27.7299 C.ar    1  UNL1        0.2014
      9 N           5.9702   -2.0088   28.0952 N.ar    1  UNL1       -0.2050
     10 C           6.1997   -2.3555   29.5364 C.ar    1  UNL1        0.1653
     11 H           4.9512    0.6728   32.2690 H       1  UNL1        0.1437
     12 H           4.3941    1.7644   31.0833 H       1  UNL1        0.1437
     13 C           7.4974   -6.2879   25.8257 C.2     1  UNL1        0.2492
     14 O           6.8085   -5.2097   25.0426 O.2     1  UNL1       -0.2699
     15 N           7.6640   -6.1471   27.3097 N.am    1  UNL1       -0.2741
     16 C           8.3528   -7.2253   28.0927 C.3     1  UNL1        0.0938
     17 C           8.5194   -7.0844   29.5767 C.3     1  UNL1        0.0236
     18 C           7.9972   -5.8655   30.2778 C.3     1  UNL1        0.0279
     19 C           7.3084   -4.7873   29.4948 C.3     1  UNL1        0.1266
     20 C           7.1418   -4.9282   28.0107 C.3     1  UNL1        0.1180
     21 C           8.6605   -7.3787   23.7744 C.2     1  UNL1        0.0048
     22 C           8.0196   -7.5068   25.1247 C.2     1  UNL1        0.0579
     23 C           5.9359   -1.3739   33.2823 C.ar    1  UNL1        0.0197
     24 C           7.0435   -0.6073   33.9427 C.ar    1  UNL1        0.0047
     25 C           6.8241    0.0182   35.2883 C.ar    1  UNL1        0.0375
     26 C           5.4973   -0.1227   35.9735 C.ar    1  UNL1        0.1453
     27 C           4.3898   -0.8892   35.3132 C.ar    1  UNL1        0.0375
     28 C           4.6092   -1.5148   33.9676 C.ar    1  UNL1        0.0047
     29 O           5.2779    0.5028   37.3191 O.3     1  UNL1       -0.4535
     30 C           4.0854    1.3824   37.5517 C.ar    1  UNL1        0.1453
     31 C           3.9153    2.6417   36.7547 C.ar    1  UNL1        0.0375
     32 C           2.7227    3.5213   36.9874 C.ar    1  UNL1        0.0031
     33 C           1.7002    3.1416   38.0171 C.ar    1  UNL1        0.0002
     34 C           1.8702    1.8823   38.8141 C.ar    1  UNL1        0.0031
     35 C           3.0628    1.0027   38.5814 C.ar    1  UNL1        0.0375
@<TRIPOS>BOND
     1    21    22    2
     2    22    13    1
     3    13    14    2
     4    13    15   am
     5    15    16    1
     6    16    17    1
     7    17    18    1
     8    18    19    1
     9    19     1    1
    10     1     2   ar
    11     2     3   ar
    12     3    23    1
    13    23    24   ar
    14    24    25   ar
    15    25    26   ar
    16    26    29    1
    17    29    30    1
    18    30    31   ar
    19    31    32   ar
    20    32    33   ar
    21    33    34   ar
    22    34    35   ar
    23    26    27   ar
    24    27    28   ar
    25     3     4   ar
    26     4     5   ar
    27     5     6    1
    28     5     7   ar
    29     7     8   ar
    30     8     9   ar
    31     9    10   ar
    32    19    20    1
    33    20    15    1
    34    10     1   ar
    35    28    23   ar
    36    10     4   ar
    37    35    30   ar
    38     6    11    1
    39     6    12    1
@<TRIPOS>MOLECULE
*****
 35 39 0 0 0
SMALL
GASTEIGER

@<TRIPOS>ATOM
      1 N           7.0430   -4.4275   27.2849 N.ar    1  UNL1       -0.2342
      2 N           6.3655   -3.5159   26.3051 N.ar    1  UNL1       -0.1679
      3 C           6.7997   -3.9135   24.9255 C.ar    1  UNL1        0.1065
      4 C           7.7455   -5.0708   25.0526 C.ar    1  UNL1        0.0860
      5 C           8.4891   -5.8763   24.0289 C.ar    1  UNL1        0.1316
      6 N           8.3387   -5.5586   22.5707 N.pl3   1  UNL1       -0.3425
      7 N           9.3832   -6.9996   24.4634 N.ar    1  UNL1       -0.2093
      8 C           9.5336   -7.3173   25.9217 C.ar    1  UNL1        0.2014
      9 N           8.7899   -6.5118   26.9453 N.ar    1  UNL1       -0.2050
     10 C           7.8958   -5.3885   26.5108 C.ar    1  UNL1        0.1653
     11 H           7.7519   -4.8214   22.2855 H       1  UNL1        0.1437
     12 H           8.8269   -6.0874   21.8988 H       1  UNL1        0.1437
     13 C           5.9639   -1.7851   31.6269 C.2     1  UNL1        0.2492
     14 O           5.7227   -0.5477   30.8140 O.2     1  UNL1       -0.2699
     15 N           6.3543   -3.0643   30.9479 N.am    1  UNL1       -0.2741
     16 C           6.5955   -4.3016   31.7609 C.3     1  UNL1        0.0938
     17 C           6.9859   -5.5809   31.0818 C.3     1  UNL1        0.0236
     18 C           7.1350   -5.6228   29.5899 C.3     1  UNL1        0.0279
     19 C           6.8938   -4.3856   28.7769 C.3     1  UNL1        0.1266
     20 C           6.5034   -3.1063   29.4560 C.3     1  UNL1        0.1180
     21 C           4.4654   -1.9408   33.7436 C.2     1  UNL1        0.0048
     22 C           5.8148   -1.7431   33.1189 C.2     1  UNL1        0.0579
     23 C           6.3645   -3.2672   23.6437 C.ar    1  UNL1        0.0197
     24 C           5.2643   -3.8814   22.8298 C.ar    1  UNL1        0.0047
     25 C           4.8291   -3.2352   21.5481 C.ar    1  UNL1        0.0375
     26 C           5.4940   -1.9747   21.0801 C.ar    1  UNL1        0.1453
     27 C           6.5942   -1.3604   21.8940 C.ar    1  UNL1        0.0375
     28 C           7.0294   -2.0067   23.1758 C.ar    1  UNL1        0.0047
     29 O           5.0588   -1.3284   19.7984 O.3     1  UNL1       -0.4535
     30 C           3.6643   -0.7923   19.6646 C.ar    1  UNL1        0.1453
     31 C           2.6531   -1.0554   20.7407 C.ar    1  UNL1        0.0375
     32 C           1.2585   -0.5193   20.6068 C.ar    1  UNL1        0.0031
     33 C           0.8752    0.2799   19.3968 C.ar    1  UNL1        0.0002
     34 C           1.8864    0.5431   18.3206 C.ar    1  UNL1        0.0031
     35 C           3.2809    0.0070   18.4545 C.ar    1  UNL1        0.0375
@<TRIPOS>BOND
     1    21    22    2
     2    22    13    1
     3    13    14    2
     4    13    15   am
     5    15    16    1
     6    16    17    1
     7    17    18    1
     8    18    19    1
     9    19     1    1
    10     1     2   ar
    11     2     3   ar
    12     3    23    1
    13    23    24   ar
    14    24    25   ar
    15    25    26   ar
    16    26    29    1
    17    29    30    1
    18    30    31   ar
    19    31    32   ar
    20    32    33   ar
    21    33    34   ar
    22    34    35   ar
    23    26    27   ar
    24    27    28   ar
    25     3     4   ar
    26     4     5   ar
    27     5     6    1
    28     5     7   ar
    29     7     8   ar
    30     8     9   ar
    31     9    10   ar
    32    19    20    1
    33    20    15    1
    34    10     1   ar
    35    28    23   ar
    36    10     4   ar
    37    35    30   ar
    38     6    11    1
    39     6    12    1
@<TRIPOS>MOLECULE
*****
 35 39 0 0 0
SMALL
GASTEIGER

@<TRIPOS>ATOM
      1 N           6.2469   -2.4197   28.1662 N.ar    1  UNL1       -0.2342
      2 N           5.8875   -1.5423   29.3285 N.ar    1  UNL1       -0.1679
      3 C           6.0496   -2.3469   30.5841 C.ar    1  UNL1        0.1065
      4 C           6.5092   -3.7215   30.1978 C.ar    1  UNL1        0.0860
      5 C           6.8325   -4.9379   31.0136 C.ar    1  UNL1        0.1316
      6 N           6.7105   -4.8929   32.5080 N.pl3   1  UNL1       -0.3425
      7 N           7.2776   -6.1994   30.3351 N.ar    1  UNL1       -0.2093
      8 C           7.3996   -6.2445   28.8408 C.ar    1  UNL1        0.2014
      9 N           7.0764   -5.0280   28.0249 N.ar    1  UNL1       -0.2050
     10 C           6.6312   -3.7665   28.7034 C.ar    1  UNL1        0.1653
     11 H           6.4183   -4.0649   32.9533 H       1  UNL1        0.1437
     12 H           6.9227   -5.6914   33.0435 H       1  UNL1        0.1437
     13 C           3.7430   -0.3731   24.0991 C.2     1  UNL1        0.2492
     14 O           2.5332   -0.1483   24.9570 O.2     1  UNL1       -0.2699
     15 N           4.9738   -0.9971   24.6869 N.am    1  UNL1       -0.2741
     16 C           6.1836   -1.2219   23.8290 C.3     1  UNL1        0.0938
     17 C           7.4144   -1.8459   24.4168 C.3     1  UNL1        0.0236
     18 C           7.4355   -2.2452   25.8626 C.3     1  UNL1        0.0279
     19 C           6.2258   -2.0204   26.7205 C.3     1  UNL1        0.1266
     20 C           4.9949   -1.3964   26.1326 C.3     1  UNL1        0.1180
     21 C           2.9996   -0.8244   21.6508 C.2     1  UNL1        0.0048
     22 C           3.7219    0.0262   22.6534 C.2     1  UNL1        0.0579
     23 C           5.7965   -1.8620   31.9808 C.ar    1  UNL1        0.0197
     24 C           4.4992   -2.1822   32.6624 C.ar    1  UNL1        0.0047
     25 C           4.2461   -1.6973   34.0591 C.ar    1  UNL1        0.0375
     26 C           5.2903   -0.8922   34.7743 C.ar    1  UNL1        0.1453
     27 C           6.5876   -0.5720   34.0927 C.ar    1  UNL1        0.0375
     28 C           6.8406   -1.0569   32.6960 C.ar    1  UNL1        0.0047
     29 O           5.0372   -0.4073   36.1710 O.3     1  UNL1       -0.4535
     30 C           4.1408    0.7725   36.4044 C.ar    1  UNL1        0.1453
     31 C           3.8412    1.7206   35.2813 C.ar    1  UNL1        0.0375
     32 C           2.9447    2.9004   35.5147 C.ar    1  UNL1        0.0031
     33 C           2.3478    3.1321   36.8713 C.ar    1  UNL1        0.0002
     34 C           2.6474    2.1840   37.9943 C.ar    1  UNL1        0.0031
     35 C           3.5439    1.0042   37.7609 C.ar    1  UNL1        0.0375
@<TRIPOS>BOND
     1    21    22    2
     2    22    13    1
     3    13    14    2
     4    13    15   am
     5    15    16    1
     6    16    17    1
     7    17    18    1
     8    18    19    1
     9    19     1    1
    10     1     2   ar
    11     2     3   ar
    12     3    23    1
    13    23    24   ar
    14    24    25   ar
    15    25    26   ar
    16    26    29    1
    17    29    30    1
    18    30    31   ar
    19    31    32   ar
    20    32    33   ar
    21    33    34   ar
    22    34    35   ar
    23    26    27   ar
    24    27    28   ar
    25     3     4   ar
    26     4     5   ar
    27     5     6    1
    28     5     7   ar
    29     7     8   ar
    30     8     9   ar
    31     9    10   ar
    32    19    20    1
    33    20    15    1
    34    10     1   ar
    35    28    23   ar
    36    10     4   ar
    37    35    30   ar
    38     6    11    1
    39     6    12    1
@<TRIPOS>MOLECULE
*****
 35 39 0 0 0
SMALL
GASTEIGER

@<TRIPOS>ATOM
      1 N           1.3729    0.8612   22.3574 N.ar    1  UNL1       -0.2342
      2 N           1.6845    0.7796   23.8224 N.ar    1  UNL1       -0.1679
      3 C           0.7137    1.6599   24.5523 C.ar    1  UNL1        0.1065
      4 C          -0.1978    2.2854   23.5384 C.ar    1  UNL1        0.0860
      5 C          -1.3461    3.2407   23.6753 C.ar    1  UNL1        0.1316
      6 N          -1.7535    3.7344   25.0318 N.pl3   1  UNL1       -0.3425
      7 N          -2.0870    3.7024   22.4555 N.ar    1  UNL1       -0.2093
      8 C          -1.6796    3.2087   21.0989 C.ar    1  UNL1        0.2014
      9 N          -0.5313    2.2534   20.9621 N.ar    1  UNL1       -0.2050
     10 C           0.2096    1.7918   22.1819 C.ar    1  UNL1        0.1653
     11 H          -1.2672    3.4314   25.8324 H       1  UNL1        0.1437
     12 H          -2.5072    4.3614   25.1216 H       1  UNL1        0.1437
     13 C           4.3443   -3.0958   20.7721 C.2     1  UNL1        0.2492
     14 O           4.3809   -3.6297   22.1733 O.2     1  UNL1       -0.2699
     15 N           3.5831   -1.8397   20.4677 N.am    1  UNL1       -0.2741
     16 C           3.5465   -1.3058   19.0664 C.3     1  UNL1        0.0938
     17 C           2.7853   -0.0496   18.7621 C.3     1  UNL1        0.0236
     18 C           2.0608    0.6727   19.8591 C.3     1  UNL1        0.0279
     19 C           2.0974    0.1389   21.2604 C.3     1  UNL1        0.1266
     20 C           2.8586   -1.1174   21.5647 C.3     1  UNL1        0.1180
     21 C           4.4121   -4.9708   18.9747 C.2     1  UNL1        0.0048
     22 C           5.0688   -3.8181   19.6751 C.2     1  UNL1        0.0579
     23 C           0.6633    1.8766   26.0357 C.ar    1  UNL1        0.0197
     24 C          -0.2395    1.0333   26.8866 C.ar    1  UNL1        0.0047
     25 C          -0.2899    1.2500   28.3701 C.ar    1  UNL1        0.0375
     26 C           0.5624    2.3099   29.0026 C.ar    1  UNL1        0.1453
     27 C           1.4651    3.1531   28.1517 C.ar    1  UNL1        0.0375
     28 C           1.5156    2.9364   26.6683 C.ar    1  UNL1        0.0047
     29 O           0.5119    2.5266   30.4860 O.3     1  UNL1       -0.4535
     30 C           1.5019    1.8386   31.3785 C.ar    1  UNL1        0.1453
     31 C           1.7242    2.3360   32.7760 C.ar    1  UNL1        0.0375
     32 C           2.7143    1.6479   33.6685 C.ar    1  UNL1        0.0031
     33 C           3.4820    0.4624   33.1633 C.ar    1  UNL1        0.0002
     34 C           3.2597   -0.0350   31.7658 C.ar    1  UNL1        0.0031
     35 C           2.2697    0.6531   30.8734 C.ar    1  UNL1        0.0375
@<TRIPOS>BOND
     1    21    22    2
     2    22    13    1
     3    13    14    2
     4    13    15   am
     5    15    16    1
     6    16    17    1
     7    17    18    1
     8    18    19    1
     9    19     1    1
    10     1     2   ar
    11     2     3   ar
    12     3    23    1
    13    23    24   ar
    14    24    25   ar
    15    25    26   ar
    16    26    29    1
    17    29    30    1
    18    30    31   ar
    19    31    32   ar
    20    32    33   ar
    21    33    34   ar
    22    34    35   ar
    23    26    27   ar
    24    27    28   ar
    25     3     4   ar
    26     4     5   ar
    27     5     6    1
    28     5     7   ar
    29     7     8   ar
    30     8     9   ar
    31     9    10   ar
    32    19    20    1
    33    20    15    1
    34    10     1   ar
    35    28    23   ar
    36    10     4   ar
    37    35    30   ar
    38     6    11    1
    39     6    12    1
@<TRIPOS>MOLECULE
*****
 35 39 0 0 0
SMALL
GASTEIGER

@<TRIPOS>ATOM
      1 N           0.5803    1.4269   22.9389 N.ar    1  UNL1       -0.2342
      2 N           1.0619    0.9396   24.2733 N.ar    1  UNL1       -0.1679
      3 C           0.3538    1.7254   25.3368 C.ar    1  UNL1        0.1065
      4 C          -0.5654    2.6984   24.6597 C.ar    1  UNL1        0.0860
      5 C          -1.5118    3.7285   25.2012 C.ar    1  UNL1        0.1316
      6 N          -1.6518    3.9130   26.6832 N.pl3   1  UNL1       -0.3425
      7 N          -2.3182    4.5741   24.2606 N.ar    1  UNL1       -0.2093
      8 C          -2.1782    4.3895   22.7786 C.ar    1  UNL1        0.2014
      9 N          -1.2318    3.3594   22.2371 N.ar    1  UNL1       -0.2050
     10 C          -0.4254    2.5139   23.1777 C.ar    1  UNL1        0.1653
     11 H          -1.1225    3.3580   27.3005 H       1  UNL1        0.1437
     12 H          -2.2730    4.5891   27.0385 H       1  UNL1        0.1437
     13 C           3.4328   -1.8580   20.0976 C.2     1  UNL1        0.2492
     14 O           3.9673   -2.4801   21.3535 O.2     1  UNL1       -0.2699
     15 N           2.4524   -0.7257   20.1799 N.am    1  UNL1       -0.2741
     16 C           1.9179   -0.1036   18.9241 C.3     1  UNL1        0.0938
     17 C           0.9375    1.0287   19.0065 C.3     1  UNL1        0.0236
     18 C           0.4917    1.5388   20.3448 C.3     1  UNL1        0.0279
     19 C           1.0261    0.9167   21.6006 C.3     1  UNL1        0.1266
     20 C           2.0066   -0.2156   21.5182 C.3     1  UNL1        0.1180
     21 C           4.5392   -3.7105   18.6505 C.2     1  UNL1        0.0048
     22 C           3.8786   -2.3681   18.7593 C.2     1  UNL1        0.0579
     23 C           0.5333    1.5663   26.8175 C.ar    1  UNL1        0.0197
     24 C          -0.4899    0.8196   27.6211 C.ar    1  UNL1        0.0047
     25 C          -0.3103    0.6605   29.1018 C.ar    1  UNL1        0.0375
     26 C           0.8923    1.2479   29.7789 C.ar    1  UNL1        0.1453
     27 C           1.9154    1.9946   28.9753 C.ar    1  UNL1        0.0375
     28 C           1.7359    2.1537   27.4946 C.ar    1  UNL1        0.0047
     29 O           1.0719    1.0888   31.2596 O.3     1  UNL1       -0.4535
     30 C           1.0786    2.2971   32.1484 C.ar    1  UNL1        0.1453
     31 C           1.9327    2.3167   33.3813 C.ar    1  UNL1        0.0375
     32 C           1.9394    3.5251   34.2700 C.ar    1  UNL1        0.0031
     33 C           1.0919    4.7139   33.9258 C.ar    1  UNL1        0.0002
     34 C           0.2377    4.6944   32.6929 C.ar    1  UNL1        0.0031
     35 C           0.2311    3.4860   31.8042 C.ar    1  UNL1        0.0375
@<TRIPOS>BOND
     1    21    22    2
     2    22    13    1
     3    13    14    2
     4    13    15   am
     5    15    16    1
     6    16    17    1
     7    17    18    1
     8    18    19    1
     9    19     1    1
    10     1     2   ar
    11     2     3   ar
    12     3    23    1
    13    23    24   ar
    14    24    25   ar
    15    25    26   ar
    16    26    29    1
    17    29    30    1
    18    30    31   ar
    19    31    32   ar
    20    32    33   ar
    21    33    34   ar
    22    34    35   ar
    23    26    27   ar
    24    27    28   ar
    25     3     4   ar
    26     4     5   ar
    27     5     6    1
    28     5     7   ar
    29     7     8   ar
    30     8     9   ar
    31     9    10   ar
    32    19    20    1
    33    20    15    1
    34    10     1   ar
    35    28    23   ar
    36    10     4   ar
    37    35    30   ar
    38     6    11    1
    39     6    12    1
