@<TRIPOS>MOLECULE
*****
 21 22 0 0 0
SMALL
GASTEIGER

@<TRIPOS>ATOM
      1 C         -10.5764  -17.3176   22.8550 C.3     1  UNL1        0.0718
      2 C         -11.5881  -18.4004   23.0870 C.3     1  UNL1        0.0257
      3 C         -12.9538  -17.7880   22.9874 C.3     1  UNL1        0.0690
      4 N         -12.7859  -16.3266   22.6939 N.3     1  UNL1       -0.2971
      5 C         -11.3167  -16.0359   22.6120 C.3     1  UNL1        0.0759
      6 H         -13.2072  -15.7731   23.4399 H       1  UNL1        0.1233
      7 C          -9.3565  -16.4655   22.6654 C.2     1  UNL1        0.1795
      8 O          -8.9779  -15.9925   21.2933 O.2     1  UNL1       -0.2908
      9 C          -8.5154  -16.0864   23.8481 C.ar    1  UNL1        0.0658
     10 C          -9.0078  -15.8765   25.2493 C.ar    1  UNL1        0.0221
     11 C          -7.8308  -15.5110   26.1044 C.ar    1  UNL1        0.0749
     12 CL         -7.8673  -15.2137   27.5742 Cl      1  UNL1       -0.0808
     13 C          -6.6110  -15.4950   25.2316 C.ar    1  UNL1        0.0976
     14 CL         -5.2135  -15.1788   25.6754 Cl      1  UNL1       -0.0743
     15 S          -7.0340  -15.8506   23.8372 S.2     1  UNL1       -0.0718
     16 C          -9.5810  -18.4212   23.0583 C.3     1  UNL1        0.0087
     17 C          -9.4573  -19.5165   22.0408 C.3     1  UNL1        0.0005
     18 C          -7.3376  -19.5749   22.0954 C.3     1  UNL1        0.0000
     19 C          -8.3680  -19.4639   21.0110 C.3     1  UNL1        0.0000
     20 C          -9.3983  -19.3529   19.9266 C.3     1  UNL1        0.0000
     21 C          -7.2786  -19.4112   19.9812 C.3     1  UNL1        0.0000
@<TRIPOS>BOND
     1    18    19    1
     2    19    20    1
     3    19    21    1
     4    19    17    1
     5    17    16    1
     6    16     1    1
     7     1     7    1
     8     7     8    2
     9     7     9    1
    10     9    10   ar
    11    10    11   ar
    12    11    12    1
    13    11    13   ar
    14    13    14    1
    15    13    15   ar
    16     1     2    1
    17     2     3    1
    18     3     4    1
    19     4     5    1
    20     5     1    1
    21    15     9   ar
    22     4     6    1
@<TRIPOS>MOLECULE
*****
 21 22 0 0 0
SMALL
GASTEIGER

@<TRIPOS>ATOM
      1 C          -8.5849  -16.6487   23.6754 C.3     1  UNL1        0.0718
      2 C          -8.9718  -16.4852   25.1154 C.3     1  UNL1        0.0257
      3 C          -8.4129  -15.1804   25.6003 C.3     1  UNL1        0.0690
      4 N          -7.6806  -14.5375   24.4600 N.3     1  UNL1       -0.2971
      5 C          -7.7868  -15.4449   23.2704 C.3     1  UNL1        0.0759
      6 H          -6.7001  -14.4060   24.7085 H       1  UNL1        0.1233
      7 C          -8.3548  -17.0828   22.2582 C.2     1  UNL1        0.1795
      8 O          -9.1795  -16.4965   21.1509 O.2     1  UNL1       -0.2908
      9 C          -7.3000  -18.1033   21.9483 C.ar    1  UNL1        0.0658
     10 C          -5.9090  -18.1318   22.5089 C.ar    1  UNL1        0.0221
     11 C          -5.2004  -19.3206   21.9304 C.ar    1  UNL1        0.0749
     12 CL         -3.7869  -19.7311   22.2193 Cl      1  UNL1       -0.0808
     13 C          -6.1534  -20.0268   21.0122 C.ar    1  UNL1        0.0976
     14 CL         -5.8603  -21.2675   20.2218 Cl      1  UNL1       -0.0743
     15 S          -7.4511  -19.2745   21.0233 S.2     1  UNL1       -0.0718
     16 C          -9.3348  -17.9432   23.7842 C.3     1  UNL1        0.0087
     17 C         -10.8274  -17.9350   23.9343 C.3     1  UNL1        0.0005
     18 C         -12.2345  -16.6808   22.9611 C.3     1  UNL1        0.0000
     19 C         -11.7035  -18.0634   22.7235 C.3     1  UNL1        0.0000
     20 C         -11.1725  -19.4460   22.4858 C.3     1  UNL1        0.0000
     21 C         -12.5796  -18.1918   21.5127 C.3     1  UNL1        0.0000
@<TRIPOS>BOND
     1    18    19    1
     2    19    20    1
     3    19    21    1
     4    19    17    1
     5    17    16    1
     6    16     1    1
     7     1     7    1
     8     7     8    2
     9     7     9    1
    10     9    10   ar
    11    10    11   ar
    12    11    12    1
    13    11    13   ar
    14    13    14    1
    15    13    15   ar
    16     1     2    1
    17     2     3    1
    18     3     4    1
    19     4     5    1
    20     5     1    1
    21    15     9   ar
    22     4     6    1
@<TRIPOS>MOLECULE
*****
 21 22 0 0 0
SMALL
GASTEIGER

@<TRIPOS>ATOM
      1 C          -9.0151  -17.8401   22.0621 C.3     1  UNL1        0.0718
      2 C          -9.3294  -19.2872   21.8231 C.3     1  UNL1        0.0257
      3 C         -10.7592  -19.3841   21.3799 C.3     1  UNL1        0.0690
      4 N         -11.3285  -17.9967   21.3452 N.3     1  UNL1       -0.2971
      5 C         -10.2507  -17.0426   21.7668 C.3     1  UNL1        0.0759
      6 H         -12.1192  -17.9309   21.9862 H       1  UNL1        0.1233
      7 C          -8.4164  -16.5013   22.3767 C.2     1  UNL1        0.1795
      8 O          -8.2596  -15.4765   21.2926 O.2     1  UNL1       -0.2908
      9 C          -7.9745  -16.1872   23.7753 C.ar    1  UNL1        0.0658
     10 C          -8.7703  -16.4216   25.0250 C.ar    1  UNL1        0.0221
     11 C          -7.9468  -15.9629   26.1917 C.ar    1  UNL1        0.0749
     12 CL         -8.3561  -16.0132   27.6339 Cl      1  UNL1       -0.0808
     13 C          -6.6420  -15.4450   25.6632 C.ar    1  UNL1        0.0976
     14 CL         -5.5175  -14.8865   26.4840 Cl      1  UNL1       -0.0743
     15 S          -6.6591  -15.5837   24.1697 S.2     1  UNL1       -0.0718
     16 C          -7.6544  -18.3578   22.4232 C.3     1  UNL1        0.0087
     17 C          -7.1618  -19.6467   21.8347 C.3     1  UNL1        0.0005
     18 C          -6.1776  -20.7973   20.3491 C.3     1  UNL1        0.0000
     19 C          -5.7505  -19.7531   21.3376 C.3     1  UNL1        0.0000
     20 C          -5.3235  -18.7089   22.3261 C.3     1  UNL1        0.0000
     21 C          -4.3393  -19.8595   20.8405 C.3     1  UNL1        0.0000
@<TRIPOS>BOND
     1    18    19    1
     2    19    20    1
     3    19    21    1
     4    19    17    1
     5    17    16    1
     6    16     1    1
     7     1     7    1
     8     7     8    2
     9     7     9    1
    10     9    10   ar
    11    10    11   ar
    12    11    12    1
    13    11    13   ar
    14    13    14    1
    15    13    15   ar
    16     1     2    1
    17     2     3    1
    18     3     4    1
    19     4     5    1
    20     5     1    1
    21    15     9   ar
    22     4     6    1
@<TRIPOS>MOLECULE
*****
 21 22 0 0 0
SMALL
GASTEIGER

@<TRIPOS>ATOM
      1 C          -9.6331  -17.3607   22.9474 C.3     1  UNL1        0.0718
      2 C         -10.6350  -17.6754   24.0184 C.3     1  UNL1        0.0257
      3 C         -11.9581  -17.9241   23.3568 C.3     1  UNL1        0.0690
      4 N         -11.7737  -17.7630   21.8769 N.3     1  UNL1       -0.2971
      5 C         -10.3369  -17.4148   21.6238 C.3     1  UNL1        0.0759
      6 H         -12.3768  -17.0160   21.5322 H       1  UNL1        0.1233
      7 C          -8.4315  -17.0197   22.1168 C.2     1  UNL1        0.1795
      8 O          -8.2941  -15.6487   21.5238 O.2     1  UNL1       -0.2908
      9 C          -7.3672  -18.0497   21.8792 C.ar    1  UNL1        0.0658
     10 C          -6.0112  -18.0802   22.5198 C.ar    1  UNL1        0.0221
     11 C          -5.2780  -19.2794   21.9958 C.ar    1  UNL1        0.0749
     12 CL         -3.8863  -19.6951   22.3704 Cl      1  UNL1       -0.0808
     13 C          -6.1809  -19.9899   21.0314 C.ar    1  UNL1        0.0976
     14 CL         -5.8505  -21.2408   20.2724 Cl      1  UNL1       -0.0743
     15 S          -7.4721  -19.2299   20.9594 S.2     1  UNL1       -0.0718
     16 C          -8.6781  -17.2352   24.0973 C.3     1  UNL1        0.0087
     17 C          -8.7899  -16.0754   25.0420 C.3     1  UNL1        0.0005
     18 C          -8.4151  -16.3695   27.1091 C.3     1  UNL1        0.0000
     19 C          -7.6572  -15.7529   25.9710 C.3     1  UNL1        0.0000
     20 C          -6.8993  -15.1364   24.8329 C.3     1  UNL1        0.0000
     21 C          -6.5245  -15.4305   26.9000 C.3     1  UNL1        0.0000
@<TRIPOS>BOND
     1    18    19    1
     2    19    20    1
     3    19    21    1
     4    19    17    1
     5    17    16    1
     6    16     1    1
     7     1     7    1
     8     7     8    2
     9     7     9    1
    10     9    10   ar
    11    10    11   ar
    12    11    12    1
    13    11    13   ar
    14    13    14    1
    15    13    15   ar
    16     1     2    1
    17     2     3    1
    18     3     4    1
    19     4     5    1
    20     5     1    1
    21    15     9   ar
    22     4     6    1
@<TRIPOS>MOLECULE
*****
 21 22 0 0 0
SMALL
GASTEIGER

@<TRIPOS>ATOM
      1 C          -9.3938  -18.8654   23.0751 C.3     1  UNL1        0.0718
      2 C          -9.9956  -18.2031   24.2789 C.3     1  UNL1        0.0257
      3 C         -10.1801  -19.2479   25.3393 C.3     1  UNL1        0.0690
      4 N          -9.6923  -20.5560   24.7907 N.3     1  UNL1       -0.2971
      5 C          -9.2063  -20.3197   23.3915 C.3     1  UNL1        0.0759
      6 H         -10.4545  -21.2338   24.7825 H       1  UNL1        0.1233
      7 C          -8.8054  -19.2401   21.7472 C.2     1  UNL1        0.1795
      8 O          -9.7051  -19.5130   20.5784 O.2     1  UNL1       -0.2908
      9 C          -7.3174  -19.3419   21.5880 C.ar    1  UNL1        0.0658
     10 C          -6.2909  -18.6409   22.4276 C.ar    1  UNL1        0.0221
     11 C          -4.9337  -19.0283   21.9197 C.ar    1  UNL1        0.0749
     12 CL         -3.6194  -18.5580   22.4689 Cl      1  UNL1       -0.0808
     13 C          -5.1214  -19.9687   20.7663 C.ar    1  UNL1        0.0976
     14 CL         -4.0279  -20.6038   19.9595 Cl      1  UNL1       -0.0743
     15 S          -6.5946  -20.1625   20.5613 S.2     1  UNL1       -0.0718
     16 C          -9.4582  -17.4895   22.4812 C.3     1  UNL1        0.0087
     17 C         -10.7703  -16.7664   22.4045 C.3     1  UNL1        0.0005
     18 C         -10.1645  -15.5155   20.8020 C.3     1  UNL1        0.0000
     19 C         -11.3470  -16.3988   21.0695 C.3     1  UNL1        0.0000
     20 C         -12.5294  -17.2820   21.3369 C.3     1  UNL1        0.0000
     21 C         -11.9236  -16.0311   19.7344 C.3     1  UNL1        0.0000
@<TRIPOS>BOND
     1    18    19    1
     2    19    20    1
     3    19    21    1
     4    19    17    1
     5    17    16    1
     6    16     1    1
     7     1     7    1
     8     7     8    2
     9     7     9    1
    10     9    10   ar
    11    10    11   ar
    12    11    12    1
    13    11    13   ar
    14    13    14    1
    15    13    15   ar
    16     1     2    1
    17     2     3    1
    18     3     4    1
    19     4     5    1
    20     5     1    1
    21    15     9   ar
    22     4     6    1
@<TRIPOS>MOLECULE
*****
 21 22 0 0 0
SMALL
GASTEIGER

@<TRIPOS>ATOM
      1 C          -9.5307  -19.5194   21.3392 C.3     1  UNL1        0.0718
      2 C         -10.1147  -19.6017   19.9600 C.3     1  UNL1        0.0257
      3 C          -8.9813  -19.6641   18.9795 C.3     1  UNL1        0.0690
      4 N          -7.6967  -19.6204   19.7528 N.3     1  UNL1       -0.2971
      5 C          -8.0362  -19.5310   21.2111 C.3     1  UNL1        0.0759
      6 H          -7.1522  -18.8043   19.4735 H       1  UNL1        0.1233
      7 C          -9.2466  -19.4309   22.8094 C.2     1  UNL1        0.1795
      8 O          -9.3815  -20.6492   23.6740 O.2     1  UNL1       -0.2908
      9 C          -8.8276  -18.1241   23.4150 C.ar    1  UNL1        0.0658
     10 C          -7.8412  -17.1572   22.8300 C.ar    1  UNL1        0.0221
     11 C          -7.7255  -15.9903   23.7654 C.ar    1  UNL1        0.0749
     12 CL         -6.8489  -14.7887   23.5717 Cl      1  UNL1       -0.0808
     13 C          -8.6404  -16.2360   24.9284 C.ar    1  UNL1        0.0976
     14 CL         -8.8392  -15.3231   26.1020 Cl      1  UNL1       -0.0743
     15 S          -9.3216  -17.5547   24.7119 S.2     1  UNL1       -0.0718
     16 C         -10.9658  -19.4894   21.7747 C.3     1  UNL1        0.0087
     17 C         -11.8966  -18.4525   21.2190 C.3     1  UNL1        0.0005
     18 C         -12.7299  -17.9658   23.1081 C.3     1  UNL1        0.0000
     19 C         -12.1390  -17.1799   21.9753 C.3     1  UNL1        0.0000
     20 C         -11.5480  -16.3941   20.8425 C.3     1  UNL1        0.0000
     21 C         -12.3814  -15.9074   22.7316 C.3     1  UNL1        0.0000
@<TRIPOS>BOND
     1    18    19    1
     2    19    20    1
     3    19    21    1
     4    19    17    1
     5    17    16    1
     6    16     1    1
     7     1     7    1
     8     7     8    2
     9     7     9    1
    10     9    10   ar
    11    10    11   ar
    12    11    12    1
    13    11    13   ar
    14    13    14    1
    15    13    15   ar
    16     1     2    1
    17     2     3    1
    18     3     4    1
    19     4     5    1
    20     5     1    1
    21    15     9   ar
    22     4     6    1
@<TRIPOS>MOLECULE
*****
 21 22 0 0 0
SMALL
GASTEIGER

@<TRIPOS>ATOM
      1 C         -10.4884  -17.6819   21.9909 C.3     1  UNL1        0.0718
      2 C         -10.5521  -17.9942   20.5251 C.3     1  UNL1        0.0257
      3 C         -11.3697  -16.9275   19.8589 C.3     1  UNL1        0.0690
      4 N         -11.8112  -15.9560   20.9131 N.3     1  UNL1       -0.2971
      5 C         -11.2666  -16.4221   22.2306 C.3     1  UNL1        0.0759
      6 H         -12.8301  -15.9257   20.9509 H       1  UNL1        0.1233
      7 C         -10.2516  -17.6307   23.4712 C.2     1  UNL1        0.1795
      8 O         -11.2164  -18.2946   24.4084 O.2     1  UNL1       -0.2908
      9 C          -9.0501  -16.9155   24.0142 C.ar    1  UNL1        0.0658
     10 C          -7.8647  -16.4541   23.2193 C.ar    1  UNL1        0.0221
     11 C          -6.9050  -15.7897   24.1614 C.ar    1  UNL1        0.0749
     12 CL         -5.5849  -15.1813   23.7913 Cl      1  UNL1       -0.0808
     13 C          -7.4973  -15.8405   25.5386 C.ar    1  UNL1        0.0976
     14 CL         -6.8734  -15.2918   26.7874 Cl      1  UNL1       -0.0743
     15 S          -8.8230  -16.5363   25.4477 S.2     1  UNL1       -0.0718
     16 C          -9.6606  -18.9309   22.0606 C.3     1  UNL1        0.0087
     17 C          -8.6683  -19.2344   20.9774 C.3     1  UNL1        0.0005
     18 C          -6.7787  -19.1483   20.0172 C.3     1  UNL1        0.0000
     19 C          -7.2765  -19.6648   21.3346 C.3     1  UNL1        0.0000
     20 C          -7.7742  -20.1814   22.6519 C.3     1  UNL1        0.0000
     21 C          -5.8846  -20.0952   21.6917 C.3     1  UNL1        0.0000
@<TRIPOS>BOND
     1    18    19    1
     2    19    20    1
     3    19    21    1
     4    19    17    1
     5    17    16    1
     6    16     1    1
     7     1     7    1
     8     7     8    2
     9     7     9    1
    10     9    10   ar
    11    10    11   ar
    12    11    12    1
    13    11    13   ar
    14    13    14    1
    15    13    15   ar
    16     1     2    1
    17     2     3    1
    18     3     4    1
    19     4     5    1
    20     5     1    1
    21    15     9   ar
    22     4     6    1
@<TRIPOS>MOLECULE
*****
 21 22 0 0 0
SMALL
GASTEIGER

@<TRIPOS>ATOM
      1 C          -8.9762  -17.8571   22.1700 C.3     1  UNL1        0.0718
      2 C          -9.6272  -16.5077   22.0965 C.3     1  UNL1        0.0257
      3 C         -10.5127  -16.4855   20.8859 C.3     1  UNL1        0.0690
      4 N         -10.4088  -17.8212   20.2112 N.3     1  UNL1       -0.2971
      5 C          -9.4593  -18.6689   21.0048 C.3     1  UNL1        0.0759
      6 H         -10.0561  -17.7028   19.2615 H       1  UNL1        0.1233
      7 C          -8.1899  -19.0907   22.5016 C.2     1  UNL1        0.1795
      8 O          -8.8066  -20.1701   23.3410 O.2     1  UNL1       -0.2908
      9 C          -6.7869  -19.2448   21.9938 C.ar    1  UNL1        0.0658
     10 C          -6.3384  -20.1841   20.9137 C.ar    1  UNL1        0.0221
     11 C          -4.8604  -20.0065   20.7294 C.ar    1  UNL1        0.0749
     12 CL         -3.9986  -20.7478   19.7506 Cl      1  UNL1       -0.0808
     13 C          -4.3955  -18.9576   21.6955 C.ar    1  UNL1        0.0976
     14 CL         -2.9871  -18.4657   21.8526 Cl      1  UNL1       -0.0743
     15 S          -5.5861  -18.4868   22.4770 S.2     1  UNL1       -0.0718
     16 C          -8.3288  -17.3032   23.4045 C.3     1  UNL1        0.0087
     17 C          -9.1764  -16.7606   24.5169 C.3     1  UNL1        0.0005
     18 C          -7.9568  -15.1032   25.0322 C.3     1  UNL1        0.0000
     19 C          -8.5322  -16.2696   25.7795 C.3     1  UNL1        0.0000
     20 C          -9.1076  -17.4360   26.5267 C.3     1  UNL1        0.0000
     21 C          -7.8880  -15.7786   27.0420 C.3     1  UNL1        0.0000
@<TRIPOS>BOND
     1    18    19    1
     2    19    20    1
     3    19    21    1
     4    19    17    1
     5    17    16    1
     6    16     1    1
     7     1     7    1
     8     7     8    2
     9     7     9    1
    10     9    10   ar
    11    10    11   ar
    12    11    12    1
    13    11    13   ar
    14    13    14    1
    15    13    15   ar
    16     1     2    1
    17     2     3    1
    18     3     4    1
    19     4     5    1
    20     5     1    1
    21    15     9   ar
    22     4     6    1
@<TRIPOS>MOLECULE
*****
 21 22 0 0 0
SMALL
GASTEIGER

@<TRIPOS>ATOM
      1 C         -11.6076   -6.8758   18.1996 C.3     1  UNL1        0.0718
      2 C         -10.3762   -6.7815   19.0510 C.3     1  UNL1        0.0257
      3 C          -9.4089   -7.8288   18.5847 C.3     1  UNL1        0.0690
      4 N         -10.0425   -8.5704   17.4451 N.3     1  UNL1       -0.2971
      5 C         -11.4013   -7.9814   17.2071 C.3     1  UNL1        0.0759
      6 H         -10.1302   -9.5587   17.6815 H       1  UNL1        0.1233
      7 C         -12.9403   -6.7327   17.5263 C.2     1  UNL1        0.1795
      8 O         -13.0874   -5.8281   16.3389 O.2     1  UNL1       -0.2908
      9 C         -14.1260   -7.4942   18.0405 C.ar    1  UNL1        0.0658
     10 C         -14.4936   -8.9028   17.6789 C.ar    1  UNL1        0.0221
     11 C         -15.7470   -9.2599   18.4215 C.ar    1  UNL1        0.0749
     12 CL        -16.4669  -10.5741   18.3553 Cl      1  UNL1       -0.0808
     13 C         -16.1540   -8.0720   19.2421 C.ar    1  UNL1        0.0976
     14 CL        -17.3525   -7.9898   20.1403 Cl      1  UNL1       -0.0743
     15 S         -15.1522   -6.9807   19.0066 S.2     1  UNL1       -0.0718
     16 C         -12.0925   -5.7402   19.0514 C.3     1  UNL1        0.0087
     17 C         -11.3359   -4.4452   19.0763 C.3     1  UNL1        0.0005
     18 C         -10.9787   -2.5376   18.2200 C.3     1  UNL1        0.0000
     19 C         -12.0783   -3.1422   19.0419 C.3     1  UNL1        0.0000
     20 C         -13.1778   -3.7468   19.8637 C.3     1  UNL1        0.0000
     21 C         -12.8206   -1.8392   19.0074 C.3     1  UNL1        0.0000
@<TRIPOS>BOND
     1    18    19    1
     2    19    20    1
     3    19    21    1
     4    19    17    1
     5    17    16    1
     6    16     1    1
     7     1     7    1
     8     7     8    2
     9     7     9    1
    10     9    10   ar
    11    10    11   ar
    12    11    12    1
    13    11    13   ar
    14    13    14    1
    15    13    15   ar
    16     1     2    1
    17     2     3    1
    18     3     4    1
    19     4     5    1
    20     5     1    1
    21    15     9   ar
    22     4     6    1
