@<TRIPOS>MOLECULE
*****
 20 22 0 0 0
SMALL
GASTEIGER

@<TRIPOS>ATOM
      1 N          -0.9221  -17.8031   18.2460 N.pl3   1  UNL1       -0.3599
      2 C          -1.8680  -18.1952   19.3423 C.2     1  UNL1        0.0247
      3 C          -1.3433  -18.4867   20.7169 C.2     1  UNL1        0.0116
      4 C          -2.2892  -18.8787   21.8132 C.2     1  UNL1        0.0213
      5 C          -3.7596  -18.9793   21.5347 C.2     1  UNL1        0.0974
      6 N          -4.9243  -19.3398   22.4085 N.2     1  UNL1       -0.2200
      7 C          -6.1688  -19.2712   21.5739 C.2     1  UNL1        0.1901
      8 N          -5.7732  -18.8682   20.1842 N.2     1  UNL1       -0.2237
      9 C          -4.2843  -18.6878   20.1601 C.2     1  UNL1        0.0844
     10 C          -3.3384  -18.2957   19.0638 C.3     1  UNL1        0.0879
     11 H           0.0430  -17.7372   18.4288 H       1  UNL1        0.1421
     12 H          -1.2665  -17.6118   17.3438 H       1  UNL1        0.1421
     13 S          -7.5639  -19.5556   22.0461 S.3     1  UNL1       -0.0692
     14 C          -8.3691  -18.4731   22.7016 C.3     1  UNL1        0.1107
     15 C          -9.7556  -18.1708   22.2156 C.ar    1  UNL1        0.0703
     16 C         -10.9222  -18.2981   23.1498 C.ar    1  UNL1        0.0156
     17 C         -12.3087  -17.9959   22.6638 C.ar    1  UNL1        0.0028
     18 C         -12.5286  -17.5663   21.2435 C.ar    1  UNL1        0.0207
     19 C         -11.3620  -17.4391   20.3092 C.ar    1  UNL1        0.0985
     20 N          -9.9754  -17.7413   20.7953 N.ar    1  UNL1       -0.2473
@<TRIPOS>BOND
     1     1     2    1
     2     2     3    2
     3     3     4    1
     4     4     5    2
     5     5     6    1
     6     6     7    2
     7     7    13    1
     8    13    14    1
     9    14    15    1
    10    15    16   ar
    11    16    17   ar
    12    17    18   ar
    13    18    19   ar
    14    19    20   ar
    15     7     8    1
    16     8     9    2
    17     9    10    1
    18    10     2    1
    19     9     5    1
    20    20    15   ar
    21     1    11    1
    22     1    12    1
@<TRIPOS>MOLECULE
*****
 20 22 0 0 0
SMALL
GASTEIGER

@<TRIPOS>ATOM
      1 N         -12.1270  -15.5384   22.6811 N.pl3   1  UNL1       -0.3599
      2 C         -11.1357  -16.6640   22.6999 C.2     1  UNL1        0.0247
      3 C         -11.4839  -17.9589   23.3721 C.2     1  UNL1        0.0116
      4 C         -10.4927  -19.0845   23.3909 C.2     1  UNL1        0.0213
      5 C          -9.1531  -18.9153   22.7375 C.2     1  UNL1        0.0974
      6 N          -7.9809  -19.8405   22.5967 N.2     1  UNL1       -0.2200
      7 C          -6.9082  -19.1174   21.8376 C.2     1  UNL1        0.1901
      8 N          -7.4174  -17.7452   21.5091 N.2     1  UNL1       -0.2237
      9 C          -8.8049  -17.6203   22.0653 C.2     1  UNL1        0.0844
     10 C          -9.7962  -16.4947   22.0465 C.3     1  UNL1        0.0879
     11 H         -13.0062  -15.6495   23.1099 H       1  UNL1        0.1421
     12 H         -11.8984  -14.6885   22.2399 H       1  UNL1        0.1421
     13 S          -5.5624  -19.6695   21.4712 S.3     1  UNL1       -0.0692
     14 C          -4.3589  -19.3208   22.2957 C.3     1  UNL1        0.1107
     15 C          -3.2408  -18.5242   21.6912 C.ar    1  UNL1        0.0703
     16 C          -2.3270  -19.1583   20.6848 C.ar    1  UNL1        0.0156
     17 C          -1.2090  -18.3618   20.0802 C.ar    1  UNL1        0.0028
     18 C          -1.0047  -16.9311   20.4821 C.ar    1  UNL1        0.0207
     19 C          -1.9185  -16.2970   21.4885 C.ar    1  UNL1        0.0985
     20 N          -3.0366  -17.0936   22.0930 N.ar    1  UNL1       -0.2473
@<TRIPOS>BOND
     1     1     2    1
     2     2     3    2
     3     3     4    1
     4     4     5    2
     5     5     6    1
     6     6     7    2
     7     7    13    1
     8    13    14    1
     9    14    15    1
    10    15    16   ar
    11    16    17   ar
    12    17    18   ar
    13    18    19   ar
    14    19    20   ar
    15     7     8    1
    16     8     9    2
    17     9    10    1
    18    10     2    1
    19     9     5    1
    20    20    15   ar
    21     1    11    1
    22     1    12    1
@<TRIPOS>MOLECULE
*****
 20 22 0 0 0
SMALL
GASTEIGER

@<TRIPOS>ATOM
      1 N         -13.8627  -17.9096   23.8990 N.pl3   1  UNL1       -0.3599
      2 C         -12.6532  -18.0817   23.0286 C.2     1  UNL1        0.0247
      3 C         -12.6849  -17.6219   21.6011 C.2     1  UNL1        0.0116
      4 C         -11.4755  -17.7939   20.7307 C.2     1  UNL1        0.0213
      5 C         -10.2343  -18.4257   21.2878 C.2     1  UNL1        0.0974
      6 N          -8.8985  -18.7250   20.6746 N.2     1  UNL1       -0.2200
      7 C          -8.0412  -19.3698   21.7231 C.2     1  UNL1        0.1901
      8 N          -8.8472  -19.4690   22.9843 N.2     1  UNL1       -0.2237
      9 C         -10.2026  -18.8855   22.7152 C.2     1  UNL1        0.0844
     10 C         -11.4121  -18.7135   23.5856 C.3     1  UNL1        0.0879
     11 H         -14.6773  -17.4949   23.5333 H       1  UNL1        0.1421
     12 H         -13.8419  -18.2114   24.8358 H       1  UNL1        0.1421
     13 S          -6.6262  -19.8339   21.5422 S.3     1  UNL1       -0.0692
     14 C          -5.8762  -19.4835   20.2913 C.3     1  UNL1        0.1107
     15 C          -4.4255  -19.1097   20.3666 C.ar    1  UNL1        0.0703
     16 C          -3.5792  -19.6125   21.4984 C.ar    1  UNL1        0.0156
     17 C          -2.1285  -19.2387   21.5737 C.ar    1  UNL1        0.0028
     18 C          -1.5240  -18.3621   20.5171 C.ar    1  UNL1        0.0207
     19 C          -2.3703  -17.8594   19.3852 C.ar    1  UNL1        0.0985
     20 N          -3.8211  -18.2332   19.3100 N.ar    1  UNL1       -0.2473
@<TRIPOS>BOND
     1     1     2    1
     2     2     3    2
     3     3     4    1
     4     4     5    2
     5     5     6    1
     6     6     7    2
     7     7    13    1
     8    13    14    1
     9    14    15    1
    10    15    16   ar
    11    16    17   ar
    12    17    18   ar
    13    18    19   ar
    14    19    20   ar
    15     7     8    1
    16     8     9    2
    17     9    10    1
    18    10     2    1
    19     9     5    1
    20    20    15   ar
    21     1    11    1
    22     1    12    1
@<TRIPOS>MOLECULE
*****
 20 22 0 0 0
SMALL
GASTEIGER

@<TRIPOS>ATOM
      1 N         -12.9490  -15.8649   19.9302 N.pl3   1  UNL1       -0.3599
      2 C         -11.8760  -16.4960   20.7671 C.2     1  UNL1        0.0247
      3 C         -11.8540  -16.2740   22.2504 C.2     1  UNL1        0.0116
      4 C         -10.7810  -16.9051   23.0874 C.2     1  UNL1        0.0213
      5 C          -9.7301  -17.7582   22.4410 C.2     1  UNL1        0.0974
      6 N          -8.5571  -18.5046   23.0040 N.2     1  UNL1       -0.2200
      7 C          -7.8542  -19.1879   21.8687 C.2     1  UNL1        0.1901
      8 N          -8.5928  -18.8639   20.6040 N.2     1  UNL1       -0.2237
      9 C          -9.7522  -17.9802   20.9578 C.2     1  UNL1        0.0844
     10 C         -10.8251  -17.3491   20.1208 C.3     1  UNL1        0.0879
     11 H         -13.6387  -15.3050   20.3544 H       1  UNL1        0.1421
     12 H         -12.9634  -16.0106   18.9566 H       1  UNL1        0.1421
     13 S          -6.6280  -20.0449   21.9787 S.3     1  UNL1       -0.0692
     14 C          -5.7351  -20.2330   20.7882 C.3     1  UNL1        0.1107
     15 C          -4.3874  -19.5757   20.7500 C.ar    1  UNL1        0.0703
     16 C          -3.9020  -18.9330   19.4846 C.ar    1  UNL1        0.0156
     17 C          -2.5543  -18.2756   19.4465 C.ar    1  UNL1        0.0028
     18 C          -1.6919  -18.2610   20.6738 C.ar    1  UNL1        0.0207
     19 C          -2.1773  -18.9037   21.9392 C.ar    1  UNL1        0.0985
     20 N          -3.5251  -19.5611   21.9773 N.ar    1  UNL1       -0.2473
@<TRIPOS>BOND
     1     1     2    1
     2     2     3    2
     3     3     4    1
     4     4     5    2
     5     5     6    1
     6     6     7    2
     7     7    13    1
     8    13    14    1
     9    14    15    1
    10    15    16   ar
    11    16    17   ar
    12    17    18   ar
    13    18    19   ar
    14    19    20   ar
    15     7     8    1
    16     8     9    2
    17     9    10    1
    18    10     2    1
    19     9     5    1
    20    20    15   ar
    21     1    11    1
    22     1    12    1
@<TRIPOS>MOLECULE
*****
 20 22 0 0 0
SMALL
GASTEIGER

@<TRIPOS>ATOM
      1 N         -13.0525  -17.2954   23.4009 N.pl3   1  UNL1       -0.3599
      2 C         -11.7170  -17.9542   23.2202 C.2     1  UNL1        0.0247
      3 C         -11.1354  -18.7858   24.3248 C.2     1  UNL1        0.0116
      4 C          -9.8000  -19.4445   24.1441 C.2     1  UNL1        0.0213
      5 C          -9.0461  -19.2717   22.8589 C.2     1  UNL1        0.0974
      6 N          -7.7192  -19.7954   22.3953 N.2     1  UNL1       -0.2200
      7 C          -7.4807  -19.2875   21.0042 C.2     1  UNL1        0.1901
      8 N          -8.6603  -18.4498   20.6080 N.2     1  UNL1       -0.2237
      9 C          -9.6278  -18.4401   21.7544 C.2     1  UNL1        0.0844
     10 C         -10.9632  -17.7813   21.9350 C.3     1  UNL1        0.0879
     11 H         -13.5472  -17.4089   24.2444 H       1  UNL1        0.1421
     12 H         -13.4342  -16.7496   22.6759 H       1  UNL1        0.1421
     13 S          -6.2745  -19.5681   20.1578 S.3     1  UNL1       -0.0692
     14 C          -5.0326  -20.1293   20.7846 C.3     1  UNL1        0.1107
     15 C          -3.8458  -19.2432   21.0215 C.ar    1  UNL1        0.0703
     16 C          -3.7478  -18.4430   22.2864 C.ar    1  UNL1        0.0156
     17 C          -2.5610  -17.5569   22.5233 C.ar    1  UNL1        0.0028
     18 C          -1.4720  -17.4709   21.4952 C.ar    1  UNL1        0.0207
     19 C          -1.5700  -18.2712   20.2303 C.ar    1  UNL1        0.0985
     20 N          -2.7569  -19.1573   19.9934 N.ar    1  UNL1       -0.2473
@<TRIPOS>BOND
     1     1     2    1
     2     2     3    2
     3     3     4    1
     4     4     5    2
     5     5     6    1
     6     6     7    2
     7     7    13    1
     8    13    14    1
     9    14    15    1
    10    15    16   ar
    11    16    17   ar
    12    17    18   ar
    13    18    19   ar
    14    19    20   ar
    15     7     8    1
    16     8     9    2
    17     9    10    1
    18    10     2    1
    19     9     5    1
    20    20    15   ar
    21     1    11    1
    22     1    12    1
@<TRIPOS>MOLECULE
*****
 20 22 0 0 0
SMALL
GASTEIGER

@<TRIPOS>ATOM
      1 N         -19.6085   -9.5587   20.0541 N.pl3   1  UNL1       -0.3599
      2 C         -18.2136   -9.3684   19.5364 C.2     1  UNL1        0.0247
      3 C         -17.5658  -10.4424   18.7138 C.2     1  UNL1        0.0116
      4 C         -16.1709  -10.2521   18.1962 C.2     1  UNL1        0.0213
      5 C         -15.4237   -8.9877   18.5011 C.2     1  UNL1        0.0974
      6 N         -14.0474   -8.5208   18.1301 N.2     1  UNL1       -0.2200
      7 C         -13.8445   -7.1581   18.7235 C.2     1  UNL1        0.1901
      8 N         -15.0955   -6.7829   19.4612 N.2     1  UNL1       -0.2237
      9 C         -16.0715   -7.9136   19.3237 C.2     1  UNL1        0.0844
     10 C         -17.4665   -8.1040   19.8414 C.3     1  UNL1        0.0879
     11 H         -20.0989  -10.3886   19.8539 H       1  UNL1        0.1421
     12 H         -20.0337   -8.8537   20.5940 H       1  UNL1        0.1421
     13 S         -12.6077   -6.3182   18.6007 S.3     1  UNL1       -0.0692
     14 C         -12.4575   -5.0785   19.4316 C.3     1  UNL1        0.1107
     15 C         -11.9444   -3.8148   18.8073 C.ar    1  UNL1        0.0703
     16 C         -12.3645   -2.4832   19.3554 C.ar    1  UNL1        0.0156
     17 C         -11.8514   -1.2195   18.7312 C.ar    1  UNL1        0.0028
     18 C         -10.9181   -1.2874   17.5587 C.ar    1  UNL1        0.0207
     19 C         -10.4981   -2.6189   17.0106 C.ar    1  UNL1        0.0985
     20 N         -11.0112   -3.8827   17.6350 N.ar    1  UNL1       -0.2473
@<TRIPOS>BOND
     1     1     2    1
     2     2     3    2
     3     3     4    1
     4     4     5    2
     5     5     6    1
     6     6     7    2
     7     7    13    1
     8    13    14    1
     9    14    15    1
    10    15    16   ar
    11    16    17   ar
    12    17    18   ar
    13    18    19   ar
    14    19    20   ar
    15     7     8    1
    16     8     9    2
    17     9    10    1
    18    10     2    1
    19     9     5    1
    20    20    15   ar
    21     1    11    1
    22     1    12    1
@<TRIPOS>MOLECULE
*****
 20 22 0 0 0
SMALL
GASTEIGER

@<TRIPOS>ATOM
      1 N         -19.3833   -9.9030   19.7306 N.pl3   1  UNL1       -0.3599
      2 C         -18.1006   -9.1643   19.4873 C.2     1  UNL1        0.0247
      3 C         -16.8785   -9.9104   19.0405 C.2     1  UNL1        0.0116
      4 C         -15.5959   -9.1717   18.7973 C.2     1  UNL1        0.0213
      5 C         -15.5354   -7.6869   19.0008 C.2     1  UNL1        0.0974
      6 N         -14.4203   -6.6964   18.8409 N.2     1  UNL1       -0.2200
      7 C         -14.9532   -5.3382   19.1890 C.2     1  UNL1        0.1901
      8 N         -16.3977   -5.4891   19.5639 N.2     1  UNL1       -0.2237
      9 C         -16.7575   -6.9407   19.4476 C.2     1  UNL1        0.0844
     10 C         -18.0401   -7.6795   19.6909 C.3     1  UNL1        0.0879
     11 H         -19.4230  -10.8776   19.5970 H       1  UNL1        0.1421
     12 H         -20.1854   -9.4133   20.0238 H       1  UNL1        0.1421
     13 S         -14.1777   -4.0543   19.1660 S.3     1  UNL1       -0.0692
     14 C         -12.7965   -4.0020   19.7486 C.3     1  UNL1        0.1107
     15 C         -11.6024   -4.2240   18.8685 C.ar    1  UNL1        0.0703
     16 C         -10.8329   -5.5084   18.9583 C.ar    1  UNL1        0.0156
     17 C          -9.6387   -5.7305   18.0782 C.ar    1  UNL1        0.0028
     18 C          -9.2140   -4.6680   17.1082 C.ar    1  UNL1        0.0207
     19 C          -9.9835   -3.3836   17.0184 C.ar    1  UNL1        0.0985
     20 N         -11.1777   -3.1616   17.8986 N.ar    1  UNL1       -0.2473
@<TRIPOS>BOND
     1     1     2    1
     2     2     3    2
     3     3     4    1
     4     4     5    2
     5     5     6    1
     6     6     7    2
     7     7    13    1
     8    13    14    1
     9    14    15    1
    10    15    16   ar
    11    16    17   ar
    12    17    18   ar
    13    18    19   ar
    14    19    20   ar
    15     7     8    1
    16     8     9    2
    17     9    10    1
    18    10     2    1
    19     9     5    1
    20    20    15   ar
    21     1    11    1
    22     1    12    1
@<TRIPOS>MOLECULE
*****
 20 22 0 0 0
SMALL
GASTEIGER

@<TRIPOS>ATOM
      1 N          -9.2500   -7.6752   18.5073 N.pl3   1  UNL1       -0.3599
      2 C         -10.2952   -6.6284   18.7561 C.2     1  UNL1        0.0247
      3 C          -9.9183   -5.1765   18.7525 C.2     1  UNL1        0.0116
      4 C         -10.9635   -4.1297   19.0013 C.2     1  UNL1        0.0213
      5 C         -12.3855   -4.5348   19.2538 C.2     1  UNL1        0.0974
      6 N         -13.6237   -3.7339   19.5279 N.2     1  UNL1       -0.2200
      7 C         -14.7659   -4.6907   19.7010 C.2     1  UNL1        0.1901
      8 N         -14.2335   -6.0831   19.5338 N.2     1  UNL1       -0.2237
      9 C         -12.7623   -5.9867   19.2574 C.2     1  UNL1        0.0844
     10 C         -11.7171   -7.0335   19.0086 C.3     1  UNL1        0.0879
     11 H          -8.3167   -7.4093   18.3416 H       1  UNL1        0.1421
     12 H          -9.4973   -8.6281   18.5097 H       1  UNL1        0.1421
     13 S         -16.1904   -4.3202   19.9904 S.3     1  UNL1       -0.0692
     14 C         -17.2903   -4.8165   19.0994 C.3     1  UNL1        0.1107
     15 C         -18.1101   -6.0035   19.5101 C.ar    1  UNL1        0.0703
     16 C         -17.4653   -7.3516   19.6405 C.ar    1  UNL1        0.0156
     17 C         -18.2852   -8.5386   20.0512 C.ar    1  UNL1        0.0028
     18 C         -19.7500   -8.3776   20.3316 C.ar    1  UNL1        0.0207
     19 C         -20.3948   -7.0296   20.2012 C.ar    1  UNL1        0.0985
     20 N         -19.5749   -5.8425   19.7905 N.ar    1  UNL1       -0.2473
@<TRIPOS>BOND
     1     1     2    1
     2     2     3    2
     3     3     4    1
     4     4     5    2
     5     5     6    1
     6     6     7    2
     7     7    13    1
     8    13    14    1
     9    14    15    1
    10    15    16   ar
    11    16    17   ar
    12    17    18   ar
    13    18    19   ar
    14    19    20   ar
    15     7     8    1
    16     8     9    2
    17     9    10    1
    18    10     2    1
    19     9     5    1
    20    20    15   ar
    21     1    11    1
    22     1    12    1
@<TRIPOS>MOLECULE
*****
 20 22 0 0 0
SMALL
GASTEIGER

@<TRIPOS>ATOM
      1 N           3.9067   -1.2872   16.9084 N.pl3   1  UNL1       -0.3599
      2 C           4.4380   -2.0748   18.0692 C.2     1  UNL1        0.0247
      3 C           3.4929   -2.8146   18.9689 C.2     1  UNL1        0.0116
      4 C           4.0242   -3.6022   20.1297 C.2     1  UNL1        0.0213
      5 C           5.5005   -3.6501   20.3907 C.2     1  UNL1        0.0974
      6 N           6.3109   -4.3374   21.4494 N.2     1  UNL1       -0.2200
      7 C           7.7568   -4.0224   21.2040 C.2     1  UNL1        0.1901
      8 N           7.8400   -3.1404   19.9936 N.2     1  UNL1       -0.2237
      9 C           6.4456   -2.9103   19.4910 C.2     1  UNL1        0.0844
     10 C           5.9143   -2.1227   18.3302 C.3     1  UNL1        0.0879
     11 H           2.9377   -1.2558   16.7371 H       1  UNL1        0.1421
     12 H           4.5270   -0.8016   16.3179 H       1  UNL1        0.1421
     13 S           8.9159   -4.5048   22.0249 S.3     1  UNL1       -0.0692
     14 C           8.9008   -5.8886   22.6036 C.3     1  UNL1        0.1107
     15 C           8.2586   -6.1373   23.9362 C.ar    1  UNL1        0.0703
     16 C           8.2361   -7.5226   24.5110 C.ar    1  UNL1        0.0156
     17 C           7.5940   -7.7713   25.8435 C.ar    1  UNL1        0.0028
     18 C           6.9744   -6.6347   26.6014 C.ar    1  UNL1        0.0207
     19 C           6.9969   -5.2494   26.0266 C.ar    1  UNL1        0.0985
     20 N           7.6391   -5.0007   24.6939 N.ar    1  UNL1       -0.2473
@<TRIPOS>BOND
     1     1     2    1
     2     2     3    2
     3     3     4    1
     4     4     5    2
     5     5     6    1
     6     6     7    2
     7     7    13    1
     8    13    14    1
     9    14    15    1
    10    15    16   ar
    11    16    17   ar
    12    17    18   ar
    13    18    19   ar
    14    19    20   ar
    15     7     8    1
    16     8     9    2
    17     9    10    1
    18    10     2    1
    19     9     5    1
    20    20    15   ar
    21     1    11    1
    22     1    12    1
