@<TRIPOS>MOLECULE
*****
 39 43 0 0 0
SMALL
GASTEIGER

@<TRIPOS>ATOM
      1 C           2.2912    1.0241   22.8151 C.3     1  UNL1        0.1195
      2 C           1.1314    1.7197   23.4636 C.3     1  UNL1        0.0300
      3 C           0.9694    1.6771   24.9543 C.3     1  UNL1        0.0043
      4 C           1.9673    0.9387   25.7963 C.3     1  UNL1        0.0219
      5 C           2.0679    0.7249   27.2776 C.3     1  UNL1        0.0905
      6 N           3.2899   -0.1030   27.5444 N.pl3   1  UNL1       -0.3106
      7 C           3.9446   -0.4008   26.2281 C.3     1  UNL1        0.0909
      8 C           3.1272    0.2430   25.1477 C.3     1  UNL1        0.0278
      9 C           3.2892    0.2857   23.6571 C.3     1  UNL1        0.0512
     10 C           4.4490   -0.4100   23.0084 C.ar    1  UNL1       -0.0200
     11 C           4.5270   -1.9079   23.0199 C.ar    1  UNL1       -0.0019
     12 C           5.6869   -2.6035   22.3713 C.ar    1  UNL1        0.0293
     13 C           6.7689   -1.8013   21.7112 C.ar    1  UNL1        0.1401
     14 F           7.9287   -2.4969   21.0626 F       1  UNL1       -0.2042
     15 C           6.6909   -0.3033   21.6997 C.ar    1  UNL1        0.0293
     16 C           5.5311    0.3923   22.3483 C.ar    1  UNL1       -0.0019
     17 C           3.7726   -0.5539   28.8912 C.2     1  UNL1        0.0281
     18 C           3.0082   -0.4604   30.1784 C.2     1  UNL1        0.0475
     19 C           3.8675   -1.0262   31.2699 C.2     1  UNL1        0.1744
     20 O           3.4965   -1.1305   32.7196 O.2     1  UNL1       -0.2913
     21 C           5.1630   -1.4695   30.6573 C.3     1  UNL1        0.0752
     22 C           5.1043   -1.1776   29.1871 C.3     1  UNL1        0.0493
     23 O           2.4533    1.0667   21.3244 O.3     1  UNL1       -0.3540
     24 C           0.6151   -0.5238   20.4073 C.3     1  UNL1        0.0370
     25 C           2.0563   -0.1168   20.4928 C.3     1  UNL1        0.1374
     26 C           3.1004   -0.8934   19.7466 C.ar    1  UNL1        0.0044
     27 C           4.1327   -0.1716   18.9322 C.ar    1  UNL1        0.0019
     28 C           5.1768   -0.9481   18.1860 C.ar    1  UNL1        0.0711
     29 C           5.1887   -2.4464   18.2542 C.ar    1  UNL1        0.0077
     30 C           4.1564   -3.1683   19.0686 C.ar    1  UNL1        0.0711
     31 C           3.1123   -2.3918   19.8148 C.ar    1  UNL1        0.0019
     32 C           6.2091   -0.2262   17.3716 C.3     1  UNL1        0.4186
     33 F           7.2414    0.4957   16.5572 F       1  UNL1       -0.1659
     34 F           7.2572   -0.5833   18.3835 F       1  UNL1       -0.1659
     35 F           5.1610    0.1309   16.3597 F       1  UNL1       -0.1659
     36 C           4.1682   -4.6667   19.1369 C.3     1  UNL1        0.4186
     37 F           4.1799   -6.1651   19.2051 F       1  UNL1       -0.1659
     38 F           2.7267   -4.6969   18.7234 F       1  UNL1       -0.1659
     39 F           5.6098   -4.6366   19.5503 F       1  UNL1       -0.1659
@<TRIPOS>BOND
     1    25    24    1
     2    25    23    1
     3     1    23    1
     4     1     2    1
     5     2     3    1
     6     4     3    1
     7     4     5    1
     8     5     6    1
     9     6    17    1
    10    17    18    2
    11    18    19    1
    12    19    20    2
    13    19    21    1
    14    21    22    1
    15     6     7    1
    16     8     7    1
    17     8     9    1
    18     9    10    1
    19    10    11   ar
    20    11    12   ar
    21    12    13   ar
    22    13    14    1
    23    13    15   ar
    24    15    16   ar
    25    25    26    1
    26    26    27   ar
    27    27    28   ar
    28    28    32    1
    29    32    33    1
    30    32    34    1
    31    32    35    1
    32    28    29   ar
    33    29    30   ar
    34    30    36    1
    35    36    37    1
    36    36    38    1
    37    36    39    1
    38    30    31   ar
    39     9     1    1
    40    16    10   ar
    41    31    26   ar
    42     8     4    1
    43    22    17    1
@<TRIPOS>MOLECULE
*****
 39 43 0 0 0
SMALL
GASTEIGER

@<TRIPOS>ATOM
      1 C           2.3199    1.0601   22.8100 C.3     1  UNL1        0.1195
      2 C           1.1686    1.7647   23.4641 C.3     1  UNL1        0.0300
      3 C           1.0110    1.7196   24.9552 C.3     1  UNL1        0.0043
      4 C           2.0048    0.9699   25.7921 C.3     1  UNL1        0.0219
      5 C           2.1081    0.7512   27.2724 C.3     1  UNL1        0.0905
      6 N           3.3233   -0.0885   27.5332 N.pl3   1  UNL1       -0.3106
      7 C           3.9710   -0.3889   26.2140 C.3     1  UNL1        0.0909
      8 C           3.1561    0.2652   25.1379 C.3     1  UNL1        0.0278
      9 C           3.3137    0.3103   23.6469 C.3     1  UNL1        0.0512
     10 C           4.4650   -0.3943   22.9927 C.ar    1  UNL1       -0.0200
     11 C           5.5446    0.3992   22.3183 C.ar    1  UNL1       -0.0019
     12 C           6.6959   -0.3056   21.6642 C.ar    1  UNL1        0.0293
     13 C           6.7676   -1.8037   21.6843 C.ar    1  UNL1        0.1401
     14 F           7.9188   -2.5083   21.0302 F       1  UNL1       -0.2042
     15 C           5.6879   -2.5972   22.3587 C.ar    1  UNL1        0.0293
     16 C           4.5367   -1.8925   23.0129 C.ar    1  UNL1       -0.0019
     17 C           3.8061   -0.5474   28.8772 C.2     1  UNL1        0.0281
     18 C           3.0240   -0.5054   30.1564 C.2     1  UNL1        0.0475
     19 C           3.8903   -1.0609   31.2478 C.2     1  UNL1        0.1744
     20 O           3.5065   -1.2056   32.6906 O.2     1  UNL1       -0.2913
     21 C           5.2078   -1.4463   30.6430 C.3     1  UNL1        0.0752
     22 C           5.1558   -1.1289   29.1778 C.3     1  UNL1        0.0493
     23 O           2.4775    1.1051   21.3190 O.3     1  UNL1       -0.3540
     24 C           0.6179   -0.4585   20.3986 C.3     1  UNL1        0.0370
     25 C           2.0645   -0.0715   20.4853 C.3     1  UNL1        0.1374
     26 C           3.0981   -0.8613   19.7383 C.ar    1  UNL1        0.0044
     27 C           3.1023   -2.3590   19.8216 C.ar    1  UNL1        0.0019
     28 C           4.1359   -3.1488   19.0747 C.ar    1  UNL1        0.0711
     29 C           5.1653   -2.4410   18.2445 C.ar    1  UNL1        0.0077
     30 C           5.1611   -0.9433   18.1612 C.ar    1  UNL1        0.0711
     31 C           4.1276   -0.1535   18.9081 C.ar    1  UNL1        0.0019
     32 C           4.1400   -4.6465   19.1580 C.3     1  UNL1        0.4186
     33 F           4.1442   -6.1442   19.2413 F       1  UNL1       -0.1659
     34 F           2.6901   -4.6718   18.7746 F       1  UNL1       -0.1659
     35 F           5.5900   -4.6212   19.5413 F       1  UNL1       -0.1659
     36 C           6.1905   -0.2354   17.3310 C.3     1  UNL1        0.4186
     37 F           7.2198    0.4725   16.5007 F       1  UNL1       -0.1659
     38 F           5.1351    0.1211   16.3265 F       1  UNL1       -0.1659
     39 F           7.2459   -0.5919   18.3354 F       1  UNL1       -0.1659
@<TRIPOS>BOND
     1    25    24    1
     2    25    23    1
     3     1    23    1
     4     1     2    1
     5     2     3    1
     6     4     3    1
     7     4     5    1
     8     5     6    1
     9     6    17    1
    10    17    18    2
    11    18    19    1
    12    19    20    2
    13    19    21    1
    14    21    22    1
    15     6     7    1
    16     8     7    1
    17     8     9    1
    18     9    10    1
    19    10    11   ar
    20    11    12   ar
    21    12    13   ar
    22    13    14    1
    23    13    15   ar
    24    15    16   ar
    25    25    26    1
    26    26    27   ar
    27    27    28   ar
    28    28    32    1
    29    32    33    1
    30    32    34    1
    31    32    35    1
    32    28    29   ar
    33    29    30   ar
    34    30    36    1
    35    36    37    1
    36    36    38    1
    37    36    39    1
    38    30    31   ar
    39     9     1    1
    40    16    10   ar
    41    31    26   ar
    42     8     4    1
    43    22    17    1
@<TRIPOS>MOLECULE
*****
 39 43 0 0 0
SMALL
GASTEIGER

@<TRIPOS>ATOM
      1 C           7.4652   -4.0649   21.0533 C.3     1  UNL1        0.1195
      2 C           8.4010   -5.2335   20.9631 C.3     1  UNL1        0.0300
      3 C           8.7807   -5.9879   22.2028 C.3     1  UNL1        0.0043
      4 C           8.2244   -5.5735   23.5327 C.3     1  UNL1        0.0219
      5 C           8.4166   -6.1213   24.9158 C.3     1  UNL1        0.0905
      6 N           7.5994   -5.2911   25.8608 N.pl3   1  UNL1       -0.3106
      7 C           6.9022   -4.2302   25.0618 C.3     1  UNL1        0.0909
      8 C           7.2884   -4.4047   23.6229 C.3     1  UNL1        0.0278
      9 C           6.9088   -3.6504   22.3832 C.3     1  UNL1        0.0512
     10 C           5.9729   -2.4817   22.4734 C.ar    1  UNL1       -0.0200
     11 C           6.4754   -1.0954   22.1983 C.ar    1  UNL1       -0.0019
     12 C           5.5394    0.0732   22.2885 C.ar    1  UNL1        0.0293
     13 C           4.1010   -0.1443   22.6539 C.ar    1  UNL1        0.1401
     14 F           3.1651    1.0243   22.7441 F       1  UNL1       -0.2042
     15 C           3.5985   -1.5307   22.9290 C.ar    1  UNL1        0.0293
     16 C           4.5344   -2.6993   22.8388 C.ar    1  UNL1       -0.0019
     17 C           7.4974   -5.4873   27.3444 C.2     1  UNL1        0.0281
     18 C           8.5387   -6.1123   28.2248 C.2     1  UNL1        0.0475
     19 C           8.0210   -6.1043   29.6326 C.2     1  UNL1        0.1744
     20 O           8.7386   -6.6333   30.8389 O.2     1  UNL1       -0.2913
     21 C           6.6597   -5.4744   29.6224 C.3     1  UNL1        0.0752
     22 C           6.3361   -5.0931   28.2081 C.3     1  UNL1        0.0493
     23 O           7.0855   -3.3105   19.8136 O.3     1  UNL1       -0.3540
     24 C           4.8828   -4.5765   19.2704 C.3     1  UNL1        0.0370
     25 C           5.6582   -3.2951   19.3526 C.3     1  UNL1        0.1374
     26 C           5.0062   -1.9983   18.9739 C.ar    1  UNL1        0.0044
     27 C           5.7709   -0.9766   18.1857 C.ar    1  UNL1        0.0019
     28 C           5.1190    0.3202   17.8069 C.ar    1  UNL1        0.0711
     29 C           3.7024    0.5951   18.2163 C.ar    1  UNL1        0.0077
     30 C           2.9377   -0.4266   19.0045 C.ar    1  UNL1        0.0711
     31 C           3.5896   -1.7233   19.3833 C.ar    1  UNL1        0.0019
     32 C           5.8836    1.3419   17.0187 C.3     1  UNL1        0.4186
     33 F           6.6483    2.3637   16.2305 F       1  UNL1       -0.1659
     34 F           4.9918    2.4225   17.5543 F       1  UNL1       -0.1659
     35 F           6.7754    0.2613   16.4830 F       1  UNL1       -0.1659
     36 C           1.5211   -0.1517   19.4139 C.3     1  UNL1        0.4186
     37 F           0.1045    0.1233   19.8233 F       1  UNL1       -0.1659
     38 F           1.4367    0.9400   18.3888 F       1  UNL1       -0.1659
     39 F           1.6055   -1.2434   20.4391 F       1  UNL1       -0.1659
@<TRIPOS>BOND
     1    25    24    1
     2    25    23    1
     3     1    23    1
     4     1     2    1
     5     2     3    1
     6     4     3    1
     7     4     5    1
     8     5     6    1
     9     6    17    1
    10    17    18    2
    11    18    19    1
    12    19    20    2
    13    19    21    1
    14    21    22    1
    15     6     7    1
    16     8     7    1
    17     8     9    1
    18     9    10    1
    19    10    11   ar
    20    11    12   ar
    21    12    13   ar
    22    13    14    1
    23    13    15   ar
    24    15    16   ar
    25    25    26    1
    26    26    27   ar
    27    27    28   ar
    28    28    32    1
    29    32    33    1
    30    32    34    1
    31    32    35    1
    32    28    29   ar
    33    29    30   ar
    34    30    36    1
    35    36    37    1
    36    36    38    1
    37    36    39    1
    38    30    31   ar
    39     9     1    1
    40    16    10   ar
    41    31    26   ar
    42     8     4    1
    43    22    17    1
@<TRIPOS>MOLECULE
*****
 39 43 0 0 0
SMALL
GASTEIGER

@<TRIPOS>ATOM
      1 C           7.2471   -3.8937   21.4850 C.3     1  UNL1        0.1195
      2 C           8.1340   -5.1009   21.5623 C.3     1  UNL1        0.0300
      3 C           8.4418   -5.7214   22.8929 C.3     1  UNL1        0.0043
      4 C           7.8626   -5.1347   24.1460 C.3     1  UNL1        0.0219
      5 C           7.9877   -5.5263   25.5885 C.3     1  UNL1        0.0905
      6 N           7.1781   -4.5611   26.4027 N.pl3   1  UNL1       -0.3106
      7 C           6.5527   -3.5729   25.4633 C.3     1  UNL1        0.0909
      8 C           6.9757   -3.9274   24.0686 C.3     1  UNL1        0.0278
      9 C           6.6680   -3.3069   22.7381 C.3     1  UNL1        0.0512
     10 C           5.7811   -2.0997   22.6607 C.ar    1  UNL1       -0.0200
     11 C           4.3263   -2.2144   23.0074 C.ar    1  UNL1       -0.0019
     12 C           3.4394   -1.0070   22.9300 C.ar    1  UNL1        0.0293
     13 C           4.0074    0.3149   22.5058 C.ar    1  UNL1        0.1401
     14 F           3.1206    1.5221   22.4284 F       1  UNL1       -0.2042
     15 C           5.4623    0.4295   22.1591 C.ar    1  UNL1        0.0293
     16 C           6.3491   -0.7777   22.2365 C.ar    1  UNL1       -0.0019
     17 C           7.0214   -4.5806   27.8944 C.2     1  UNL1        0.0281
     18 C           7.1161   -5.7911   28.7751 C.2     1  UNL1        0.0475
     19 C           6.8957   -5.3517   30.1922 C.2     1  UNL1        0.1744
     20 O           6.9047   -6.2386   31.4019 O.2     1  UNL1       -0.2913
     21 C           6.6648   -3.8695   30.1874 C.3     1  UNL1        0.0752
     22 C           6.7425   -3.3930   28.7672 C.3     1  UNL1        0.0493
     23 O           6.9393   -3.2731   20.1544 O.3     1  UNL1       -0.3540
     24 C           4.7632   -4.5661   19.5694 C.3     1  UNL1        0.0370
     25 C           5.5338   -3.2807   19.6306 C.3     1  UNL1        0.1374
     26 C           4.8988   -2.0029   19.1679 C.ar    1  UNL1        0.0044
     27 C           3.4779   -1.6950   19.5369 C.ar    1  UNL1        0.0019
     28 C           2.8429   -0.4172   19.0743 C.ar    1  UNL1        0.0711
     29 C           3.6288    0.5527   18.2427 C.ar    1  UNL1        0.0077
     30 C           5.0497    0.2449   17.8737 C.ar    1  UNL1        0.0711
     31 C           5.6847   -1.0329   18.3364 C.ar    1  UNL1        0.0019
     32 C           1.4219   -0.1094   19.4432 C.3     1  UNL1        0.4186
     33 F           0.0010    0.1984   19.8122 F       1  UNL1       -0.1659
     34 F           1.4475   -1.2110   20.4609 F       1  UNL1       -0.1659
     35 F           1.3963    0.9922   18.4255 F       1  UNL1       -0.1659
     36 C           5.8357    1.2148   17.0422 C.3     1  UNL1        0.4186
     37 F           6.6216    2.1847   16.2107 F       1  UNL1       -0.1659
     38 F           4.9467    2.3311   17.5040 F       1  UNL1       -0.1659
     39 F           6.7248    0.0984   16.5804 F       1  UNL1       -0.1659
@<TRIPOS>BOND
     1    25    24    1
     2    25    23    1
     3     1    23    1
     4     1     2    1
     5     2     3    1
     6     4     3    1
     7     4     5    1
     8     5     6    1
     9     6    17    1
    10    17    18    2
    11    18    19    1
    12    19    20    2
    13    19    21    1
    14    21    22    1
    15     6     7    1
    16     8     7    1
    17     8     9    1
    18     9    10    1
    19    10    11   ar
    20    11    12   ar
    21    12    13   ar
    22    13    14    1
    23    13    15   ar
    24    15    16   ar
    25    25    26    1
    26    26    27   ar
    27    27    28   ar
    28    28    32    1
    29    32    33    1
    30    32    34    1
    31    32    35    1
    32    28    29   ar
    33    29    30   ar
    34    30    36    1
    35    36    37    1
    36    36    38    1
    37    36    39    1
    38    30    31   ar
    39     9     1    1
    40    16    10   ar
    41    31    26   ar
    42     8     4    1
    43    22    17    1
@<TRIPOS>MOLECULE
*****
 39 43 0 0 0
SMALL
GASTEIGER

@<TRIPOS>ATOM
      1 C           2.6337    1.5585   24.6274 C.3     1  UNL1        0.1195
      2 C           2.7532    1.7073   26.1151 C.3     1  UNL1        0.0300
      3 C           1.5918    2.2214   26.9132 C.3     1  UNL1        0.0043
      4 C           0.3109    2.5866   26.2234 C.3     1  UNL1        0.0219
      5 C          -0.9933    3.1154   26.7426 C.3     1  UNL1        0.0905
      6 N          -1.9188    3.2934   25.5756 N.pl3   1  UNL1       -0.3106
      7 C          -1.1866    2.8746   24.3352 C.3     1  UNL1        0.0909
      8 C           0.1914    2.4378   24.7356 C.3     1  UNL1        0.0278
      9 C           1.3528    1.9237   23.9376 C.3     1  UNL1        0.0512
     10 C           1.2333    1.7748   22.4498 C.ar    1  UNL1       -0.0200
     11 C           0.6066    0.5429   21.8672 C.ar    1  UNL1       -0.0019
     12 C           0.4871    0.3941   20.3794 C.ar    1  UNL1        0.0293
     13 C           0.9944    1.4772   19.4741 C.ar    1  UNL1        0.1401
     14 F           0.8750    1.3284   17.9864 F       1  UNL1       -0.2042
     15 C           1.6212    2.7092   20.0567 C.ar    1  UNL1        0.0293
     16 C           1.7407    2.8580   21.5445 C.ar    1  UNL1       -0.0019
     17 C          -3.3289    3.8010   25.6381 C.2     1  UNL1        0.0281
     18 C          -4.3707    3.6437   24.5704 C.2     1  UNL1        0.0475
     19 C          -5.6304    4.3005   25.0516 C.2     1  UNL1        0.1744
     20 O          -6.9259    4.3801   24.2997 O.2     1  UNL1       -0.2913
     21 C          -5.3672    4.8639   26.4167 C.3     1  UNL1        0.0752
     22 C          -3.9447    4.5551   26.7791 C.3     1  UNL1        0.0493
     23 O           3.7952    1.0444   23.8293 O.3     1  UNL1       -0.3540
     24 C           3.9116   -1.4295   24.6143 C.3     1  UNL1        0.0370
     25 C           3.8957   -0.4172   23.5075 C.3     1  UNL1        0.1374
     26 C           3.9802   -0.8666   22.0789 C.ar    1  UNL1        0.0044
     27 C           3.8452   -2.3219   21.7413 C.ar    1  UNL1        0.0019
     28 C           3.9297   -2.7714   20.3127 C.ar    1  UNL1        0.0711
     29 C           4.1494   -1.7656   19.2217 C.ar    1  UNL1        0.0077
     30 C           4.2845   -0.3104   19.5593 C.ar    1  UNL1        0.0711
     31 C           4.1999    0.1391   20.9879 C.ar    1  UNL1        0.0019
     32 C           3.7946   -4.2266   19.9751 C.3     1  UNL1        0.4186
     33 F           3.6595   -5.6819   19.6375 F       1  UNL1       -0.1659
     34 F           3.5039   -3.8685   18.5478 F       1  UNL1       -0.1659
     35 F           4.0853   -4.5847   21.4024 F       1  UNL1       -0.1659
     36 C           4.5041    0.6954   18.4685 C.3     1  UNL1        0.4186
     37 F           4.7238    1.7013   17.3776 F       1  UNL1       -0.1659
     38 F           5.5136    1.4024   19.3235 F       1  UNL1       -0.1659
     39 F           3.4947   -0.0115   17.6133 F       1  UNL1       -0.1659
@<TRIPOS>BOND
     1    25    24    1
     2    25    23    1
     3     1    23    1
     4     1     2    1
     5     2     3    1
     6     4     3    1
     7     4     5    1
     8     5     6    1
     9     6    17    1
    10    17    18    2
    11    18    19    1
    12    19    20    2
    13    19    21    1
    14    21    22    1
    15     6     7    1
    16     8     7    1
    17     8     9    1
    18     9    10    1
    19    10    11   ar
    20    11    12   ar
    21    12    13   ar
    22    13    14    1
    23    13    15   ar
    24    15    16   ar
    25    25    26    1
    26    26    27   ar
    27    27    28   ar
    28    28    32    1
    29    32    33    1
    30    32    34    1
    31    32    35    1
    32    28    29   ar
    33    29    30   ar
    34    30    36    1
    35    36    37    1
    36    36    38    1
    37    36    39    1
    38    30    31   ar
    39     9     1    1
    40    16    10   ar
    41    31    26   ar
    42     8     4    1
    43    22    17    1
@<TRIPOS>MOLECULE
*****
 39 43 0 0 0
SMALL
GASTEIGER

@<TRIPOS>ATOM
      1 C           2.5252    1.8012   24.5694 C.3     1  UNL1        0.1195
      2 C           2.6298    2.0061   26.0515 C.3     1  UNL1        0.0300
      3 C           1.4496    2.5179   26.8231 C.3     1  UNL1        0.0043
      4 C           0.1648    2.8248   26.1122 C.3     1  UNL1        0.0219
      5 C          -1.1563    3.3376   26.6036 C.3     1  UNL1        0.0905
      6 N          -2.0774    3.4496   25.4250 N.pl3   1  UNL1       -0.3106
      7 C          -1.3255    3.0060   24.2053 C.3     1  UNL1        0.0909
      8 C           0.0603    2.6198   24.6300 C.3     1  UNL1        0.0278
      9 C           1.2405    2.1080   23.8585 C.3     1  UNL1        0.0512
     10 C           1.1360    1.9031   22.3763 C.ar    1  UNL1       -0.0200
     11 C           1.5999    2.9759   21.4362 C.ar    1  UNL1       -0.0019
     12 C           1.4953    2.7709   19.9540 C.ar    1  UNL1        0.0293
     13 C           0.9269    1.4930   19.4118 C.ar    1  UNL1        0.1401
     14 F           0.8224    1.2881   17.9296 F       1  UNL1       -0.2042
     15 C           0.4630    0.4202   20.3519 C.ar    1  UNL1        0.0293
     16 C           0.5675    0.6251   21.8341 C.ar    1  UNL1       -0.0019
     17 C          -3.5006    3.9223   25.4600 C.2     1  UNL1        0.0281
     18 C          -4.5454    3.6513   24.4185 C.2     1  UNL1        0.0475
     19 C          -5.8193    4.3104   24.8574 C.2     1  UNL1        0.1744
     20 O          -7.1221    4.2941   24.1141 O.2     1  UNL1       -0.2913
     21 C          -5.5619    4.9888   26.1703 C.3     1  UNL1        0.0752
     22 C          -4.1287    4.7489   26.5427 C.3     1  UNL1        0.0493
     23 O           3.7055    1.2893   23.7978 O.3     1  UNL1       -0.3540
     24 C           3.8308   -1.1746   24.6120 C.3     1  UNL1        0.0370
     25 C           3.8251   -0.1747   23.4940 C.3     1  UNL1        0.1374
     26 C           3.9390   -0.6388   22.0721 C.ar    1  UNL1        0.0044
     27 C           4.1879    0.3550   20.9765 C.ar    1  UNL1        0.0019
     28 C           4.3018   -0.1091   19.5546 C.ar    1  UNL1        0.0711
     29 C           4.1668   -1.5669   19.2284 C.ar    1  UNL1        0.0077
     30 C           3.9179   -2.5607   20.3240 C.ar    1  UNL1        0.0711
     31 C           3.8040   -2.0967   21.7459 C.ar    1  UNL1        0.0019
     32 C           4.5506    0.8847   18.4590 C.3     1  UNL1        0.4186
     33 F           4.7995    1.8785   17.3634 F       1  UNL1       -0.1659
     34 F           3.5393    0.1883   17.5976 F       1  UNL1       -0.1659
     35 F           5.5620    1.5811   19.3204 F       1  UNL1       -0.1659
     36 C           3.7830   -4.0186   19.9979 C.3     1  UNL1        0.4186
     37 F           3.6480   -5.4764   19.6717 F       1  UNL1       -0.1659
     38 F           3.4467   -3.6699   18.5783 F       1  UNL1       -0.1659
     39 F           4.1192   -4.3674   21.4175 F       1  UNL1       -0.1659
@<TRIPOS>BOND
     1    25    24    1
     2    25    23    1
     3     1    23    1
     4     1     2    1
     5     2     3    1
     6     4     3    1
     7     4     5    1
     8     5     6    1
     9     6    17    1
    10    17    18    2
    11    18    19    1
    12    19    20    2
    13    19    21    1
    14    21    22    1
    15     6     7    1
    16     8     7    1
    17     8     9    1
    18     9    10    1
    19    10    11   ar
    20    11    12   ar
    21    12    13   ar
    22    13    14    1
    23    13    15   ar
    24    15    16   ar
    25    25    26    1
    26    26    27   ar
    27    27    28   ar
    28    28    32    1
    29    32    33    1
    30    32    34    1
    31    32    35    1
    32    28    29   ar
    33    29    30   ar
    34    30    36    1
    35    36    37    1
    36    36    38    1
    37    36    39    1
    38    30    31   ar
    39     9     1    1
    40    16    10   ar
    41    31    26   ar
    42     8     4    1
    43    22    17    1
@<TRIPOS>MOLECULE
*****
 39 43 0 0 0
SMALL
GASTEIGER

@<TRIPOS>ATOM
      1 C           2.2922    1.9732   22.8170 C.3     1  UNL1        0.1195
      2 C           1.6948    2.5726   24.0554 C.3     1  UNL1        0.0300
      3 C           0.2977    3.1179   24.0260 C.3     1  UNL1        0.0043
      4 C          -0.5018    3.0639   22.7580 C.3     1  UNL1        0.0219
      5 C          -1.8926    3.5188   22.4283 C.3     1  UNL1        0.0905
      6 N          -2.1547    3.2006   20.9861 N.pl3   1  UNL1       -0.3106
      7 C          -0.9259    2.5490   20.4244 C.3     1  UNL1        0.0909
      8 C           0.0956    2.4644   21.5196 C.3     1  UNL1        0.0278
      9 C           1.4927    1.9191   21.5491 C.3     1  UNL1        0.0512
     10 C           2.0902    1.3197   20.3106 C.ar    1  UNL1       -0.0200
     11 C           1.6711   -0.0491   19.8626 C.ar    1  UNL1       -0.0019
     12 C           2.2687   -0.6484   18.6241 C.ar    1  UNL1        0.0293
     13 C           3.2852    0.1210   17.8337 C.ar    1  UNL1        0.1401
     14 F           3.8826   -0.4784   16.5953 F       1  UNL1       -0.2042
     15 C           3.7042    1.4898   18.2818 C.ar    1  UNL1        0.0293
     16 C           3.1067    2.0892   19.5202 C.ar    1  UNL1       -0.0019
     17 C          -3.4229    3.4842   20.2370 C.2     1  UNL1        0.0281
     18 C          -3.5217    4.0881   18.8675 C.2     1  UNL1        0.0475
     19 C          -4.9748    4.1909   18.5099 C.2     1  UNL1        0.1744
     20 O          -5.5310    4.7380   17.2288 O.2     1  UNL1       -0.2913
     21 C          -5.7742    3.6505   19.6584 C.3     1  UNL1        0.0752
     22 C          -4.8150    3.2138   20.7259 C.3     1  UNL1        0.0493
     23 O           3.6893    1.4278   22.8465 O.3     1  UNL1       -0.3540
     24 C           3.5907   -0.7435   24.2697 C.3     1  UNL1        0.0370
     25 C           3.9152   -0.0490   22.9804 C.3     1  UNL1        0.1374
     26 C           4.4656   -0.8314   21.8249 C.ar    1  UNL1        0.0044
     27 C           5.5239   -0.2302   20.9483 C.ar    1  UNL1        0.0019
     28 C           6.0743   -1.0125   19.7929 C.ar    1  UNL1        0.0711
     29 C           5.5664   -2.3961   19.5140 C.ar    1  UNL1        0.0077
     30 C           4.5080   -2.9973   20.3906 C.ar    1  UNL1        0.0711
     31 C           3.9576   -2.2150   21.5461 C.ar    1  UNL1        0.0019
     32 C           7.1326   -0.4113   18.9163 C.3     1  UNL1        0.4186
     33 F           8.1910    0.1899   18.0397 F       1  UNL1       -0.1659
     34 F           6.8408    0.9425   19.4924 F       1  UNL1       -0.1659
     35 F           7.4245   -1.7651   18.3401 F       1  UNL1       -0.1659
     36 C           4.0000   -4.3808   20.1119 C.3     1  UNL1        0.4186
     37 F           3.4920   -5.7644   19.8332 F       1  UNL1       -0.1659
     38 F           3.9689   -4.6660   21.5842 F       1  UNL1       -0.1659
     39 F           4.0312   -4.0957   18.6396 F       1  UNL1       -0.1659
@<TRIPOS>BOND
     1    25    24    1
     2    25    23    1
     3     1    23    1
     4     1     2    1
     5     2     3    1
     6     4     3    1
     7     4     5    1
     8     5     6    1
     9     6    17    1
    10    17    18    2
    11    18    19    1
    12    19    20    2
    13    19    21    1
    14    21    22    1
    15     6     7    1
    16     8     7    1
    17     8     9    1
    18     9    10    1
    19    10    11   ar
    20    11    12   ar
    21    12    13   ar
    22    13    14    1
    23    13    15   ar
    24    15    16   ar
    25    25    26    1
    26    26    27   ar
    27    27    28   ar
    28    28    32    1
    29    32    33    1
    30    32    34    1
    31    32    35    1
    32    28    29   ar
    33    29    30   ar
    34    30    36    1
    35    36    37    1
    36    36    38    1
    37    36    39    1
    38    30    31   ar
    39     9     1    1
    40    16    10   ar
    41    31    26   ar
    42     8     4    1
    43    22    17    1
@<TRIPOS>MOLECULE
*****
 39 43 0 0 0
SMALL
GASTEIGER

@<TRIPOS>ATOM
      1 C           2.4203    1.7569   22.9569 C.3     1  UNL1        0.1195
      2 C           1.7729    2.2775   24.2057 C.3     1  UNL1        0.0300
      3 C           0.3748    2.8188   24.1561 C.3     1  UNL1        0.0043
      4 C          -0.3758    2.8394   22.8576 C.3     1  UNL1        0.0219
      5 C          -1.7557    3.3088   22.5033 C.3     1  UNL1        0.0905
      6 N          -1.9611    3.0782   21.0354 N.pl3   1  UNL1       -0.3106
      7 C          -0.7081    2.4663   20.4826 C.3     1  UNL1        0.0909
      8 C           0.2716    2.3187   21.6087 C.3     1  UNL1        0.0278
      9 C           1.6697    1.7774   21.6584 C.3     1  UNL1        0.0512
     10 C           2.3172    1.2567   20.4095 C.ar    1  UNL1       -0.0200
     11 C           1.8884   -0.0612   19.8359 C.ar    1  UNL1       -0.0019
     12 C           2.5360   -0.5819   18.5870 C.ar    1  UNL1        0.0293
     13 C           3.6122    0.2154   17.9118 C.ar    1  UNL1        0.1401
     14 F           4.2597   -0.3052   16.6630 F       1  UNL1       -0.2042
     15 C           4.0409    1.5335   18.4854 C.ar    1  UNL1        0.0293
     16 C           3.3935    2.0541   19.7342 C.ar    1  UNL1       -0.0019
     17 C          -3.2016    3.4025   20.2570 C.2     1  UNL1        0.0281
     18 C          -3.2485    3.9780   18.8726 C.2     1  UNL1        0.0475
     19 C          -4.6889    4.1395   18.4864 C.2     1  UNL1        0.1744
     20 O          -5.1968    4.6815   17.1832 O.2     1  UNL1       -0.2913
     21 C          -5.5322    3.6638   19.6320 C.3     1  UNL1        0.0752
     22 C          -4.6130    3.2083   20.7264 C.3     1  UNL1        0.0493
     23 O           3.8184    1.2156   23.0065 O.3     1  UNL1       -0.3540
     24 C           3.7582   -0.9747   24.4026 C.3     1  UNL1        0.0370
     25 C           4.0467   -0.2630   23.1141 C.3     1  UNL1        0.1374
     26 C           4.5637   -1.0300   21.9331 C.ar    1  UNL1        0.0044
     27 C           3.9761   -2.3673   21.5919 C.ar    1  UNL1        0.0019
     28 C           4.4929   -3.1344   20.4111 C.ar    1  UNL1        0.0711
     29 C           5.5974   -2.5642   19.5714 C.ar    1  UNL1        0.0077
     30 C           6.1850   -1.2269   19.9126 C.ar    1  UNL1        0.0711
     31 C           5.6681   -0.4598   21.0935 C.ar    1  UNL1        0.0019
     32 C           3.9053   -4.4716   20.0698 C.3     1  UNL1        0.4186
     33 F           3.3177   -5.8089   19.7286 F       1  UNL1       -0.1659
     34 F           3.9101   -4.8444   21.5227 F       1  UNL1       -0.1659
     35 F           3.9006   -4.0988   18.6169 F       1  UNL1       -0.1659
     36 C           7.2894   -0.6567   19.0730 C.3     1  UNL1        0.4186
     37 F           8.3939   -0.0865   18.2334 F       1  UNL1       -0.1659
     38 F           6.8387   -1.4929   17.9122 F       1  UNL1       -0.1659
     39 F           7.7402    0.1796   20.2338 F       1  UNL1       -0.1659
@<TRIPOS>BOND
     1    25    24    1
     2    25    23    1
     3     1    23    1
     4     1     2    1
     5     2     3    1
     6     4     3    1
     7     4     5    1
     8     5     6    1
     9     6    17    1
    10    17    18    2
    11    18    19    1
    12    19    20    2
    13    19    21    1
    14    21    22    1
    15     6     7    1
    16     8     7    1
    17     8     9    1
    18     9    10    1
    19    10    11   ar
    20    11    12   ar
    21    12    13   ar
    22    13    14    1
    23    13    15   ar
    24    15    16   ar
    25    25    26    1
    26    26    27   ar
    27    27    28   ar
    28    28    32    1
    29    32    33    1
    30    32    34    1
    31    32    35    1
    32    28    29   ar
    33    29    30   ar
    34    30    36    1
    35    36    37    1
    36    36    38    1
    37    36    39    1
    38    30    31   ar
    39     9     1    1
    40    16    10   ar
    41    31    26   ar
    42     8     4    1
    43    22    17    1
@<TRIPOS>MOLECULE
*****
 39 43 0 0 0
SMALL
GASTEIGER

@<TRIPOS>ATOM
      1 C           3.2905    0.3715   23.4400 C.3     1  UNL1        0.1195
      2 C           2.2279    0.6743   24.4544 C.3     1  UNL1        0.0300
      3 C           2.3490    0.1386   25.8503 C.3     1  UNL1        0.0043
      4 C           3.5328   -0.6999   26.2316 C.3     1  UNL1        0.0219
      5 C           3.9210   -1.3609   27.5210 C.3     1  UNL1        0.0905
      6 N           5.2235   -2.0723   27.3033 N.pl3   1  UNL1       -0.3106
      7 C           5.6404   -1.8510   25.8795 C.3     1  UNL1        0.0909
      8 C           4.5955   -1.0028   25.2171 C.3     1  UNL1        0.0278
      9 C           4.4743   -0.4671   23.8213 C.3     1  UNL1        0.0512
     10 C           5.5369   -0.7699   22.8069 C.ar    1  UNL1       -0.0200
     11 C           6.3201    0.3478   22.1846 C.ar    1  UNL1       -0.0019
     12 C           7.3828    0.0449   21.1702 C.ar    1  UNL1        0.0293
     13 C           7.6622   -1.3757   20.7779 C.ar    1  UNL1        0.1401
     14 F           8.7247   -1.6785   19.7635 F       1  UNL1       -0.2042
     15 C           6.8789   -2.4934   21.4002 C.ar    1  UNL1        0.0293
     16 C           5.8163   -2.1906   22.4146 C.ar    1  UNL1       -0.0019
     17 C           5.9769   -2.8657   28.3294 C.2     1  UNL1        0.0281
     18 C           6.2943   -4.3298   28.2531 C.2     1  UNL1        0.0475
     19 C           7.0588   -4.7033   29.4884 C.2     1  UNL1        0.1744
     20 O           7.5772   -6.0701   29.8249 O.2     1  UNL1       -0.2913
     21 C           7.2139   -3.4702   30.3282 C.3     1  UNL1        0.0752
     22 C           6.5452   -2.3344   29.6119 C.3     1  UNL1        0.0493
     23 O           3.1694    0.9072   22.0441 O.3     1  UNL1       -0.3540
     24 C           1.0332    0.0531   20.8369 C.3     1  UNL1        0.0370
     25 C           2.5267    0.0747   20.9745 C.3     1  UNL1        0.1374
     26 C           3.3775   -0.7361   20.0424 C.ar    1  UNL1        0.0044
     27 C           4.3145   -0.0495   19.0935 C.ar    1  UNL1        0.0019
     28 C           5.1653   -0.8603   18.1614 C.ar    1  UNL1        0.0711
     29 C           5.0792   -2.3577   18.1783 C.ar    1  UNL1        0.0077
     30 C           4.1422   -3.0443   19.1272 C.ar    1  UNL1        0.0711
     31 C           3.2914   -2.2335   20.0593 C.ar    1  UNL1        0.0019
     32 C           6.1023   -0.1736   17.2124 C.3     1  UNL1        0.4186
     33 F           7.0393    0.5130   16.2635 F       1  UNL1       -0.1659
     34 F           5.1350    0.9653   17.0814 F       1  UNL1       -0.1659
     35 F           7.0697   -1.3125   17.3435 F       1  UNL1       -0.1659
     36 C           4.0559   -4.5417   19.1442 C.3     1  UNL1        0.4186
     37 F           3.9696   -6.0391   19.1612 F       1  UNL1       -0.1659
     38 F           2.5676   -4.4579   18.9773 F       1  UNL1       -0.1659
     39 F           5.5442   -4.6256   19.3111 F       1  UNL1       -0.1659
@<TRIPOS>BOND
     1    25    24    1
     2    25    23    1
     3     1    23    1
     4     1     2    1
     5     2     3    1
     6     4     3    1
     7     4     5    1
     8     5     6    1
     9     6    17    1
    10    17    18    2
    11    18    19    1
    12    19    20    2
    13    19    21    1
    14    21    22    1
    15     6     7    1
    16     8     7    1
    17     8     9    1
    18     9    10    1
    19    10    11   ar
    20    11    12   ar
    21    12    13   ar
    22    13    14    1
    23    13    15   ar
    24    15    16   ar
    25    25    26    1
    26    26    27   ar
    27    27    28   ar
    28    28    32    1
    29    32    33    1
    30    32    34    1
    31    32    35    1
    32    28    29   ar
    33    29    30   ar
    34    30    36    1
    35    36    37    1
    36    36    38    1
    37    36    39    1
    38    30    31   ar
    39     9     1    1
    40    16    10   ar
    41    31    26   ar
    42     8     4    1
    43    22    17    1
