@<TRIPOS>MOLECULE
*****
 29 31 0 0 0
SMALL
GASTEIGER

@<TRIPOS>ATOM
      1 C          -5.2464  -17.3321   23.0169 C.3     1  UNL1        0.1232
      2 S          -5.2115  -16.5748   24.3112 S.3     1  UNL1       -0.1046
      3 C          -6.3601  -16.1489   25.1770 C.ar    1  UNL1        0.0393
      4 C          -5.8854  -15.4078   26.3916 C.ar    1  UNL1        0.0074
      5 C          -6.8780  -14.8930   27.3914 C.ar    1  UNL1        0.0006
      6 C          -8.3452  -15.1193   27.1767 C.ar    1  UNL1        0.0013
      7 C          -8.8198  -15.8604   25.9620 C.ar    1  UNL1        0.0154
      8 C          -7.8272  -16.3753   24.9622 C.ar    1  UNL1        0.0607
      9 N          -8.5082  -17.0834   23.8286 N.am    1  UNL1       -0.2431
     10 C          -7.8902  -17.7400   22.6299 C.2     1  UNL1        0.2718
     11 O          -8.8509  -18.3690   21.6648 O.2     1  UNL1       -0.2706
     12 C          -6.4386  -17.8507   22.2687 C.3     1  UNL1        0.2586
     13 C          -1.2458  -18.1576   21.1292 C.ar    1  UNL1        0.1387
     14 C          -1.7685  -16.7532   21.1951 C.ar    1  UNL1        0.0366
     15 C          -3.1021  -16.4780   21.8243 C.ar    1  UNL1       -0.0002
     16 C          -3.9129  -17.6073   22.3877 C.ar    1  UNL1       -0.0080
     17 C          -3.3902  -19.0117   22.3218 C.ar    1  UNL1       -0.0002
     18 C          -2.0566  -19.2870   21.6925 C.ar    1  UNL1        0.0366
     19 C           0.9501  -17.2942   20.0417 C.3     1  UNL1        0.2525
     20 O           0.0877  -18.4328   20.4999 O.3     1  UNL1       -0.4714
     21 C         -10.0051  -17.1426   23.9037 C.3     1  UNL1        0.1407
     22 C         -10.8273  -15.9900   23.4080 C.3     1  UNL1        0.0403
     23 N         -10.6800  -18.3546   24.4746 N.3     1  UNL1       -0.2552
     24 C         -12.1641  -18.5224   24.3347 C.3     1  UNL1        0.0909
     25 C          -9.8710  -19.3986   25.1854 C.3     1  UNL1        0.0909
     26 O          -6.1395  -18.5758   20.9901 O.3     1  UNL1       -0.4415
     27 C          -6.0617  -20.0737   20.9780 C.2     1  UNL1        0.3179
     28 C          -5.4562  -20.7838   19.8036 C.3     1  UNL1        0.1212
     29 O          -6.5894  -20.8616   22.1403 O.2     1  UNL1       -0.2501
@<TRIPOS>BOND
     1    19    20    1
     2    20    13    1
     3    13    14   ar
     4    14    15   ar
     5    15    16   ar
     6     1    16    1
     7     1     2    1
     8     2     3    1
     9     3     4   ar
    10     4     5   ar
    11     5     6   ar
    12     6     7   ar
    13     7     8   ar
    14     8     9    1
    15     9    21    1
    16    21    22    1
    17    21    23    1
    18    23    24    1
    19    23    25    1
    20     9    10   am
    21    10    11    2
    22    10    12    1
    23    12    26    1
    24    26    27    1
    25    27    28    1
    26    27    29    2
    27    16    17   ar
    28    17    18   ar
    29    18    13   ar
    30    12     1    1
    31     8     3   ar
@<TRIPOS>MOLECULE
*****
 29 31 0 0 0
SMALL
GASTEIGER

@<TRIPOS>ATOM
      1 C          -5.6874  -18.6198   21.1190 C.3     1  UNL1        0.1232
      2 S          -6.6099  -19.2239   20.1022 S.3     1  UNL1       -0.1046
      3 C          -8.1077  -19.3014   20.1272 C.ar    1  UNL1        0.0393
      4 C          -8.6413  -19.9915   18.9070 C.ar    1  UNL1        0.0074
      5 C         -10.1202  -20.1740   18.7350 C.ar    1  UNL1        0.0006
      6 C         -11.0655  -19.6664   19.7832 C.ar    1  UNL1        0.0013
      7 C         -10.5319  -18.9762   21.0034 C.ar    1  UNL1        0.0154
      8 C          -9.0530  -18.7937   21.1754 C.ar    1  UNL1        0.0607
      9 N          -8.7339  -18.0833   22.4574 N.am    1  UNL1       -0.2431
     10 C          -7.3908  -17.7050   23.0079 C.2     1  UNL1        0.2718
     11 O          -7.4054  -16.9940   24.3285 O.2     1  UNL1       -0.2706
     12 C          -6.0350  -17.9438   22.4122 C.3     1  UNL1        0.2586
     13 C          -1.2970  -18.8681   20.1640 C.ar    1  UNL1        0.1387
     14 C          -1.8309  -19.5096   21.4103 C.ar    1  UNL1        0.0366
     15 C          -3.2944  -19.4269   21.7287 C.ar    1  UNL1       -0.0002
     16 C          -4.2240  -18.7026   20.8007 C.ar    1  UNL1       -0.0080
     17 C          -3.6901  -18.0610   19.5543 C.ar    1  UNL1       -0.0002
     18 C          -2.2266  -18.1438   19.2359 C.ar    1  UNL1        0.0366
     19 C           1.0609  -17.7779   20.1182 C.3     1  UNL1        0.2525
     20 O           0.1664  -18.9509   19.8457 O.3     1  UNL1       -0.4714
     21 C          -9.9141  -17.7004   23.3004 C.3     1  UNL1        0.1407
     22 C         -10.4061  -16.2834   23.3028 C.3     1  UNL1        0.0403
     23 N         -10.6022  -18.7347   24.1412 N.3     1  UNL1       -0.2552
     24 C          -9.8220  -19.8877   24.6996 C.3     1  UNL1        0.0909
     25 C         -12.0706  -18.6158   24.4236 C.3     1  UNL1        0.0909
     26 O          -4.8731  -17.4399   23.2160 O.3     1  UNL1       -0.4415
     27 C          -4.3284  -16.0649   22.9662 C.2     1  UNL1        0.3179
     28 C          -2.9571  -15.8960   22.3823 C.3     1  UNL1        0.1212
     29 O          -5.1550  -14.8586   23.3005 O.2     1  UNL1       -0.2501
@<TRIPOS>BOND
     1    19    20    1
     2    20    13    1
     3    13    14   ar
     4    14    15   ar
     5    15    16   ar
     6     1    16    1
     7     1     2    1
     8     2     3    1
     9     3     4   ar
    10     4     5   ar
    11     5     6   ar
    12     6     7   ar
    13     7     8   ar
    14     8     9    1
    15     9    21    1
    16    21    22    1
    17    21    23    1
    18    23    24    1
    19    23    25    1
    20     9    10   am
    21    10    11    2
    22    10    12    1
    23    12    26    1
    24    26    27    1
    25    27    28    1
    26    27    29    2
    27    16    17   ar
    28    17    18   ar
    29    18    13   ar
    30    12     1    1
    31     8     3   ar
@<TRIPOS>MOLECULE
*****
 29 31 0 0 0
SMALL
GASTEIGER

@<TRIPOS>ATOM
      1 C          -8.5290  -18.0885   23.0142 C.3     1  UNL1        0.1232
      2 S          -8.0452  -19.1145   22.0327 S.3     1  UNL1       -0.1046
      3 C          -6.6394  -19.3994   21.5940 C.ar    1  UNL1        0.0393
      4 C          -6.5935  -20.5137   20.5908 C.ar    1  UNL1        0.0074
      5 C          -5.2783  -20.9571   20.0221 C.ar    1  UNL1        0.0006
      6 C          -4.0089  -20.2863   20.4565 C.ar    1  UNL1        0.0013
      7 C          -4.0548  -19.1721   21.4596 C.ar    1  UNL1        0.0154
      8 C          -5.3700  -18.7286   22.0284 C.ar    1  UNL1        0.0607
      9 N          -5.1930  -17.6072   23.0088 N.am    1  UNL1       -0.2431
     10 C          -6.2415  -16.8797   23.7969 C.2     1  UNL1        0.2718
     11 O          -5.7391  -15.7945   24.7024 O.2     1  UNL1       -0.2706
     12 C          -7.7262  -17.0939   23.7993 C.3     1  UNL1        0.2586
     13 C         -12.9761  -17.9796   23.6928 C.ar    1  UNL1        0.1387
     14 C         -12.3506  -17.0739   22.6738 C.ar    1  UNL1        0.0366
     15 C         -10.8681  -17.1102   22.4475 C.ar    1  UNL1       -0.0002
     16 C         -10.0113  -18.0522   23.2404 C.ar    1  UNL1       -0.0080
     17 C         -10.6369  -18.9579   24.2594 C.ar    1  UNL1       -0.0002
     18 C         -12.1193  -18.9216   24.4857 C.ar    1  UNL1        0.0366
     19 C         -15.0376  -18.4984   25.1866 C.3     1  UNL1        0.2525
     20 O         -14.4585  -17.9433   23.9190 O.3     1  UNL1       -0.4714
     21 C          -3.7806  -17.1534   23.2303 C.3     1  UNL1        0.1407
     22 C          -2.9185  -17.8504   24.2408 C.3     1  UNL1        0.0403
     23 N          -3.2301  -16.0024   22.4414 N.3     1  UNL1       -0.2552
     24 C          -3.8840  -14.6550   22.5248 C.3     1  UNL1        0.0909
     25 C          -2.0259  -16.1989   21.5690 C.3     1  UNL1        0.0909
     26 O          -8.5120  -16.1945   24.7069 O.3     1  UNL1       -0.4415
     27 C          -8.5291  -16.4499   26.1848 C.2     1  UNL1        0.3179
     28 C          -8.1358  -15.3611   27.1387 C.3     1  UNL1        0.1212
     29 O          -8.9394  -17.7942   26.7090 O.2     1  UNL1       -0.2501
@<TRIPOS>BOND
     1    19    20    1
     2    20    13    1
     3    13    14   ar
     4    14    15   ar
     5    15    16   ar
     6     1    16    1
     7     1     2    1
     8     2     3    1
     9     3     4   ar
    10     4     5   ar
    11     5     6   ar
    12     6     7   ar
    13     7     8   ar
    14     8     9    1
    15     9    21    1
    16    21    22    1
    17    21    23    1
    18    23    24    1
    19    23    25    1
    20     9    10   am
    21    10    11    2
    22    10    12    1
    23    12    26    1
    24    26    27    1
    25    27    28    1
    26    27    29    2
    27    16    17   ar
    28    17    18   ar
    29    18    13   ar
    30    12     1    1
    31     8     3   ar
@<TRIPOS>MOLECULE
*****
 29 31 0 0 0
SMALL
GASTEIGER

@<TRIPOS>ATOM
      1 C           5.9193   -3.1833   24.0473 C.3     1  UNL1        0.1232
      2 S           4.9003   -2.1109   24.2952 S.3     1  UNL1       -0.1046
      3 C           3.9584   -1.4717   23.3183 C.ar    1  UNL1        0.0393
      4 C           3.1003   -0.4357   23.9820 C.ar    1  UNL1        0.0074
      5 C           2.0867    0.3247   23.1794 C.ar    1  UNL1        0.0006
      6 C           1.9311    0.0491   21.7131 C.ar    1  UNL1        0.0013
      7 C           2.7891   -0.9869   21.0495 C.ar    1  UNL1        0.0154
      8 C           3.8028   -1.7473   21.8521 C.ar    1  UNL1        0.0607
      9 N           4.5507   -2.7300   21.0007 N.am    1  UNL1       -0.2431
     10 C           5.6389   -3.6799   21.4051 C.2     1  UNL1        0.2718
     11 O           6.1910   -4.5420   20.3088 O.2     1  UNL1       -0.2706
     12 C           6.2479   -3.8816   22.7610 C.3     1  UNL1        0.2586
     13 C           8.3056   -4.4770   27.6364 C.ar    1  UNL1        0.1387
     14 C           7.4201   -5.4605   26.9303 C.ar    1  UNL1        0.0366
     15 C           6.6246   -5.0294   25.7339 C.ar    1  UNL1       -0.0002
     16 C           6.7147   -3.6146   25.2436 C.ar    1  UNL1       -0.0080
     17 C           7.6002   -2.6310   25.9497 C.ar    1  UNL1       -0.0002
     18 C           8.3956   -3.0622   27.1461 C.ar    1  UNL1        0.0366
     19 C           8.7685   -6.1936   29.5309 C.3     1  UNL1        0.2525
     20 O           9.1010   -4.9083   28.8327 O.3     1  UNL1       -0.4714
     21 C           4.1585   -2.7679   19.5534 C.3     1  UNL1        0.1407
     22 C           3.1951   -3.8085   19.0642 C.3     1  UNL1        0.0403
     23 N           4.7296   -1.7651   18.5951 N.3     1  UNL1       -0.2552
     24 C           3.8547   -1.1498   17.5434 C.3     1  UNL1        0.0909
     25 C           6.1757   -1.3776   18.6884 C.3     1  UNL1        0.0909
     26 O           7.3286   -4.9188   22.8413 O.3     1  UNL1       -0.4415
     27 C           8.7014   -4.6134   22.3198 C.2     1  UNL1        0.3179
     28 C           9.5352   -3.5542   22.9778 C.3     1  UNL1        0.1212
     29 O           9.2407   -5.3673   21.1404 O.2     1  UNL1       -0.2501
@<TRIPOS>BOND
     1    19    20    1
     2    20    13    1
     3    13    14   ar
     4    14    15   ar
     5    15    16   ar
     6     1    16    1
     7     1     2    1
     8     2     3    1
     9     3     4   ar
    10     4     5   ar
    11     5     6   ar
    12     6     7   ar
    13     7     8   ar
    14     8     9    1
    15     9    21    1
    16    21    22    1
    17    21    23    1
    18    23    24    1
    19    23    25    1
    20     9    10   am
    21    10    11    2
    22    10    12    1
    23    12    26    1
    24    26    27    1
    25    27    28    1
    26    27    29    2
    27    16    17   ar
    28    17    18   ar
    29    18    13   ar
    30    12     1    1
    31     8     3   ar
@<TRIPOS>MOLECULE
*****
 29 31 0 0 0
SMALL
GASTEIGER

@<TRIPOS>ATOM
      1 C           6.4319   -3.1036   25.5104 C.3     1  UNL1        0.1232
      2 S           5.3321   -2.0837   25.4958 S.3     1  UNL1       -0.1046
      3 C           4.4800   -1.6434   24.3425 C.ar    1  UNL1        0.0393
      4 C           3.4918   -0.5951   24.7601 C.ar    1  UNL1        0.0074
      5 C           2.5409   -0.0176   23.7540 C.ar    1  UNL1        0.0006
      6 C           2.5782   -0.4885   22.3303 C.ar    1  UNL1        0.0013
      7 C           3.5664   -1.5368   21.9127 C.ar    1  UNL1        0.0154
      8 C           4.5173   -2.1142   22.9188 C.ar    1  UNL1        0.0607
      9 N           5.4160   -3.1417   22.2969 N.am    1  UNL1       -0.2431
     10 C           6.4992   -3.9520   22.9449 C.2     1  UNL1        0.2718
     11 O           7.2264   -4.9054   22.0437 O.2     1  UNL1       -0.2706
     12 C           6.9513   -3.9350   24.3750 C.3     1  UNL1        0.2586
     13 C           8.4386   -3.7549   29.4851 C.ar    1  UNL1        0.1387
     14 C           9.1350   -2.9703   28.4130 C.ar    1  UNL1        0.0366
     15 C           8.4662   -2.7532   27.0880 C.ar    1  UNL1       -0.0002
     16 C           7.1008   -3.3207   26.8352 C.ar    1  UNL1       -0.0080
     17 C           6.4044   -4.1052   27.9074 C.ar    1  UNL1       -0.0002
     18 C           7.0732   -4.3223   29.2323 C.ar    1  UNL1        0.0366
     19 C           9.3674   -5.3658   31.2996 C.3     1  UNL1        0.2525
     20 O           9.1074   -3.9720   30.8100 O.3     1  UNL1       -0.4714
     21 C           5.2032   -3.3919   20.8332 C.3     1  UNL1        0.1407
     22 C           4.2052   -4.4181   20.3850 C.3     1  UNL1        0.0403
     23 N           5.9885   -2.6158   19.8178 N.3     1  UNL1       -0.2552
     24 C           5.7273   -2.8166   18.3544 C.3     1  UNL1        0.0909
     25 C           7.0349   -1.6389   20.2657 C.3     1  UNL1        0.0909
     26 O           8.0709   -4.8737   24.7148 O.3     1  UNL1       -0.4415
     27 C           7.7846   -6.3260   24.9573 C.2     1  UNL1        0.3179
     28 C           8.4049   -7.3699   24.0768 C.3     1  UNL1        0.1212
     29 O           6.8779   -6.7344   26.0804 O.2     1  UNL1       -0.2501
@<TRIPOS>BOND
     1    19    20    1
     2    20    13    1
     3    13    14   ar
     4    14    15   ar
     5    15    16   ar
     6     1    16    1
     7     1     2    1
     8     2     3    1
     9     3     4   ar
    10     4     5   ar
    11     5     6   ar
    12     6     7   ar
    13     7     8   ar
    14     8     9    1
    15     9    21    1
    16    21    22    1
    17    21    23    1
    18    23    24    1
    19    23    25    1
    20     9    10   am
    21    10    11    2
    22    10    12    1
    23    12    26    1
    24    26    27    1
    25    27    28    1
    26    27    29    2
    27    16    17   ar
    28    17    18   ar
    29    18    13   ar
    30    12     1    1
    31     8     3   ar
@<TRIPOS>MOLECULE
*****
 29 31 0 0 0
SMALL
GASTEIGER

@<TRIPOS>ATOM
      1 C         -13.0859   -2.5204   17.6087 C.3     1  UNL1        0.1232
      2 S         -11.7920   -2.9905   18.2044 S.3     1  UNL1       -0.1046
      3 C         -11.3110   -4.3971   18.4047 C.ar    1  UNL1        0.0393
      4 C          -9.9517   -4.4264   19.0384 C.ar    1  UNL1        0.0074
      5 C          -9.2866   -5.7397   19.3261 C.ar    1  UNL1        0.0006
      6 C          -9.9807   -7.0237   18.9802 C.ar    1  UNL1        0.0013
      7 C         -11.3399   -6.9943   18.3465 C.ar    1  UNL1        0.0154
      8 C         -12.0050   -5.6811   18.0587 C.ar    1  UNL1        0.0607
      9 N         -13.3516   -5.8755   17.4271 N.am    1  UNL1       -0.2431
     10 C         -14.3367   -4.8341   16.9853 C.2     1  UNL1        0.2718
     11 O         -15.6080   -5.3546   16.3832 O.2     1  UNL1       -0.2706
     12 C         -14.2184   -3.3409   17.0662 C.3     1  UNL1        0.2586
     13 C         -13.6441    1.9410   17.4249 C.ar    1  UNL1        0.1387
     14 C         -12.9401    1.2267   16.3096 C.ar    1  UNL1        0.0366
     15 C         -12.7540   -0.2605   16.3708 C.ar    1  UNL1       -0.0002
     16 C         -13.2720   -1.0333   17.5475 C.ar    1  UNL1       -0.0080
     17 C         -13.9760   -0.3190   18.6628 C.ar    1  UNL1       -0.0002
     18 C         -14.1621    1.1682   18.6016 C.ar    1  UNL1        0.0366
     19 C         -14.9708    4.0721   18.0948 C.3     1  UNL1        0.2525
     20 O         -13.8301    3.4281   17.3637 O.3     1  UNL1       -0.4714
     21 C         -13.7682   -7.2998   17.2082 C.3     1  UNL1        0.1407
     22 C         -13.3132   -8.0344   15.9820 C.3     1  UNL1        0.0403
     23 N         -14.6399   -7.9895   18.2155 N.3     1  UNL1       -0.2552
     24 C         -14.9329   -9.4540   18.0760 C.3     1  UNL1        0.0909
     25 C         -15.2186   -7.2147   19.3621 C.3     1  UNL1        0.0909
     26 O         -15.3872   -2.5657   16.5342 O.3     1  UNL1       -0.4415
     27 C         -16.6879   -2.5630   17.2811 C.2     1  UNL1        0.3179
     28 C         -17.9849   -2.5214   16.5287 C.3     1  UNL1        0.1212
     29 O         -16.6918   -2.6017   18.7807 O.2     1  UNL1       -0.2501
@<TRIPOS>BOND
     1    19    20    1
     2    20    13    1
     3    13    14   ar
     4    14    15   ar
     5    15    16   ar
     6     1    16    1
     7     1     2    1
     8     2     3    1
     9     3     4   ar
    10     4     5   ar
    11     5     6   ar
    12     6     7   ar
    13     7     8   ar
    14     8     9    1
    15     9    21    1
    16    21    22    1
    17    21    23    1
    18    23    24    1
    19    23    25    1
    20     9    10   am
    21    10    11    2
    22    10    12    1
    23    12    26    1
    24    26    27    1
    25    27    28    1
    26    27    29    2
    27    16    17   ar
    28    17    18   ar
    29    18    13   ar
    30    12     1    1
    31     8     3   ar
@<TRIPOS>MOLECULE
*****
 29 31 0 0 0
SMALL
GASTEIGER

@<TRIPOS>ATOM
      1 C           0.4328    1.7675   22.0742 C.3     1  UNL1        0.1232
      2 S           0.6516    1.4599   23.5259 S.3     1  UNL1       -0.1046
      3 C          -0.1020    1.9766   24.7155 C.ar    1  UNL1        0.0393
      4 C           0.4428    1.4154   25.9954 C.ar    1  UNL1        0.0074
      5 C          -0.1711    1.8063   27.3070 C.ar    1  UNL1        0.0006
      6 C          -1.3298    2.7584   27.3387 C.ar    1  UNL1        0.0013
      7 C          -1.8746    3.3195   26.0587 C.ar    1  UNL1        0.0154
      8 C          -1.2607    2.9286   24.7472 C.ar    1  UNL1        0.0607
      9 N          -1.9519    3.5991   23.5970 N.am    1  UNL1       -0.2431
     10 C          -1.6552    3.4831   22.1313 C.2     1  UNL1        0.2718
     11 O          -2.5362    4.2888   21.2231 O.2     1  UNL1       -0.2706
     12 C          -0.5939    2.6680   21.4536 C.3     1  UNL1        0.2586
     13 C           3.2251   -0.2816   19.2013 C.ar    1  UNL1        0.1387
     14 C           3.5865    1.0576   19.7721 C.ar    1  UNL1        0.0366
     15 C           2.6557    1.7408   20.7298 C.ar    1  UNL1       -0.0002
     16 C           1.3635    1.0845   21.1166 C.ar    1  UNL1       -0.0080
     17 C           1.0021   -0.2547   20.5459 C.ar    1  UNL1       -0.0002
     18 C           1.9329   -0.9379   19.5882 C.ar    1  UNL1        0.0366
     19 C           3.9120   -0.8730   16.7665 C.3     1  UNL1        0.2525
     20 O           4.1559   -0.9646   18.2437 O.3     1  UNL1       -0.4714
     21 C          -3.0904    4.5054   23.9609 C.3     1  UNL1        0.1407
     22 C          -2.8486    5.9732   24.1537 C.3     1  UNL1        0.0403
     23 N          -4.4709    3.9440   24.1319 N.3     1  UNL1       -0.2552
     24 C          -5.2717    4.2815   25.3545 C.3     1  UNL1        0.0909
     25 C          -5.0505    3.0450   23.0803 C.3     1  UNL1        0.0909
     26 O          -0.5540    2.7663   19.9573 O.3     1  UNL1       -0.4415
     27 C           0.1530    3.9142   19.2997 C.2     1  UNL1        0.3179
     28 C           0.0868    4.0819   17.8106 C.3     1  UNL1        0.1212
     29 O           0.9262    4.8944   20.1313 O.2     1  UNL1       -0.2501
@<TRIPOS>BOND
     1    19    20    1
     2    20    13    1
     3    13    14   ar
     4    14    15   ar
     5    15    16   ar
     6     1    16    1
     7     1     2    1
     8     2     3    1
     9     3     4   ar
    10     4     5   ar
    11     5     6   ar
    12     6     7   ar
    13     7     8   ar
    14     8     9    1
    15     9    21    1
    16    21    22    1
    17    21    23    1
    18    23    24    1
    19    23    25    1
    20     9    10   am
    21    10    11    2
    22    10    12    1
    23    12    26    1
    24    26    27    1
    25    27    28    1
    26    27    29    2
    27    16    17   ar
    28    17    18   ar
    29    18    13   ar
    30    12     1    1
    31     8     3   ar
@<TRIPOS>MOLECULE
*****
 29 31 0 0 0
SMALL
GASTEIGER

@<TRIPOS>ATOM
      1 C           5.1187   -2.0123   22.6114 C.3     1  UNL1        0.1232
      2 S           4.8549   -1.4774   23.9877 S.3     1  UNL1       -0.1046
      3 C           5.4466   -1.9209   25.2928 C.ar    1  UNL1        0.0393
      4 C           4.9095   -1.1168   26.4395 C.ar    1  UNL1        0.0074
      5 C           5.3740   -1.4007   27.8371 C.ar    1  UNL1        0.0006
      6 C           6.3756   -2.4887   28.0882 C.ar    1  UNL1        0.0013
      7 C           6.9127   -3.2928   26.9415 C.ar    1  UNL1        0.0154
      8 C           6.4483   -3.0089   25.5438 C.ar    1  UNL1        0.0607
      9 N           7.1055   -3.9221   24.5518 N.am    1  UNL1       -0.2431
     10 C           6.9236   -3.9729   23.0637 C.2     1  UNL1        0.2718
     11 O           7.7328   -5.0107   22.3441 O.2     1  UNL1       -0.2706
     12 C           6.0393   -3.1229   22.2002 C.3     1  UNL1        0.2586
     13 C           2.8478   -0.0222   19.2748 C.ar    1  UNL1        0.1387
     14 C           4.3129    0.2477   19.4502 C.ar    1  UNL1        0.0366
     15 C           5.0699   -0.4157   20.5624 C.ar    1  UNL1       -0.0002
     16 C           4.3617   -1.3490   21.4992 C.ar    1  UNL1       -0.0080
     17 C           2.8967   -1.6189   21.3238 C.ar    1  UNL1       -0.0002
     18 C           2.1397   -0.9555   20.2116 C.ar    1  UNL1        0.0366
     19 C           0.9522    1.5654   18.4773 C.3     1  UNL1        0.2525
     20 O           2.0909    0.6411   18.1626 O.3     1  UNL1       -0.4714
     21 C           8.0727   -4.9160   25.1234 C.3     1  UNL1        0.1407
     22 C           9.5026   -4.5248   25.3525 C.3     1  UNL1        0.0403
     23 N           7.6100   -6.3011   25.4660 N.3     1  UNL1       -0.2552
     24 C           8.0429   -7.4658   24.6257 C.3     1  UNL1        0.0909
     25 C           6.7145   -6.5216   26.6489 C.3     1  UNL1        0.0909
     26 O           6.0812   -3.4232   20.7312 O.3     1  UNL1       -0.4415
     27 C           4.9550   -4.1761   20.0871 C.2     1  UNL1        0.3179
     28 C           4.7104   -4.0435   18.6131 C.3     1  UNL1        0.1212
     29 O           4.0734   -5.0615   20.9170 O.2     1  UNL1       -0.2501
@<TRIPOS>BOND
     1    19    20    1
     2    20    13    1
     3    13    14   ar
     4    14    15   ar
     5    15    16   ar
     6     1    16    1
     7     1     2    1
     8     2     3    1
     9     3     4   ar
    10     4     5   ar
    11     5     6   ar
    12     6     7   ar
    13     7     8   ar
    14     8     9    1
    15     9    21    1
    16    21    22    1
    17    21    23    1
    18    23    24    1
    19    23    25    1
    20     9    10   am
    21    10    11    2
    22    10    12    1
    23    12    26    1
    24    26    27    1
    25    27    28    1
    26    27    29    2
    27    16    17   ar
    28    17    18   ar
    29    18    13   ar
    30    12     1    1
    31     8     3   ar
@<TRIPOS>MOLECULE
*****
 29 31 0 0 0
SMALL
GASTEIGER

@<TRIPOS>ATOM
      1 C           7.0109   -3.7011   22.5875 C.3     1  UNL1        0.1232
      2 S           7.6737   -5.0454   22.6488 S.3     1  UNL1       -0.1046
      3 C           8.2604   -5.7456   23.8385 C.ar    1  UNL1        0.0393
      4 C           8.8283   -7.0821   23.4628 C.ar    1  UNL1        0.0074
      5 C           9.4651   -7.9474   24.5096 C.ar    1  UNL1        0.0006
      6 C           9.5340   -7.4762   25.9320 C.ar    1  UNL1        0.0013
      7 C           8.9661   -6.1397   26.3076 C.ar    1  UNL1        0.0154
      8 C           8.3293   -5.2744   25.2609 C.ar    1  UNL1        0.0607
      9 N           7.8285   -3.9866   25.8448 N.am    1  UNL1       -0.2431
     10 C           7.1351   -2.8520   25.1506 C.2     1  UNL1        0.2718
     11 O           6.7554   -1.6910   26.0211 O.2     1  UNL1       -0.2706
     12 C           6.7713   -2.7250   23.7009 C.3     1  UNL1        0.2586
     13 C           5.5484   -2.4284   18.5266 C.ar    1  UNL1        0.1387
     14 C           4.7241   -3.3629   19.3617 C.ar    1  UNL1        0.0366
     15 C           5.2116   -3.7872   20.7153 C.ar    1  UNL1       -0.0002
     16 C           6.5234   -3.2769   21.2339 C.ar    1  UNL1       -0.0080
     17 C           7.3477   -2.3425   20.3988 C.ar    1  UNL1       -0.0002
     18 C           6.8602   -1.9182   19.0451 C.ar    1  UNL1        0.0366
     19 C           3.9536   -0.9991   17.0556 C.3     1  UNL1        0.2525
     20 O           5.0609   -2.0042   17.1730 O.3     1  UNL1       -0.4714
     21 C           8.0505   -3.8101   27.3178 C.3     1  UNL1        0.1407
     22 C           9.3946   -3.3819   27.8278 C.3     1  UNL1        0.0403
     23 N           6.9283   -4.0619   28.2808 N.3     1  UNL1       -0.2552
     24 C           6.1148   -5.3175   28.1729 C.3     1  UNL1        0.0909
     25 C           6.6196   -3.0580   29.3517 C.3     1  UNL1        0.0909
     26 O           6.0758   -1.4537   23.3135 O.3     1  UNL1       -0.4415
     27 C           4.5833   -1.3517   23.4238 C.2     1  UNL1        0.3179
     28 C           3.7701   -0.9346   22.2344 C.3     1  UNL1        0.1212
     29 O           3.9041   -1.6667   24.7236 O.2     1  UNL1       -0.2501
@<TRIPOS>BOND
     1    19    20    1
     2    20    13    1
     3    13    14   ar
     4    14    15   ar
     5    15    16   ar
     6     1    16    1
     7     1     2    1
     8     2     3    1
     9     3     4   ar
    10     4     5   ar
    11     5     6   ar
    12     6     7   ar
    13     7     8   ar
    14     8     9    1
    15     9    21    1
    16    21    22    1
    17    21    23    1
    18    23    24    1
    19    23    25    1
    20     9    10   am
    21    10    11    2
    22    10    12    1
    23    12    26    1
    24    26    27    1
    25    27    28    1
    26    27    29    2
    27    16    17   ar
    28    17    18   ar
    29    18    13   ar
    30    12     1    1
    31     8     3   ar
