@<TRIPOS>MOLECULE
*****
 21 23 0 0 0
SMALL
GASTEIGER

@<TRIPOS>ATOM
      1 C          -6.7345  -16.0059   24.0618 C.3     1  UNL1        0.0625
      2 C          -5.2423  -15.8622   24.1134 C.3     1  UNL1        0.0210
      3 C          -4.3691  -16.8370   23.3805 C.3     1  UNL1        0.0274
      4 C          -4.9881  -17.9557   22.5959 C.ar    1  UNL1       -0.0257
      5 C          -4.1148  -18.9305   21.8631 C.ar    1  UNL1       -0.0046
      6 C          -4.7338  -20.0491   21.0785 C.ar    1  UNL1       -0.0003
      7 C          -6.2260  -20.1929   21.0269 C.ar    1  UNL1       -0.0003
      8 C          -7.0992  -19.2180   21.7598 C.ar    1  UNL1       -0.0042
      9 C          -6.4803  -18.0994   22.5443 C.ar    1  UNL1       -0.0211
     10 C          -7.3535  -17.1245   23.2772 C.3     1  UNL1        0.0586
     11 C          -8.8457  -17.2683   23.2256 C.ar    1  UNL1       -0.0162
     12 C          -9.5558  -18.0933   24.2577 C.ar    1  UNL1       -0.0030
     13 C         -11.0480  -18.2371   24.2060 C.ar    1  UNL1        0.0119
     14 C         -11.8301  -17.5558   23.1223 C.ar    1  UNL1        0.0682
     15 CL        -13.3223  -17.6996   23.0706 Cl      1  UNL1       -0.0814
     16 C         -11.1199  -16.7309   22.0903 C.ar    1  UNL1        0.0679
     17 CL        -11.9020  -16.0496   21.0066 Cl      1  UNL1       -0.0814
     18 C          -9.6277  -16.5871   22.1420 C.ar    1  UNL1        0.0083
     19 C          -8.0582  -15.3321   26.1934 C.3     1  UNL1        0.0859
     20 N          -7.6077  -15.0310   24.7947 N.3     1  UNL1       -0.2968
     21 H          -7.0965  -14.1492   24.8334 H       1  UNL1        0.1233
@<TRIPOS>BOND
     1    19    20    1
     2     1    20    1
     3     1     2    1
     4     2     3    1
     5     3     4    1
     6     4     5   ar
     7     5     6   ar
     8     6     7   ar
     9     7     8   ar
    10     8     9   ar
    11     9    10    1
    12    10    11    1
    13    11    12   ar
    14    12    13   ar
    15    13    14   ar
    16    14    15    1
    17    14    16   ar
    18    16    17    1
    19    16    18   ar
    20    10     1    1
    21    18    11   ar
    22     9     4   ar
    23    20    21    1
@<TRIPOS>MOLECULE
*****
 21 23 0 0 0
SMALL
GASTEIGER

@<TRIPOS>ATOM
      1 C         -10.3169  -16.9282   21.6704 C.3     1  UNL1        0.0625
      2 C         -10.8782  -17.5530   20.4277 C.3     1  UNL1        0.0210
      3 C         -10.1123  -18.6298   19.7179 C.3     1  UNL1        0.0274
      4 C          -8.7850  -19.0818   20.2508 C.ar    1  UNL1       -0.0257
      5 C          -8.0191  -20.1586   19.5410 C.ar    1  UNL1       -0.0046
      6 C          -6.6918  -20.6105   20.0740 C.ar    1  UNL1       -0.0003
      7 C          -6.1305  -19.9857   21.3168 C.ar    1  UNL1       -0.0003
      8 C          -6.8964  -18.9089   22.0266 C.ar    1  UNL1       -0.0042
      9 C          -8.2237  -18.4570   21.4936 C.ar    1  UNL1       -0.0211
     10 C          -8.9896  -17.3801   22.2034 C.3     1  UNL1        0.0586
     11 C          -8.4283  -16.7553   23.4462 C.ar    1  UNL1       -0.0162
     12 C          -7.3768  -15.6906   23.3412 C.ar    1  UNL1       -0.0030
     13 C          -6.8154  -15.0658   24.5840 C.ar    1  UNL1        0.0119
     14 C          -7.3056  -15.5056   25.9317 C.ar    1  UNL1        0.0682
     15 CL         -6.7443  -14.8808   27.1745 Cl      1  UNL1       -0.0814
     16 C          -8.3571  -16.5702   26.0367 C.ar    1  UNL1        0.0679
     17 CL         -8.8473  -17.0100   27.3844 Cl      1  UNL1       -0.0814
     18 C          -8.9184  -17.1950   24.7939 C.ar    1  UNL1        0.0083
     19 C         -12.5538  -16.0140   22.6246 C.3     1  UNL1        0.0859
     20 N         -11.0829  -15.8513   22.3802 N.3     1  UNL1       -0.2968
     21 H         -10.6443  -15.7309   23.2932 H       1  UNL1        0.1233
@<TRIPOS>BOND
     1    19    20    1
     2     1    20    1
     3     1     2    1
     4     2     3    1
     5     3     4    1
     6     4     5   ar
     7     5     6   ar
     8     6     7   ar
     9     7     8   ar
    10     8     9   ar
    11     9    10    1
    12    10    11    1
    13    11    12   ar
    14    12    13   ar
    15    13    14   ar
    16    14    15    1
    17    14    16   ar
    18    16    17    1
    19    16    18   ar
    20    10     1    1
    21    18    11   ar
    22     9     4   ar
    23    20    21    1
@<TRIPOS>MOLECULE
*****
 21 23 0 0 0
SMALL
GASTEIGER

@<TRIPOS>ATOM
      1 C          -7.1135  -17.1593   22.7730 C.3     1  UNL1        0.0625
      2 C          -5.6662  -16.8048   22.9451 C.3     1  UNL1        0.0210
      3 C          -5.2057  -16.1191   24.1972 C.3     1  UNL1        0.0274
      4 C          -6.1926  -15.7879   25.2773 C.ar    1  UNL1       -0.0257
      5 C          -5.7322  -15.1023   26.5294 C.ar    1  UNL1       -0.0046
      6 C          -6.7190  -14.7712   27.6094 C.ar    1  UNL1       -0.0003
      7 C          -8.1663  -15.1257   27.4372 C.ar    1  UNL1       -0.0003
      8 C          -8.6268  -15.8113   26.1851 C.ar    1  UNL1       -0.0042
      9 C          -7.6399  -16.1424   25.1051 C.ar    1  UNL1       -0.0211
     10 C          -8.1003  -16.8281   23.8529 C.3     1  UNL1        0.0586
     11 C          -9.5477  -17.1826   23.6808 C.ar    1  UNL1       -0.0162
     12 C         -10.1570  -18.2723   24.5125 C.ar    1  UNL1       -0.0030
     13 C         -11.6043  -18.6268   24.3403 C.ar    1  UNL1        0.0119
     14 C         -12.4423  -17.8917   23.3366 C.ar    1  UNL1        0.0682
     15 CL        -13.8896  -18.2462   23.1644 Cl      1  UNL1       -0.0814
     16 C         -11.8329  -16.8021   22.5050 C.ar    1  UNL1        0.0679
     17 CL        -12.6709  -16.0670   21.5012 Cl      1  UNL1       -0.0814
     18 C         -10.3856  -16.4476   22.6771 C.ar    1  UNL1        0.0083
     19 C          -7.4201  -19.3303   21.3791 C.3     1  UNL1        0.0859
     20 N          -7.5739  -17.8450   21.5208 N.3     1  UNL1       -0.2968
     21 H          -8.5685  -17.6412   21.4221 H       1  UNL1        0.1233
@<TRIPOS>BOND
     1    19    20    1
     2     1    20    1
     3     1     2    1
     4     2     3    1
     5     3     4    1
     6     4     5   ar
     7     5     6   ar
     8     6     7   ar
     9     7     8   ar
    10     8     9   ar
    11     9    10    1
    12    10    11    1
    13    11    12   ar
    14    12    13   ar
    15    13    14   ar
    16    14    15    1
    17    14    16   ar
    18    16    17    1
    19    16    18   ar
    20    10     1    1
    21    18    11   ar
    22     9     4   ar
    23    20    21    1
@<TRIPOS>MOLECULE
*****
 21 23 0 0 0
SMALL
GASTEIGER

@<TRIPOS>ATOM
      1 C          -7.7023  -18.5792   21.7890 C.3     1  UNL1        0.0625
      2 C          -8.2256  -19.2849   20.5733 C.3     1  UNL1        0.0210
      3 C          -9.6108  -18.9954   20.0761 C.3     1  UNL1        0.0274
      4 C         -10.4728  -18.0000   20.7947 C.ar    1  UNL1       -0.0257
      5 C         -11.8580  -17.7105   20.2976 C.ar    1  UNL1       -0.0046
      6 C         -12.7200  -16.7152   21.0162 C.ar    1  UNL1       -0.0003
      7 C         -12.1966  -16.0095   22.2319 C.ar    1  UNL1       -0.0003
      8 C         -10.8114  -16.2990   22.7291 C.ar    1  UNL1       -0.0042
      9 C          -9.9495  -17.2943   22.0105 C.ar    1  UNL1       -0.0211
     10 C          -8.5642  -17.5839   22.5077 C.3     1  UNL1        0.0586
     11 C          -8.0409  -16.8782   23.7234 C.ar    1  UNL1       -0.0162
     12 C          -6.9171  -15.8932   23.5933 C.ar    1  UNL1       -0.0030
     13 C          -6.3937  -15.1875   24.8091 C.ar    1  UNL1        0.0119
     14 C          -6.9942  -15.4668   26.1550 C.ar    1  UNL1        0.0682
     15 CL         -6.4709  -14.7611   27.3708 Cl      1  UNL1       -0.0814
     16 C          -8.1180  -16.4518   26.2851 C.ar    1  UNL1        0.0679
     17 CL         -8.7185  -16.7311   27.6310 Cl      1  UNL1       -0.0814
     18 C          -8.6413  -17.1575   25.0693 C.ar    1  UNL1        0.0083
     19 C          -5.2523  -19.3094   21.3258 C.3     1  UNL1        0.0859
     20 N          -6.3169  -18.8689   22.2862 N.3     1  UNL1       -0.2968
     21 H          -5.9786  -18.0147   22.7294 H       1  UNL1        0.1233
@<TRIPOS>BOND
     1    19    20    1
     2     1    20    1
     3     1     2    1
     4     2     3    1
     5     3     4    1
     6     4     5   ar
     7     5     6   ar
     8     6     7   ar
     9     7     8   ar
    10     8     9   ar
    11     9    10    1
    12    10    11    1
    13    11    12   ar
    14    12    13   ar
    15    13    14   ar
    16    14    15    1
    17    14    16   ar
    18    16    17    1
    19    16    18   ar
    20    10     1    1
    21    18    11   ar
    22     9     4   ar
    23    20    21    1
@<TRIPOS>MOLECULE
*****
 21 23 0 0 0
SMALL
GASTEIGER

@<TRIPOS>ATOM
      1 C          -7.7730  -18.6457   21.8192 C.3     1  UNL1        0.0625
      2 C          -8.2418  -19.2900   20.5484 C.3     1  UNL1        0.0210
      3 C          -9.5882  -18.9444   19.9846 C.3     1  UNL1        0.0274
      4 C         -10.4658  -17.9545   20.6917 C.ar    1  UNL1       -0.0257
      5 C         -11.8121  -17.6089   20.1280 C.ar    1  UNL1       -0.0046
      6 C         -12.6897  -16.6191   20.8351 C.ar    1  UNL1       -0.0003
      7 C         -12.2209  -15.9748   22.1060 C.ar    1  UNL1       -0.0003
      8 C         -10.8745  -16.3204   22.6697 C.ar    1  UNL1       -0.0042
      9 C          -9.9970  -17.3103   21.9626 C.ar    1  UNL1       -0.0211
     10 C          -8.6506  -17.6559   22.5264 C.3     1  UNL1        0.0586
     11 C          -8.1818  -17.0116   23.7973 C.ar    1  UNL1       -0.0162
     12 C          -8.9951  -17.1459   25.0505 C.ar    1  UNL1       -0.0030
     13 C          -8.5263  -16.5016   26.3214 C.ar    1  UNL1        0.0119
     14 C          -7.2442  -15.7231   26.3391 C.ar    1  UNL1        0.0682
     15 CL         -6.7754  -15.0789   27.6099 Cl      1  UNL1       -0.0814
     16 C          -6.4310  -15.5889   25.0858 C.ar    1  UNL1        0.0679
     17 CL         -5.1489  -14.8104   25.1035 Cl      1  UNL1       -0.0814
     18 C          -6.8998  -16.2332   23.8149 C.ar    1  UNL1        0.0083
     19 C          -5.2935  -19.3345   21.4620 C.3     1  UNL1        0.0859
     20 N          -6.4266  -18.9914   22.3830 N.3     1  UNL1       -0.2968
     21 H          -6.1242  -18.1894   22.9359 H       1  UNL1        0.1233
@<TRIPOS>BOND
     1    19    20    1
     2     1    20    1
     3     1     2    1
     4     2     3    1
     5     3     4    1
     6     4     5   ar
     7     5     6   ar
     8     6     7   ar
     9     7     8   ar
    10     8     9   ar
    11     9    10    1
    12    10    11    1
    13    11    12   ar
    14    12    13   ar
    15    13    14   ar
    16    14    15    1
    17    14    16   ar
    18    16    17    1
    19    16    18   ar
    20    10     1    1
    21    18    11   ar
    22     9     4   ar
    23    20    21    1
@<TRIPOS>MOLECULE
*****
 21 23 0 0 0
SMALL
GASTEIGER

@<TRIPOS>ATOM
      1 C          -7.2830  -16.2637   23.4825 C.3     1  UNL1        0.0625
      2 C          -8.2745  -15.5759   24.3734 C.3     1  UNL1        0.0210
      3 C          -9.5660  -16.2541   24.7224 C.3     1  UNL1        0.0274
      4 C          -9.8661  -17.6203   24.1804 C.ar    1  UNL1       -0.0257
      5 C         -11.1577  -18.2985   24.5294 C.ar    1  UNL1       -0.0046
      6 C         -11.4577  -19.6646   23.9874 C.ar    1  UNL1       -0.0003
      7 C         -10.4662  -20.3524   23.0964 C.ar    1  UNL1       -0.0003
      8 C          -9.1747  -19.6742   22.7475 C.ar    1  UNL1       -0.0042
      9 C          -8.8746  -18.3081   23.2894 C.ar    1  UNL1       -0.0211
     10 C          -7.5830  -17.6298   22.9405 C.3     1  UNL1        0.0586
     11 C          -6.5915  -18.3176   22.0495 C.ar    1  UNL1       -0.0162
     12 C          -6.9729  -18.6849   20.6460 C.ar    1  UNL1       -0.0030
     13 C          -5.9813  -19.3727   19.7550 C.ar    1  UNL1        0.0119
     14 C          -4.6085  -19.6933   20.2676 C.ar    1  UNL1        0.0682
     15 CL         -3.6170  -20.3811   19.3766 Cl      1  UNL1       -0.0814
     16 C          -4.2273  -19.3260   21.6710 C.ar    1  UNL1        0.0679
     17 CL         -2.8544  -19.6466   22.1836 Cl      1  UNL1       -0.0814
     18 C          -5.2188  -18.6382   22.5620 C.ar    1  UNL1        0.0083
     19 C          -4.9352  -15.3984   24.1821 C.3     1  UNL1        0.0859
     20 N          -5.9914  -15.5854   23.1335 N.3     1  UNL1       -0.2968
     21 H          -5.5671  -16.1289   22.3818 H       1  UNL1        0.1233
@<TRIPOS>BOND
     1    19    20    1
     2     1    20    1
     3     1     2    1
     4     2     3    1
     5     3     4    1
     6     4     5   ar
     7     5     6   ar
     8     6     7   ar
     9     7     8   ar
    10     8     9   ar
    11     9    10    1
    12    10    11    1
    13    11    12   ar
    14    12    13   ar
    15    13    14   ar
    16    14    15    1
    17    14    16   ar
    18    16    17    1
    19    16    18   ar
    20    10     1    1
    21    18    11   ar
    22     9     4   ar
    23    20    21    1
@<TRIPOS>MOLECULE
*****
 21 23 0 0 0
SMALL
GASTEIGER

@<TRIPOS>ATOM
      1 C          -9.3388  -15.6680   21.6666 C.3     1  UNL1        0.0625
      2 C         -10.7992  -15.4239   21.4264 C.3     1  UNL1        0.0210
      3 C         -11.8250  -16.2757   22.1134 C.3     1  UNL1        0.0274
      4 C         -11.3905  -17.3719   23.0406 C.ar    1  UNL1       -0.0257
      5 C         -12.4163  -18.2238   23.7276 C.ar    1  UNL1       -0.0046
      6 C         -11.9817  -19.3198   24.6548 C.ar    1  UNL1       -0.0003
      7 C         -10.5213  -19.5640   24.8950 C.ar    1  UNL1       -0.0003
      8 C          -9.4955  -18.7121   24.2081 C.ar    1  UNL1       -0.0042
      9 C          -9.9301  -17.6161   23.2809 C.ar    1  UNL1       -0.0211
     10 C          -8.9043  -16.7641   22.5938 C.3     1  UNL1        0.0586
     11 C          -7.4439  -17.0083   22.8340 C.ar    1  UNL1       -0.0162
     12 C          -6.6616  -16.0750   23.7099 C.ar    1  UNL1       -0.0030
     13 C          -5.2012  -16.3192   23.9501 C.ar    1  UNL1        0.0119
     14 C          -4.5232  -17.4967   23.3145 C.ar    1  UNL1        0.0682
     15 CL         -3.0628  -17.7409   23.5547 Cl      1  UNL1       -0.0814
     16 C          -5.3055  -18.4299   22.4387 C.ar    1  UNL1        0.0679
     17 CL         -4.6275  -19.6073   21.8030 Cl      1  UNL1       -0.0814
     18 C          -6.7659  -18.1857   22.1985 C.ar    1  UNL1        0.0083
     19 C          -8.7472  -13.7304   20.0401 C.3     1  UNL1        0.0859
     20 N          -8.3130  -14.8161   20.9796 N.3     1  UNL1       -0.2968
     21 H          -7.7631  -14.3685   21.7128 H       1  UNL1        0.1233
@<TRIPOS>BOND
     1    19    20    1
     2     1    20    1
     3     1     2    1
     4     2     3    1
     5     3     4    1
     6     4     5   ar
     7     5     6   ar
     8     6     7   ar
     9     7     8   ar
    10     8     9   ar
    11     9    10    1
    12    10    11    1
    13    11    12   ar
    14    12    13   ar
    15    13    14   ar
    16    14    15    1
    17    14    16   ar
    18    16    17    1
    19    16    18   ar
    20    10     1    1
    21    18    11   ar
    22     9     4   ar
    23    20    21    1
@<TRIPOS>MOLECULE
*****
 21 23 0 0 0
SMALL
GASTEIGER

@<TRIPOS>ATOM
      1 C          -8.9848  -19.6840   19.6402 C.3     1  UNL1        0.0625
      2 C         -10.4595  -19.4562   19.4867 C.3     1  UNL1        0.0210
      3 C         -11.1815  -18.5501   20.4394 C.3     1  UNL1        0.0274
      4 C         -10.4290  -17.8718   21.5456 C.ar    1  UNL1       -0.0257
      5 C         -11.1510  -16.9658   22.4983 C.ar    1  UNL1       -0.0046
      6 C         -10.3985  -16.2876   23.6045 C.ar    1  UNL1       -0.0003
      7 C          -8.9238  -16.5154   23.7579 C.ar    1  UNL1       -0.0003
      8 C          -8.2018  -17.4215   22.8052 C.ar    1  UNL1       -0.0042
      9 C          -8.9543  -18.0997   21.6991 C.ar    1  UNL1       -0.0211
     10 C          -8.2323  -19.0058   20.7463 C.3     1  UNL1        0.0586
     11 C          -6.7576  -19.2336   20.8998 C.ar    1  UNL1       -0.0162
     12 C          -6.2358  -19.9996   22.0793 C.ar    1  UNL1       -0.0030
     13 C          -4.7612  -20.2274   22.2327 C.ar    1  UNL1        0.0119
     14 C          -3.8084  -19.6893   21.2067 C.ar    1  UNL1        0.0682
     15 CL         -2.3337  -19.9171   21.3602 Cl      1  UNL1       -0.0814
     16 C          -4.3302  -18.9234   20.0273 C.ar    1  UNL1        0.0679
     17 CL         -3.3774  -18.3852   19.0013 Cl      1  UNL1       -0.0814
     18 C          -5.8048  -18.6955   19.8738 C.ar    1  UNL1        0.0083
     19 C          -9.0265  -21.3225   17.6243 C.3     1  UNL1        0.0859
     20 N          -8.2628  -20.5901   18.6874 N.3     1  UNL1       -0.2968
     21 H          -7.5660  -20.0192   18.2089 H       1  UNL1        0.1233
@<TRIPOS>BOND
     1    19    20    1
     2     1    20    1
     3     1     2    1
     4     2     3    1
     5     3     4    1
     6     4     5   ar
     7     5     6   ar
     8     6     7   ar
     9     7     8   ar
    10     8     9   ar
    11     9    10    1
    12    10    11    1
    13    11    12   ar
    14    12    13   ar
    15    13    14   ar
    16    14    15    1
    17    14    16   ar
    18    16    17    1
    19    16    18   ar
    20    10     1    1
    21    18    11   ar
    22     9     4   ar
    23    20    21    1
@<TRIPOS>MOLECULE
*****
 21 23 0 0 0
SMALL
GASTEIGER

@<TRIPOS>ATOM
      1 C          -9.6390  -15.7640   21.1477 C.3     1  UNL1        0.0625
      2 C         -10.5945  -16.2025   20.0778 C.3     1  UNL1        0.0210
      3 C         -11.2083  -17.5700   20.1349 C.3     1  UNL1        0.0274
      4 C         -10.8665  -18.4990   21.2619 C.ar    1  UNL1       -0.0257
      5 C         -11.4802  -19.8665   21.3191 C.ar    1  UNL1       -0.0046
      6 C         -11.1384  -20.7955   22.4460 C.ar    1  UNL1       -0.0003
      7 C         -10.1829  -20.3570   23.5159 C.ar    1  UNL1       -0.0003
      8 C          -9.5691  -18.9895   23.4588 C.ar    1  UNL1       -0.0042
      9 C          -9.9109  -18.0605   22.3318 C.ar    1  UNL1       -0.0211
     10 C          -9.2972  -16.6930   22.2746 C.3     1  UNL1        0.0586
     11 C          -8.3416  -16.2545   23.3445 C.ar    1  UNL1       -0.0162
     12 C          -6.8755  -16.1516   23.0444 C.ar    1  UNL1       -0.0030
     13 C          -5.9199  -15.7131   24.1143 C.ar    1  UNL1        0.0119
     14 C          -6.4305  -15.3775   25.4843 C.ar    1  UNL1        0.0682
     15 CL         -5.4749  -14.9390   26.5541 Cl      1  UNL1       -0.0814
     16 C          -7.8965  -15.4804   25.7843 C.ar    1  UNL1        0.0679
     17 CL         -8.4071  -15.1448   27.1543 Cl      1  UNL1       -0.0814
     18 C          -8.8521  -15.9189   24.7144 C.ar    1  UNL1        0.0083
     19 C          -8.9637  -13.6559   19.7875 C.3     1  UNL1        0.0859
     20 N          -9.0252  -14.3965   21.0905 N.3     1  UNL1       -0.2968
     21 H          -9.5519  -13.8101   21.7379 H       1  UNL1        0.1233
@<TRIPOS>BOND
     1    19    20    1
     2     1    20    1
     3     1     2    1
     4     2     3    1
     5     3     4    1
     6     4     5   ar
     7     5     6   ar
     8     6     7   ar
     9     7     8   ar
    10     8     9   ar
    11     9    10    1
    12    10    11    1
    13    11    12   ar
    14    12    13   ar
    15    13    14   ar
    16    14    15    1
    17    14    16   ar
    18    16    17    1
    19    16    18   ar
    20    10     1    1
    21    18    11   ar
    22     9     4   ar
    23    20    21    1
