@<TRIPOS>MOLECULE
*****
 28 29 0 0 0
SMALL
GASTEIGER

@<TRIPOS>ATOM
      1 C          -9.9562  -18.4697   21.2174 C.2     1  UNL1        0.2271
      2 O         -10.2193  -17.7133   19.9490 O.2     1  UNL1       -0.2747
      3 N          -8.9201  -19.5541   21.2427 N.am    1  UNL1       -0.3005
      4 H          -8.7474  -20.0506   22.0751 H       1  UNL1        0.1497
      5 C          -8.1472  -19.8821   19.9997 C.3     1  UNL1        0.1119
      6 C          -8.8682  -20.3438   18.7681 C.3     1  UNL1        0.0278
      7 C          -6.6532  -19.7483   19.9883 C.ar    1  UNL1        0.0770
      8 C          -5.7903  -20.9587   20.1894 C.ar    1  UNL1        0.0195
      9 C          -4.2963  -20.8249   20.1781 C.ar    1  UNL1        0.0398
     10 C          -3.6652  -19.4808   19.9656 C.ar    1  UNL1        0.1580
     11 C          -4.5281  -18.2705   19.7646 C.ar    1  UNL1        0.1353
     12 N          -6.0221  -18.4042   19.7759 N.ar    1  UNL1       -0.2433
     13 O          -2.1713  -19.3471   19.9543 O.3     1  UNL1       -0.4650
     14 C          -1.4707  -18.6639   21.0912 C.3     1  UNL1        0.3082
     15 C          -1.7449  -17.2178   21.3806 C.3     1  UNL1        0.4380
     16 F          -2.0190  -15.7718   21.6700 F       1  UNL1       -0.1663
     17 F          -2.2551  -17.5870   22.7419 F       1  UNL1       -0.1663
     18 F          -1.2346  -16.8486   20.0192 F       1  UNL1       -0.1663
     19 C         -10.7291  -18.1417   22.4603 C.3     1  UNL1        0.1113
     20 C          -8.6417  -16.2690   25.9796 C.ar    1  UNL1       -0.0225
     21 C          -8.7139  -15.5356   24.6732 C.ar    1  UNL1       -0.0046
     22 C          -9.4097  -16.1598   23.5001 C.ar    1  UNL1       -0.0041
     23 C         -10.0333  -17.5175   23.6334 C.ar    1  UNL1       -0.0131
     24 C          -9.9611  -18.2509   24.9398 C.ar    1  UNL1       -0.0041
     25 C          -9.2653  -17.6267   26.1129 C.ar    1  UNL1       -0.0046
     26 C          -8.6783  -14.6720   28.0285 C.3     1  UNL1        0.0047
     27 C          -7.9459  -15.6448   27.1527 C.3     1  UNL1        0.0224
     28 C          -6.5176  -15.9934   27.4500 C.3     1  UNL1        0.0047
@<TRIPOS>BOND
     1    26    27    1
     2    27    28    1
     3    27    20    1
     4    20    21   ar
     5    21    22   ar
     6    22    23   ar
     7    23    19    1
     8    19     1    1
     9     1     2    2
    10     1     3   am
    11     3     5    1
    12     5     6    1
    13     5     7    1
    14     7     8   ar
    15     8     9   ar
    16     9    10   ar
    17    10    13    1
    18    13    14    1
    19    14    15    1
    20    15    16    1
    21    15    17    1
    22    15    18    1
    23    10    11   ar
    24    11    12   ar
    25    23    24   ar
    26    24    25   ar
    27    25    20   ar
    28    12     7   ar
    29     3     4    1
@<TRIPOS>MOLECULE
*****
 28 29 0 0 0
SMALL
GASTEIGER

@<TRIPOS>ATOM
      1 C          -8.6904  -18.1962   21.5613 C.2     1  UNL1        0.2271
      2 O          -7.7095  -18.9599   22.4008 O.2     1  UNL1       -0.2747
      3 N          -8.8451  -18.5223   20.1054 N.am    1  UNL1       -0.3005
      4 H          -9.4889  -18.0211   19.5544 H       1  UNL1        0.1497
      5 C          -8.0189  -19.6121   19.4890 C.3     1  UNL1        0.1119
      6 C          -8.6635  -20.6236   18.5882 C.3     1  UNL1        0.0278
      7 C          -6.5482  -19.6903   19.7733 C.ar    1  UNL1        0.0770
      8 C          -5.9226  -21.0056   20.1318 C.ar    1  UNL1        0.0195
      9 C          -4.4518  -21.0838   20.4162 C.ar    1  UNL1        0.0398
     10 C          -3.6068  -19.8467   20.3421 C.ar    1  UNL1        0.1580
     11 C          -4.2325  -18.5314   19.9836 C.ar    1  UNL1        0.1353
     12 N          -5.7032  -18.4532   19.6992 N.ar    1  UNL1       -0.2433
     13 O          -2.1361  -19.9249   20.6264 O.3     1  UNL1       -0.4650
     14 C          -1.2413  -18.7746   20.2712 C.3     1  UNL1        0.3082
     15 C          -1.3884  -17.4624   20.9830 C.3     1  UNL1        0.4380
     16 F          -1.5354  -16.1503   21.6948 F       1  UNL1       -0.1663
     17 F          -1.6377  -18.1892   22.2712 F       1  UNL1       -0.1663
     18 F          -1.1390  -16.7356   19.6948 F       1  UNL1       -0.1663
     19 C          -9.5166  -17.1065   22.1777 C.3     1  UNL1        0.1113
     20 C         -13.3728  -18.1144   24.2666 C.ar    1  UNL1       -0.0225
     21 C         -13.3711  -17.1456   23.1214 C.ar    1  UNL1       -0.0046
     22 C         -12.0857  -16.8096   22.4252 C.ar    1  UNL1       -0.0041
     23 C         -10.8020  -17.4424   22.8740 C.ar    1  UNL1       -0.0131
     24 C         -10.8036  -18.4112   24.0192 C.ar    1  UNL1       -0.0041
     25 C         -12.0891  -18.7472   24.7155 C.ar    1  UNL1       -0.0046
     26 C         -14.7105  -18.4935   26.4613 C.3     1  UNL1        0.0047
     27 C         -14.6582  -18.4504   24.9629 C.3     1  UNL1        0.0224
     28 C         -15.8914  -18.7432   24.1608 C.3     1  UNL1        0.0047
@<TRIPOS>BOND
     1    26    27    1
     2    27    28    1
     3    27    20    1
     4    20    21   ar
     5    21    22   ar
     6    22    23   ar
     7    23    19    1
     8    19     1    1
     9     1     2    2
    10     1     3   am
    11     3     5    1
    12     5     6    1
    13     5     7    1
    14     7     8   ar
    15     8     9   ar
    16     9    10   ar
    17    10    13    1
    18    13    14    1
    19    14    15    1
    20    15    16    1
    21    15    17    1
    22    15    18    1
    23    10    11   ar
    24    11    12   ar
    25    23    24   ar
    26    24    25   ar
    27    25    20   ar
    28    12     7   ar
    29     3     4    1
@<TRIPOS>MOLECULE
*****
 28 29 0 0 0
SMALL
GASTEIGER

@<TRIPOS>ATOM
      1 C          -7.7137  -15.5240   25.4548 C.2     1  UNL1        0.2271
      2 O          -7.2702  -15.2129   26.8536 O.2     1  UNL1       -0.2747
      3 N          -6.6948  -15.7345   24.3743 N.am    1  UNL1       -0.3005
      4 H          -6.9858  -15.9387   23.4562 H       1  UNL1        0.1497
      5 C          -5.2323  -15.6339   24.6926 C.3     1  UNL1        0.1119
      6 C          -4.7832  -14.9393   25.9439 C.3     1  UNL1        0.0278
      7 C          -4.2191  -16.2280   23.7597 C.ar    1  UNL1        0.0770
      8 C          -3.8384  -17.6733   23.8876 C.ar    1  UNL1        0.0195
      9 C          -2.8252  -18.2674   22.9546 C.ar    1  UNL1        0.0398
     10 C          -2.1926  -17.4162   21.8938 C.ar    1  UNL1        0.1580
     11 C          -2.5733  -15.9710   21.7659 C.ar    1  UNL1        0.1353
     12 N          -3.5865  -15.3769   22.6988 N.ar    1  UNL1       -0.2433
     13 O          -1.1794  -18.0103   20.9609 O.3     1  UNL1       -0.4650
     14 C          -1.6242  -18.6483   19.6782 C.3     1  UNL1        0.3082
     15 C          -3.0839  -18.7107   19.3383 C.3     1  UNL1        0.4380
     16 F          -4.5435  -18.7732   18.9985 F       1  UNL1       -0.1663
     17 F          -3.1898  -20.0342   20.0363 F       1  UNL1       -0.1663
     18 F          -2.9780  -17.3873   18.6404 F       1  UNL1       -0.1663
     19 C          -9.1761  -15.6245   25.1365 C.3     1  UNL1        0.1113
     20 C         -10.5967  -18.4794   21.9614 C.ar    1  UNL1       -0.0225
     21 C         -10.5430  -18.9181   23.3948 C.ar    1  UNL1       -0.0046
     22 C         -10.0694  -17.9665   24.4531 C.ar    1  UNL1       -0.0041
     23 C          -9.6496  -16.5761   24.0781 C.ar    1  UNL1       -0.0131
     24 C          -9.7033  -16.1375   22.6447 C.ar    1  UNL1       -0.0041
     25 C         -10.1768  -17.0891   21.5864 C.ar    1  UNL1       -0.0046
     26 C         -11.0551  -19.0173   19.4613 C.3     1  UNL1        0.0047
     27 C         -11.0702  -19.4311   20.9030 C.3     1  UNL1        0.0224
     28 C         -11.5588  -20.7964   21.2863 C.3     1  UNL1        0.0047
@<TRIPOS>BOND
     1    26    27    1
     2    27    28    1
     3    27    20    1
     4    20    21   ar
     5    21    22   ar
     6    22    23   ar
     7    23    19    1
     8    19     1    1
     9     1     2    2
    10     1     3   am
    11     3     5    1
    12     5     6    1
    13     5     7    1
    14     7     8   ar
    15     8     9   ar
    16     9    10   ar
    17    10    13    1
    18    13    14    1
    19    14    15    1
    20    15    16    1
    21    15    17    1
    22    15    18    1
    23    10    11   ar
    24    11    12   ar
    25    23    24   ar
    26    24    25   ar
    27    25    20   ar
    28    12     7   ar
    29     3     4    1
@<TRIPOS>MOLECULE
*****
 28 29 0 0 0
SMALL
GASTEIGER

@<TRIPOS>ATOM
      1 C          -0.7613    3.5090   21.8725 C.2     1  UNL1        0.2271
      2 O           0.4923    4.3258   21.7643 O.2     1  UNL1       -0.2747
      3 N          -1.1457    2.5748   20.7636 N.am    1  UNL1       -0.3005
      4 H          -1.9684    2.0388   20.8346 H       1  UNL1        0.1497
      5 C          -0.2766    2.4574   19.5467 C.3     1  UNL1        0.1119
      6 C          -0.4359    3.4287   18.4148 C.3     1  UNL1        0.0278
      7 C           0.7517    1.3687   19.4617 C.ar    1  UNL1        0.0770
      8 C           0.6032    0.1300   20.2945 C.ar    1  UNL1        0.0195
      9 C           1.6316   -0.9587   20.2094 C.ar    1  UNL1        0.0398
     10 C           2.8085   -0.8087   19.2916 C.ar    1  UNL1        0.1580
     11 C           2.9570    0.4300   18.4588 C.ar    1  UNL1        0.1353
     12 N           1.9287    1.5187   18.5438 N.ar    1  UNL1       -0.2433
     13 O           3.8368   -1.8974   19.2066 O.3     1  UNL1       -0.4650
     14 C           3.4876   -3.2936   19.6292 C.3     1  UNL1        0.3082
     15 C           4.1395   -4.4657   18.9574 C.3     1  UNL1        0.4380
     16 F           4.7913   -5.6378   18.2857 F       1  UNL1       -0.1663
     17 F           3.1937   -5.3942   19.6597 F       1  UNL1       -0.1663
     18 F           5.0853   -3.5372   18.2551 F       1  UNL1       -0.1663
     19 C          -1.6303    3.6265   23.0894 C.3     1  UNL1        0.1113
     20 C          -0.4446    1.5631   26.9087 C.ar    1  UNL1       -0.0225
     21 C           0.2595    1.2305   25.6267 C.ar    1  UNL1       -0.0046
     22 C          -0.1357    1.9183   24.3536 C.ar    1  UNL1       -0.0041
     23 C          -1.2351    2.9387   24.3625 C.ar    1  UNL1       -0.0131
     24 C          -1.9392    3.2713   25.6445 C.ar    1  UNL1       -0.0041
     25 C          -1.5440    2.5836   26.9176 C.ar    1  UNL1       -0.0046
     26 C          -0.8369   -0.3028   28.6734 C.3     1  UNL1        0.0047
     27 C          -0.0494    0.8753   28.1818 C.3     1  UNL1        0.0224
     28 C           1.1333    1.3657   28.9632 C.3     1  UNL1        0.0047
@<TRIPOS>BOND
     1    26    27    1
     2    27    28    1
     3    27    20    1
     4    20    21   ar
     5    21    22   ar
     6    22    23   ar
     7    23    19    1
     8    19     1    1
     9     1     2    2
    10     1     3   am
    11     3     5    1
    12     5     6    1
    13     5     7    1
    14     7     8   ar
    15     8     9   ar
    16     9    10   ar
    17    10    13    1
    18    13    14    1
    19    14    15    1
    20    15    16    1
    21    15    17    1
    22    15    18    1
    23    10    11   ar
    24    11    12   ar
    25    23    24   ar
    26    24    25   ar
    27    25    20   ar
    28    12     7   ar
    29     3     4    1
@<TRIPOS>MOLECULE
*****
 28 29 0 0 0
SMALL
GASTEIGER

@<TRIPOS>ATOM
      1 C           0.6733    2.0984   20.3424 C.2     1  UNL1        0.2271
      2 O           1.8209    3.0420   20.5493 O.2     1  UNL1       -0.2747
      3 N          -0.4720    2.0865   21.3110 N.am    1  UNL1       -0.3005
      4 H          -1.2251    1.4672   21.1752 H       1  UNL1        0.1497
      5 C          -0.4697    3.0182   22.4866 C.3     1  UNL1        0.1119
      6 C          -0.8473    4.4582   22.3030 C.3     1  UNL1        0.0278
      7 C          -0.0897    2.5099   23.8457 C.ar    1  UNL1        0.0770
      8 C          -1.0479    2.6450   24.9918 C.ar    1  UNL1        0.0195
      9 C          -0.6678    2.1367   26.3510 C.ar    1  UNL1        0.0398
     10 C           0.6703    1.4933   26.5640 C.ar    1  UNL1        0.1580
     11 C           1.6285    1.3582   25.4178 C.ar    1  UNL1        0.1353
     12 N           1.2485    1.8665   24.0587 N.ar    1  UNL1       -0.2433
     13 O           1.0503    0.9850   27.9231 O.3     1  UNL1       -0.4650
     14 C           0.3204   -0.1825   28.5182 C.3     1  UNL1        0.3082
     15 C          -1.0330    0.0141   29.1344 C.3     1  UNL1        0.4380
     16 F          -2.3863    0.2108   29.7506 F       1  UNL1       -0.1663
     17 F          -0.5314    1.2354   29.8463 F       1  UNL1       -0.1663
     18 F          -1.5346   -1.2072   28.4226 F       1  UNL1       -0.1663
     19 C           0.6711    1.1667   19.1668 C.3     1  UNL1        0.1113
     20 C           3.9169   -1.9202   18.7361 C.ar    1  UNL1       -0.0225
     21 C           3.7428   -0.8634   17.6859 C.ar    1  UNL1       -0.0046
     22 C           2.6608    0.1655   17.8295 C.ar    1  UNL1       -0.0041
     23 C           1.7530    0.1377   19.0232 C.ar    1  UNL1       -0.0131
     24 C           1.9272   -0.9190   20.0734 C.ar    1  UNL1       -0.0041
     25 C           3.0091   -1.9480   19.9298 C.ar    1  UNL1       -0.0046
     26 C           4.6954   -4.3966   18.8429 C.3     1  UNL1        0.0047
     27 C           4.9989   -2.9491   18.5925 C.3     1  UNL1        0.0224
     28 C           6.3844   -2.5307   18.1985 C.3     1  UNL1        0.0047
@<TRIPOS>BOND
     1    26    27    1
     2    27    28    1
     3    27    20    1
     4    20    21   ar
     5    21    22   ar
     6    22    23   ar
     7    23    19    1
     8    19     1    1
     9     1     2    2
    10     1     3   am
    11     3     5    1
    12     5     6    1
    13     5     7    1
    14     7     8   ar
    15     8     9   ar
    16     9    10   ar
    17    10    13    1
    18    13    14    1
    19    14    15    1
    20    15    16    1
    21    15    17    1
    22    15    18    1
    23    10    11   ar
    24    11    12   ar
    25    23    24   ar
    26    24    25   ar
    27    25    20   ar
    28    12     7   ar
    29     3     4    1
@<TRIPOS>MOLECULE
*****
 28 29 0 0 0
SMALL
GASTEIGER

@<TRIPOS>ATOM
      1 C           5.0854   -1.1635   26.4449 C.2     1  UNL1        0.2271
      2 O           5.8771   -0.0102   25.9034 O.2     1  UNL1       -0.2747
      3 N           3.7000   -1.4278   25.9342 N.am    1  UNL1       -0.3005
      4 H           3.1804   -2.1847   26.2895 H       1  UNL1        0.1497
      5 C           3.1063   -0.5386   24.8820 C.3     1  UNL1        0.1119
      6 C           2.4182    0.7344   25.2769 C.3     1  UNL1        0.0278
      7 C           3.2006   -0.9226   23.4351 C.ar    1  UNL1        0.0770
      8 C           4.1224   -2.0272   23.0108 C.ar    1  UNL1        0.0195
      9 C           4.2167   -2.4111   21.5638 C.ar    1  UNL1        0.0398
     10 C           3.3891   -1.6905   20.5412 C.ar    1  UNL1        0.1580
     11 C           2.4673   -0.5859   20.9655 C.ar    1  UNL1        0.1353
     12 N           2.3730   -0.2019   22.4124 N.ar    1  UNL1       -0.2433
     13 O           3.4834   -2.0744   19.0942 O.3     1  UNL1       -0.4650
     14 C           4.3989   -3.1847   18.6710 C.3     1  UNL1        0.3082
     15 C           4.1105   -4.5957   19.0906 C.3     1  UNL1        0.4380
     16 F           3.8221   -6.0066   19.5101 F       1  UNL1       -0.1663
     17 F           2.6753   -4.4211   18.6910 F       1  UNL1       -0.1663
     18 F           5.5457   -4.7703   19.4901 F       1  UNL1       -0.1663
     19 C           5.6792   -2.0526   27.4970 C.3     1  UNL1        0.1113
     20 C           7.3481   -6.0751   26.3638 C.ar    1  UNL1       -0.0225
     21 C           7.2141   -4.9996   25.3269 C.ar    1  UNL1       -0.0046
     22 C           6.6578   -3.6588   25.7046 C.ar    1  UNL1       -0.0041
     23 C           6.2355   -3.3934   27.1193 C.ar    1  UNL1       -0.0131
     24 C           6.3695   -4.4690   28.1562 C.ar    1  UNL1       -0.0041
     25 C           6.9259   -5.8098   27.7785 C.ar    1  UNL1       -0.0046
     26 C           7.9615   -8.5176   27.0025 C.3     1  UNL1        0.0047
     27 C           7.9044   -7.4160   25.9861 C.3     1  UNL1        0.0224
     28 C           8.4037   -7.6551   24.5920 C.3     1  UNL1        0.0047
@<TRIPOS>BOND
     1    26    27    1
     2    27    28    1
     3    27    20    1
     4    20    21   ar
     5    21    22   ar
     6    22    23   ar
     7    23    19    1
     8    19     1    1
     9     1     2    2
    10     1     3   am
    11     3     5    1
    12     5     6    1
    13     5     7    1
    14     7     8   ar
    15     8     9   ar
    16     9    10   ar
    17    10    13    1
    18    13    14    1
    19    14    15    1
    20    15    16    1
    21    15    17    1
    22    15    18    1
    23    10    11   ar
    24    11    12   ar
    25    23    24   ar
    26    24    25   ar
    27    25    20   ar
    28    12     7   ar
    29     3     4    1
@<TRIPOS>MOLECULE
*****
 28 29 0 0 0
SMALL
GASTEIGER

@<TRIPOS>ATOM
      1 C          -6.2570  -15.5741   24.9859 C.2     1  UNL1        0.2271
      2 O          -5.2250  -14.5577   25.3758 O.2     1  UNL1       -0.2747
      3 N          -5.8317  -16.9416   24.5397 N.am    1  UNL1       -0.3005
      4 H          -6.5090  -17.6087   24.2838 H       1  UNL1        0.1497
      5 C          -4.3744  -17.2927   24.4834 C.3     1  UNL1        0.1119
      6 C          -3.5655  -17.3415   25.7456 C.3     1  UNL1        0.0278
      7 C          -3.7262  -17.5950   23.1650 C.ar    1  UNL1        0.0770
      8 C          -3.7054  -19.0016   22.6444 C.ar    1  UNL1        0.0195
      9 C          -3.0571  -19.3039   21.3259 C.ar    1  UNL1        0.0398
     10 C          -2.4297  -18.1995   20.5280 C.ar    1  UNL1        0.1580
     11 C          -2.4504  -16.7929   21.0486 C.ar    1  UNL1        0.1353
     12 N          -3.0987  -16.4906   22.3670 N.ar    1  UNL1       -0.2433
     13 O          -1.7814  -18.5018   19.2095 O.3     1  UNL1       -0.4650
     14 C          -0.4752  -17.8575   18.8508 C.3     1  UNL1        0.3082
     15 C           0.6367  -17.8058   19.8563 C.3     1  UNL1        0.4380
     16 F           1.7486  -17.7540   20.8618 F       1  UNL1       -0.1663
     17 F           0.4176  -16.3313   20.0227 F       1  UNL1       -0.1663
     18 F           0.8558  -19.2803   19.6900 F       1  UNL1       -0.1663
     19 C          -7.7142  -15.2230   25.0422 C.3     1  UNL1        0.1113
     20 C         -10.6920  -17.5827   22.6309 C.ar    1  UNL1       -0.0225
     21 C         -10.5084  -17.8756   24.0905 C.ar    1  UNL1       -0.0046
     22 C          -9.5158  -17.0891   24.8942 C.ar    1  UNL1       -0.0041
     23 C          -8.7068  -16.0096   24.2384 C.ar    1  UNL1       -0.0131
     24 C          -8.8904  -15.7166   22.7789 C.ar    1  UNL1       -0.0041
     25 C          -9.8831  -16.5032   21.9751 C.ar    1  UNL1       -0.0046
     26 C         -13.0176  -17.7708   21.4879 C.3     1  UNL1        0.0047
     27 C         -11.6847  -18.3692   21.8271 C.3     1  UNL1        0.0224
     28 C         -11.3443  -19.7542   21.3625 C.3     1  UNL1        0.0047
@<TRIPOS>BOND
     1    26    27    1
     2    27    28    1
     3    27    20    1
     4    20    21   ar
     5    21    22   ar
     6    22    23   ar
     7    23    19    1
     8    19     1    1
     9     1     2    2
    10     1     3   am
    11     3     5    1
    12     5     6    1
    13     5     7    1
    14     7     8   ar
    15     8     9   ar
    16     9    10   ar
    17    10    13    1
    18    13    14    1
    19    14    15    1
    20    15    16    1
    21    15    17    1
    22    15    18    1
    23    10    11   ar
    24    11    12   ar
    25    23    24   ar
    26    24    25   ar
    27    25    20   ar
    28    12     7   ar
    29     3     4    1
@<TRIPOS>MOLECULE
*****
 28 29 0 0 0
SMALL
GASTEIGER

@<TRIPOS>ATOM
      1 C           0.7189    2.1513   21.7760 C.2     1  UNL1        0.2271
      2 O          -0.1384    0.9236   21.6863 O.2     1  UNL1       -0.2747
      3 N           1.6679    2.4863   20.6636 N.am    1  UNL1       -0.3005
      4 H           2.2305    3.2920   20.7225 H       1  UNL1        0.1497
      5 C           1.7594    1.5936   19.4616 C.3     1  UNL1        0.1119
      6 C           0.7978    1.7671   18.3235 C.3     1  UNL1        0.0278
      7 C           2.8126    0.5275   19.3976 C.ar    1  UNL1        0.0770
      8 C           3.0643   -0.2020   18.1114 C.ar    1  UNL1        0.0195
      9 C           4.1175   -1.2682   18.0475 C.ar    1  UNL1        0.0398
     10 C           4.9191   -1.6048   19.2698 C.ar    1  UNL1        0.1580
     11 C           4.6674   -0.8753   20.5561 C.ar    1  UNL1        0.1353
     12 N           3.6143    0.1908   20.6200 N.ar    1  UNL1       -0.2433
     13 O           5.9722   -2.6710   19.2058 O.3     1  UNL1       -0.4650
     14 C           5.6981   -4.0311   19.7757 C.3     1  UNL1        0.3082
     15 C           4.3310   -4.6356   19.6497 C.3     1  UNL1        0.4380
     16 F           2.9640   -5.2399   19.5237 F       1  UNL1       -0.1663
     17 F           4.0275   -4.2443   21.0656 F       1  UNL1       -0.1663
     18 F           4.6345   -5.0268   18.2338 F       1  UNL1       -0.1663
     19 C           0.6273    3.0439   22.9780 C.3     1  UNL1        0.1113
     20 C           0.0509    1.2580   27.0680 C.ar    1  UNL1       -0.0225
     21 C          -1.0538    2.0490   26.4326 C.ar    1  UNL1       -0.0046
     22 C          -0.8617    2.6443   25.0692 C.ar    1  UNL1       -0.0041
     23 C           0.4352    2.4486   24.3413 C.ar    1  UNL1       -0.0131
     24 C           1.5399    1.6576   24.9768 C.ar    1  UNL1       -0.0041
     25 C           1.3478    1.0623   26.3402 C.ar    1  UNL1       -0.0046
     26 C           0.7396    1.0908   29.5676 C.3     1  UNL1        0.0047
     27 C          -0.1412    0.6628   28.4314 C.3     1  UNL1        0.0224
     28 C          -1.2141   -0.3606   28.6586 C.3     1  UNL1        0.0047
@<TRIPOS>BOND
     1    26    27    1
     2    27    28    1
     3    27    20    1
     4    20    21   ar
     5    21    22   ar
     6    22    23   ar
     7    23    19    1
     8    19     1    1
     9     1     2    2
    10     1     3   am
    11     3     5    1
    12     5     6    1
    13     5     7    1
    14     7     8   ar
    15     8     9   ar
    16     9    10   ar
    17    10    13    1
    18    13    14    1
    19    14    15    1
    20    15    16    1
    21    15    17    1
    22    15    18    1
    23    10    11   ar
    24    11    12   ar
    25    23    24   ar
    26    24    25   ar
    27    25    20   ar
    28    12     7   ar
    29     3     4    1
@<TRIPOS>MOLECULE
*****
 28 29 0 0 0
SMALL
GASTEIGER

@<TRIPOS>ATOM
      1 C          -6.0262  -15.4944   24.8828 C.2     1  UNL1        0.2271
      2 O          -5.0153  -14.6036   25.5420 O.2     1  UNL1       -0.2747
      3 N          -5.6109  -16.8329   24.3481 N.am    1  UNL1       -0.3005
      4 H          -6.2744  -17.4176   23.9154 H       1  UNL1        0.1497
      5 C          -4.1846  -17.2806   24.4725 C.3     1  UNL1        0.1119
      6 C          -3.5778  -17.4831   25.8293 C.3     1  UNL1        0.0278
      7 C          -3.3652  -17.5256   23.2403 C.ar    1  UNL1        0.0770
      8 C          -2.7286  -16.3732   22.5214 C.ar    1  UNL1        0.0195
      9 C          -1.9092  -16.6184   21.2891 C.ar    1  UNL1        0.0398
     10 C          -1.7263  -18.0158   20.7758 C.ar    1  UNL1        0.1580
     11 C          -2.3629  -19.1682   21.4946 C.ar    1  UNL1        0.1353
     12 N          -3.1823  -18.9232   22.7269 N.ar    1  UNL1       -0.2433
     13 O          -0.9069  -18.2609   19.5435 O.3     1  UNL1       -0.4650
     14 C          -1.5757  -18.3520   18.2039 C.3     1  UNL1        0.3082
     15 C          -2.6361  -17.3605   17.8261 C.3     1  UNL1        0.4380
     16 F          -3.6964  -16.3691   17.4484 F       1  UNL1       -0.1663
     17 F          -3.5580  -17.9572   18.8479 F       1  UNL1       -0.1663
     18 F          -1.7142  -16.7638   16.8044 F       1  UNL1       -0.1663
     19 C          -7.4524  -15.0467   24.7583 C.3     1  UNL1        0.1113
     20 C         -10.4492  -17.6455   22.6333 C.ar    1  UNL1       -0.0225
     21 C         -10.2466  -17.7899   24.1125 C.ar    1  UNL1       -0.0046
     22 C          -9.2477  -16.9237   24.8209 C.ar    1  UNL1       -0.0041
     23 C          -8.4513  -15.9130   24.0500 C.ar    1  UNL1       -0.0131
     24 C          -8.6539  -15.7686   22.5708 C.ar    1  UNL1       -0.0041
     25 C          -9.6528  -16.6348   21.8625 C.ar    1  UNL1       -0.0046
     26 C         -11.1269  -19.9494   21.6419 C.3     1  UNL1        0.0047
     27 C         -11.4481  -18.5118   21.9250 C.3     1  UNL1        0.0224
     28 C         -12.7682  -17.9405   21.4998 C.3     1  UNL1        0.0047
@<TRIPOS>BOND
     1    26    27    1
     2    27    28    1
     3    27    20    1
     4    20    21   ar
     5    21    22   ar
     6    22    23   ar
     7    23    19    1
     8    19     1    1
     9     1     2    2
    10     1     3   am
    11     3     5    1
    12     5     6    1
    13     5     7    1
    14     7     8   ar
    15     8     9   ar
    16     9    10   ar
    17    10    13    1
    18    13    14    1
    19    14    15    1
    20    15    16    1
    21    15    17    1
    22    15    18    1
    23    10    11   ar
    24    11    12   ar
    25    23    24   ar
    26    24    25   ar
    27    25    20   ar
    28    12     7   ar
    29     3     4    1
