@<TRIPOS>MOLECULE
*****
 31 35 0 0 0
SMALL
GASTEIGER

@<TRIPOS>ATOM
      1 N         -13.5967  -17.9093   21.1815 N.pl3   1  UNL1       -0.3419
      2 C         -12.1145  -18.1382   21.1560 C.ar    1  UNL1        0.1372
      3 N         -11.5102  -19.0234   20.1065 N.ar    1  UNL1       -0.2286
      4 C         -10.0280  -19.2524   20.0810 C.ar    1  UNL1        0.1046
      5 C          -9.1501  -18.5961   21.1051 C.ar    1  UNL1        0.0679
      6 C          -9.7543  -17.7110   22.1545 C.ar    1  UNL1        0.0657
      7 C         -11.2365  -17.4820   22.1800 C.ar    1  UNL1        0.1021
      8 CL        -11.8407  -16.5969   23.2295 Cl      1  UNL1       -0.0780
      9 H         -14.1729  -18.3400   20.5094 H       1  UNL1        0.1437
     10 H         -13.9933  -17.3283   21.8703 H       1  UNL1        0.1437
     11 N          -8.8763  -17.0548   23.1786 N.pl3   1  UNL1       -0.3066
     12 C          -7.6319  -16.3357   22.7494 C.3     1  UNL1        0.0913
     13 C          -6.7540  -15.6795   23.7734 C.3     1  UNL1        0.0301
     14 C          -7.1205  -15.7424   25.2266 C.3     1  UNL1        0.0737
     15 C          -7.3570  -15.7220   26.7077 C.3     1  UNL1        0.0300
     16 C          -6.2346  -14.9583   27.3459 C.3     1  UNL1        0.0899
     17 N          -5.3044  -14.5068   26.2591 N.am    1  UNL1       -0.3043
     18 C          -5.8519  -14.9914   24.9494 C.2     1  UNL1        0.2217
     19 O          -5.2387  -14.7648   23.5994 O.2     1  UNL1       -0.2751
     20 C          -8.3650  -16.4615   25.6558 C.3     1  UNL1        0.0301
     21 C          -9.2429  -17.1177   24.6317 C.3     1  UNL1        0.0913
     22 H          -4.4794  -13.9842   26.3836 H       1  UNL1        0.1494
     23 C          -7.6679  -18.8251   21.0796 C.ar    1  UNL1        0.1480
     24 C          -6.8333  -19.3259   22.2209 C.ar    1  UNL1        0.0406
     25 C          -5.4096  -19.4037   21.7550 C.ar    1  UNL1        0.0376
     26 C          -4.1487  -19.8284   22.4476 C.ar    1  UNL1        0.0031
     27 C          -2.8424  -19.8003   21.7109 C.ar    1  UNL1        0.0002
     28 C          -2.7971  -19.3476   20.2815 C.ar    1  UNL1        0.0031
     29 C          -4.0580  -18.9229   19.5890 C.ar    1  UNL1        0.0375
     30 C          -5.3643  -18.9510   20.3257 C.ar    1  UNL1        0.1453
     31 O          -6.7599  -18.5934   19.9083 O.2     1  UNL1       -0.4534
@<TRIPOS>BOND
     1     1     2    1
     2     2     3   ar
     3     3     4   ar
     4     4     5   ar
     5     5    23    1
     6    23    24   ar
     7    24    25   ar
     8    25    26   ar
     9    26    27   ar
    10    27    28   ar
    11    28    29   ar
    12    29    30   ar
    13    30    31   ar
    14     5     6   ar
    15     6    11    1
    16    11    12    1
    17    12    13    1
    18    13    14    1
    19    14    15    1
    20    15    16    1
    21    16    17    1
    22    17    18   am
    23    18    19    2
    24    14    20    1
    25    20    21    1
    26     6     7   ar
    27     7     8    1
    28     7     2   ar
    29    31    23   ar
    30    21    11    1
    31    30    25   ar
    32    18    14    1
    33     1     9    1
    34     1    10    1
    35    17    22    1
@<TRIPOS>MOLECULE
*****
 31 35 0 0 0
SMALL
GASTEIGER

@<TRIPOS>ATOM
      1 N          -7.3467  -14.0513   28.0474 N.pl3   1  UNL1       -0.3419
      2 C          -6.8057  -14.8775   26.9183 C.ar    1  UNL1        0.1372
      3 N          -5.3328  -15.1450   26.8234 N.ar    1  UNL1       -0.2286
      4 C          -4.7918  -15.9712   25.6944 C.ar    1  UNL1        0.1046
      5 C          -5.7238  -16.5299   24.6602 C.ar    1  UNL1        0.0679
      6 C          -7.1966  -16.2623   24.7551 C.ar    1  UNL1        0.0657
      7 C          -7.7376  -15.4362   25.8842 C.ar    1  UNL1        0.1021
      8 CL         -9.2106  -15.1686   25.9791 Cl      1  UNL1       -0.0780
      9 H          -6.7351  -13.6846   28.7261 H       1  UNL1        0.1437
     10 H          -8.3134  -13.8757   28.1097 H       1  UNL1        0.1437
     11 N          -8.1286  -16.8210   23.7210 N.pl3   1  UNL1       -0.3066
     12 C          -8.6300  -15.9448   22.6116 C.3     1  UNL1        0.0913
     13 C          -9.5619  -16.5035   21.5776 C.3     1  UNL1        0.0301
     14 C          -9.9924  -17.9384   21.6529 C.3     1  UNL1        0.0737
     15 C         -10.5070  -19.3463   21.5984 C.3     1  UNL1        0.0300
     16 C         -11.4061  -19.4654   20.4035 C.3     1  UNL1        0.0899
     17 N         -11.4470  -18.1309   19.7195 N.am    1  UNL1       -0.3043
     18 C         -10.5734  -17.1873   20.4916 C.2     1  UNL1        0.2217
     19 O         -10.3243  -15.7456   20.1607 O.2     1  UNL1       -0.2751
     20 C          -9.4910  -18.8146   22.7622 C.3     1  UNL1        0.0301
     21 C          -8.5591  -18.2560   23.7963 C.3     1  UNL1        0.0913
     22 H         -11.9577  -17.9128   18.9065 H       1  UNL1        0.1494
     23 C          -5.1828  -17.3560   23.5312 C.ar    1  UNL1        0.1480
     24 C          -3.7713  -17.8449   23.3938 C.ar    1  UNL1        0.0406
     25 C          -3.6745  -18.6295   22.1190 C.ar    1  UNL1        0.0376
     26 C          -2.5302  -19.3469   21.4665 C.ar    1  UNL1        0.0031
     27 C          -2.7375  -20.0604   20.1635 C.ar    1  UNL1        0.0002
     28 C          -4.0891  -20.0564   19.5129 C.ar    1  UNL1        0.0031
     29 C          -5.2333  -19.3389   20.1654 C.ar    1  UNL1        0.0375
     30 C          -5.0261  -18.6254   21.4684 C.ar    1  UNL1        0.1453
     31 O          -5.9582  -17.8384   22.3412 O.2     1  UNL1       -0.4534
@<TRIPOS>BOND
     1     1     2    1
     2     2     3   ar
     3     3     4   ar
     4     4     5   ar
     5     5    23    1
     6    23    24   ar
     7    24    25   ar
     8    25    26   ar
     9    26    27   ar
    10    27    28   ar
    11    28    29   ar
    12    29    30   ar
    13    30    31   ar
    14     5     6   ar
    15     6    11    1
    16    11    12    1
    17    12    13    1
    18    13    14    1
    19    14    15    1
    20    15    16    1
    21    16    17    1
    22    17    18   am
    23    18    19    2
    24    14    20    1
    25    20    21    1
    26     6     7   ar
    27     7     8    1
    28     7     2   ar
    29    31    23   ar
    30    21    11    1
    31    30    25   ar
    32    18    14    1
    33     1     9    1
    34     1    10    1
    35    17    22    1
@<TRIPOS>MOLECULE
*****
 31 35 0 0 0
SMALL
GASTEIGER

@<TRIPOS>ATOM
      1 N          -6.9467  -14.3395   27.9547 N.pl3   1  UNL1       -0.3419
      2 C          -7.1902  -15.1160   26.6946 C.ar    1  UNL1        0.1372
      3 N          -8.5866  -15.5116   26.3154 N.ar    1  UNL1       -0.2286
      4 C          -8.8301  -16.2881   25.0553 C.ar    1  UNL1        0.1046
      5 C          -7.6772  -16.6690   24.1744 C.ar    1  UNL1        0.0679
      6 C          -6.2809  -16.2734   24.5537 C.ar    1  UNL1        0.0657
      7 C          -6.0374  -15.4969   25.8137 C.ar    1  UNL1        0.1021
      8 CL         -4.6411  -15.1013   26.1930 Cl      1  UNL1       -0.0780
      9 H          -7.7034  -14.0896   28.5328 H       1  UNL1        0.1437
     10 H          -6.0303  -14.0799   28.2036 H       1  UNL1        0.1437
     11 N          -5.1280  -16.6542   23.6728 N.pl3   1  UNL1       -0.3066
     12 C          -4.7956  -18.1008   23.4561 C.3     1  UNL1        0.0913
     13 C          -3.6428  -18.4815   22.5752 C.3     1  UNL1        0.0301
     14 C          -2.8223  -17.4158   21.9111 C.3     1  UNL1        0.0737
     15 C          -1.9167  -16.4662   21.1844 C.3     1  UNL1        0.0300
     16 C          -0.9073  -17.2766   20.4265 C.3     1  UNL1        0.0899
     17 N          -1.1891  -18.7271   20.6848 N.am    1  UNL1       -0.3043
     18 C          -2.3726  -18.8132   21.6023 C.2     1  UNL1        0.2217
     19 O          -2.9969  -20.0749   22.1202 O.2     1  UNL1       -0.2751
     20 C          -3.1547  -15.9693   22.1279 C.3     1  UNL1        0.0301
     21 C          -4.3075  -15.5885   23.0087 C.3     1  UNL1        0.0913
     22 H          -0.6857  -19.4889   20.3167 H       1  UNL1        0.1494
     23 C          -7.9206  -17.4454   22.9143 C.ar    1  UNL1        0.1480
     24 C          -9.2530  -17.9195   22.4144 C.ar    1  UNL1        0.0406
     25 C          -9.0303  -18.6513   21.1240 C.ar    1  UNL1        0.0376
     26 C          -9.9762  -19.3346   20.1815 C.ar    1  UNL1        0.0031
     27 C          -9.4520  -19.9961   18.9415 C.ar    1  UNL1        0.0002
     28 C          -7.9820  -19.9742   18.6440 C.ar    1  UNL1        0.0031
     29 C          -7.0361  -19.2908   19.5865 C.ar    1  UNL1        0.0375
     30 C          -7.5603  -18.6294   20.8265 C.ar    1  UNL1        0.1453
     31 O          -6.8745  -17.8841   21.9330 O.2     1  UNL1       -0.4534
@<TRIPOS>BOND
     1     1     2    1
     2     2     3   ar
     3     3     4   ar
     4     4     5   ar
     5     5    23    1
     6    23    24   ar
     7    24    25   ar
     8    25    26   ar
     9    26    27   ar
    10    27    28   ar
    11    28    29   ar
    12    29    30   ar
    13    30    31   ar
    14     5     6   ar
    15     6    11    1
    16    11    12    1
    17    12    13    1
    18    13    14    1
    19    14    15    1
    20    15    16    1
    21    16    17    1
    22    17    18   am
    23    18    19    2
    24    14    20    1
    25    20    21    1
    26     6     7   ar
    27     7     8    1
    28     7     2   ar
    29    31    23   ar
    30    21    11    1
    31    30    25   ar
    32    18    14    1
    33     1     9    1
    34     1    10    1
    35    17    22    1
@<TRIPOS>MOLECULE
*****
 31 35 0 0 0
SMALL
GASTEIGER

@<TRIPOS>ATOM
      1 N          -8.4302  -14.7899   27.5018 N.pl3   1  UNL1       -0.3419
      2 C          -7.4164  -15.2733   26.5076 C.ar    1  UNL1        0.1372
      3 N          -5.9607  -14.9778   26.7168 N.ar    1  UNL1       -0.2286
      4 C          -4.9469  -15.4612   25.7226 C.ar    1  UNL1        0.1046
      5 C          -5.3887  -16.2401   24.5192 C.ar    1  UNL1        0.0679
      6 C          -6.8444  -16.5356   24.3100 C.ar    1  UNL1        0.0657
      7 C          -7.8582  -16.0521   25.3043 C.ar    1  UNL1        0.1021
      8 CL         -9.3139  -16.3476   25.0950 Cl      1  UNL1       -0.0780
      9 H          -8.1402  -14.2787   28.2916 H       1  UNL1        0.1437
     10 H          -9.3856  -14.9838   27.3645 H       1  UNL1        0.1437
     11 N          -7.2862  -17.3145   23.1066 N.pl3   1  UNL1       -0.3066
     12 C          -8.5631  -16.9536   22.4071 C.3     1  UNL1        0.0913
     13 C          -9.0049  -17.7325   21.2037 C.3     1  UNL1        0.0301
     14 C          -8.1699  -18.8722   20.6999 C.3     1  UNL1        0.0737
     15 C          -7.4431  -20.0310   20.0841 C.3     1  UNL1        0.0300
     16 C          -8.2402  -20.5041   18.9046 C.3     1  UNL1        0.0899
     17 N          -9.4595  -19.6377   18.7915 N.am    1  UNL1       -0.3043
     18 C          -9.4161  -18.6292   19.9011 C.2     1  UNL1        0.2217
     19 O         -10.4391  -17.5646   20.1655 O.2     1  UNL1       -0.2751
     20 C          -6.8930  -19.2331   21.3995 C.3     1  UNL1        0.0301
     21 C          -6.4512  -18.4542   22.6028 C.3     1  UNL1        0.0913
     22 H         -10.1645  -19.7170   18.1090 H       1  UNL1        0.1494
     23 C          -4.3749  -16.7235   23.5250 C.ar    1  UNL1        0.1480
     24 C          -3.9319  -18.1443   23.3373 C.ar    1  UNL1        0.0406
     25 C          -2.9093  -18.1699   22.2402 C.ar    1  UNL1        0.0376
     26 C          -2.1258  -19.2910   21.6244 C.ar    1  UNL1        0.0031
     27 C          -1.1533  -19.0072   20.5182 C.ar    1  UNL1        0.0002
     28 C          -0.9643  -17.6023   20.0279 C.ar    1  UNL1        0.0031
     29 C          -1.7477  -16.4812   20.6437 C.ar    1  UNL1        0.0375
     30 C          -2.7202  -16.7650   21.7499 C.ar    1  UNL1        0.1453
     31 O          -3.6260  -15.8711   22.5439 O.2     1  UNL1       -0.4534
@<TRIPOS>BOND
     1     1     2    1
     2     2     3   ar
     3     3     4   ar
     4     4     5   ar
     5     5    23    1
     6    23    24   ar
     7    24    25   ar
     8    25    26   ar
     9    26    27   ar
    10    27    28   ar
    11    28    29   ar
    12    29    30   ar
    13    30    31   ar
    14     5     6   ar
    15     6    11    1
    16    11    12    1
    17    12    13    1
    18    13    14    1
    19    14    15    1
    20    15    16    1
    21    16    17    1
    22    17    18   am
    23    18    19    2
    24    14    20    1
    25    20    21    1
    26     6     7   ar
    27     7     8    1
    28     7     2   ar
    29    31    23   ar
    30    21    11    1
    31    30    25   ar
    32    18    14    1
    33     1     9    1
    34     1    10    1
    35    17    22    1
@<TRIPOS>MOLECULE
*****
 31 35 0 0 0
SMALL
GASTEIGER

@<TRIPOS>ATOM
      1 N           3.4283    1.8458   38.1654 N.pl3   1  UNL1       -0.3419
      2 C           3.3617    1.6813   36.6760 C.ar    1  UNL1        0.1372
      3 N           2.3984    2.5041   35.8728 N.ar    1  UNL1       -0.2286
      4 C           2.3319    2.3396   34.3833 C.ar    1  UNL1        0.1046
      5 C           3.2287    1.3522   33.6970 C.ar    1  UNL1        0.0679
      6 C           4.1920    0.5294   34.5002 C.ar    1  UNL1        0.0657
      7 C           4.2585    0.6940   35.9897 C.ar    1  UNL1        0.1021
      8 CL          5.2218   -0.1289   36.7929 Cl      1  UNL1       -0.0780
      9 H           2.8397    2.4938   38.6159 H       1  UNL1        0.1437
     10 H           4.0605    1.3058   38.6926 H       1  UNL1        0.1437
     11 N           5.0888   -0.4579   33.8139 N.pl3   1  UNL1       -0.3066
     12 C           6.4837   -0.0629   33.4291 C.3     1  UNL1        0.0913
     13 C           7.3804   -1.0503   32.7429 C.3     1  UNL1        0.0301
     14 C           6.8822   -2.4326   32.4414 C.3     1  UNL1        0.0737
     15 C           6.5251   -3.8432   32.0770 C.3     1  UNL1        0.0300
     16 C           7.7157   -4.4652   31.4094 C.3     1  UNL1        0.0899
     17 N           8.8088   -3.4390   31.3613 N.am    1  UNL1       -0.3043
     18 C           8.2936   -2.1828   31.9991 C.2     1  UNL1        0.2217
     19 O           9.0560   -0.9018   32.1654 O.2     1  UNL1       -0.2751
     20 C           5.4873   -2.8277   32.8263 C.3     1  UNL1        0.0301
     21 C           4.5906   -1.8403   33.5125 C.3     1  UNL1        0.0913
     22 H           9.7066   -3.5673   30.9783 H       1  UNL1        0.1494
     23 C           3.1622    1.1877   32.2076 C.ar    1  UNL1        0.1480
     24 C           3.9034    2.0103   31.1957 C.ar    1  UNL1        0.0406
     25 C           3.5421    1.5027   29.8312 C.ar    1  UNL1        0.0376
     26 C           3.9667    1.9284   28.4570 C.ar    1  UNL1        0.0031
     27 C           3.4269    1.2177   27.2514 C.ar    1  UNL1        0.0002
     28 C           2.4624    0.0814   27.4200 C.ar    1  UNL1        0.0031
     29 C           2.0378   -0.3444   28.7942 C.ar    1  UNL1        0.0375
     30 C           2.5776    0.3663   29.9998 C.ar    1  UNL1        0.1453
     31 O           2.3429    0.1717   31.4685 O.2     1  UNL1       -0.4534
@<TRIPOS>BOND
     1     1     2    1
     2     2     3   ar
     3     3     4   ar
     4     4     5   ar
     5     5    23    1
     6    23    24   ar
     7    24    25   ar
     8    25    26   ar
     9    26    27   ar
    10    27    28   ar
    11    28    29   ar
    12    29    30   ar
    13    30    31   ar
    14     5     6   ar
    15     6    11    1
    16    11    12    1
    17    12    13    1
    18    13    14    1
    19    14    15    1
    20    15    16    1
    21    16    17    1
    22    17    18   am
    23    18    19    2
    24    14    20    1
    25    20    21    1
    26     6     7   ar
    27     7     8    1
    28     7     2   ar
    29    31    23   ar
    30    21    11    1
    31    30    25   ar
    32    18    14    1
    33     1     9    1
    34     1    10    1
    35    17    22    1
@<TRIPOS>MOLECULE
*****
 31 35 0 0 0
SMALL
GASTEIGER

@<TRIPOS>ATOM
      1 N           2.0355    3.0496   36.4913 N.pl3   1  UNL1       -0.3419
      2 C           2.9242    2.0560   35.8035 C.ar    1  UNL1        0.1372
      3 N           3.7970    1.1438   36.6136 N.ar    1  UNL1       -0.2286
      4 C           4.6858    0.1503   35.9259 C.ar    1  UNL1        0.1046
      5 C           4.7017    0.0689   34.4281 C.ar    1  UNL1        0.0679
      6 C           3.8288    0.9811   33.6181 C.ar    1  UNL1        0.0657
      7 C           2.9401    1.9746   34.3059 C.ar    1  UNL1        0.1021
      8 CL          2.0672    2.8869   33.4958 Cl      1  UNL1       -0.0780
      9 H           2.0250    3.1030   37.4743 H       1  UNL1        0.1437
     10 H           1.4626    3.6483   35.9597 H       1  UNL1        0.1437
     11 N           3.8447    0.8997   32.1204 N.pl3   1  UNL1       -0.3066
     12 C           2.8300    0.0587   31.4042 C.3     1  UNL1        0.0913
     13 C           2.8459   -0.0227   29.9065 C.3     1  UNL1        0.0301
     14 C           3.8765    0.7370   29.1250 C.3     1  UNL1        0.0737
     15 C           4.8412    1.4369   28.2142 C.3     1  UNL1        0.0300
     16 C           4.4914    1.0740   26.8014 C.3     1  UNL1        0.0899
     17 N           3.3105    0.1497   26.8391 N.am    1  UNL1       -0.3043
     18 C           2.9305   -0.0585   28.2751 C.2     1  UNL1        0.2217
     19 O           1.8026   -0.9123   28.7738 O.2     1  UNL1       -0.2751
     20 C           4.8912    1.5781   29.8412 C.3     1  UNL1        0.0301
     21 C           4.8753    1.6594   31.3389 C.3     1  UNL1        0.0913
     22 H           2.8634   -0.2500   26.0583 H       1  UNL1        0.1494
     23 C           5.5904   -0.9247   33.7404 C.ar    1  UNL1        0.1480
     24 C           5.1490   -2.2072   33.0998 C.ar    1  UNL1        0.0406
     25 C           6.3624   -2.8854   32.5360 C.ar    1  UNL1        0.0376
     26 C           6.5364   -4.1775   31.7944 C.ar    1  UNL1        0.0031
     27 C           7.9016   -4.6062   31.3449 C.ar    1  UNL1        0.0002
     28 C           9.0929   -3.7428   31.6370 C.ar    1  UNL1        0.0031
     29 C           8.9190   -2.4507   32.3786 C.ar    1  UNL1        0.0375
     30 C           7.5537   -2.0220   32.8281 C.ar    1  UNL1        0.1453
     31 O           7.0765   -0.8102   33.5724 O.2     1  UNL1       -0.4534
@<TRIPOS>BOND
     1     1     2    1
     2     2     3   ar
     3     3     4   ar
     4     4     5   ar
     5     5    23    1
     6    23    24   ar
     7    24    25   ar
     8    25    26   ar
     9    26    27   ar
    10    27    28   ar
    11    28    29   ar
    12    29    30   ar
    13    30    31   ar
    14     5     6   ar
    15     6    11    1
    16    11    12    1
    17    12    13    1
    18    13    14    1
    19    14    15    1
    20    15    16    1
    21    16    17    1
    22    17    18   am
    23    18    19    2
    24    14    20    1
    25    20    21    1
    26     6     7   ar
    27     7     8    1
    28     7     2   ar
    29    31    23   ar
    30    21    11    1
    31    30    25   ar
    32    18    14    1
    33     1     9    1
    34     1    10    1
    35    17    22    1
@<TRIPOS>MOLECULE
*****
 31 35 0 0 0
SMALL
GASTEIGER

@<TRIPOS>ATOM
      1 N           2.6213    5.3041   36.9400 N.pl3   1  UNL1       -0.3419
      2 C           2.2096    4.7425   35.6115 C.ar    1  UNL1        0.1372
      3 N           0.9789    5.2597   34.9274 N.ar    1  UNL1       -0.2286
      4 C           0.5672    4.6981   33.5989 C.ar    1  UNL1        0.1046
      5 C           1.3862    3.6193   32.9543 C.ar    1  UNL1        0.0679
      6 C           2.6168    3.1021   33.6384 C.ar    1  UNL1        0.0657
      7 C           3.0285    3.6637   34.9669 C.ar    1  UNL1        0.1021
      8 CL          4.2593    3.1464   35.6510 Cl      1  UNL1       -0.0780
      9 H           2.0838    6.0121   37.3631 H       1  UNL1        0.1437
     10 H           3.4290    4.9646   37.3890 H       1  UNL1        0.1437
     11 N           3.4358    2.0232   32.9938 N.pl3   1  UNL1       -0.3066
     12 C           3.1607    0.5829   33.3096 C.3     1  UNL1        0.0913
     13 C           3.9797   -0.4959   32.6651 C.3     1  UNL1        0.0301
     14 C           5.0738   -0.1343   31.7048 C.3     1  UNL1        0.0737
     15 C           6.1948    0.0732   30.7298 C.3     1  UNL1        0.0300
     16 C           6.7294   -1.2744   30.3445 C.3     1  UNL1        0.0899
     17 N           5.9389   -2.3147   31.0814 N.am    1  UNL1       -0.3043
     18 C           4.9157   -1.6102   31.9220 C.2     1  UNL1        0.2217
     19 O           3.9108   -2.2661   32.8219 O.2     1  UNL1       -0.2751
     20 C           5.3489    1.3060   31.3890 C.3     1  UNL1        0.0301
     21 C           4.5299    2.3847   32.0335 C.3     1  UNL1        0.0913
     22 H           6.0688   -3.2889   31.0234 H       1  UNL1        0.1494
     23 C           0.9745    3.0577   31.6258 C.ar    1  UNL1        0.1480
     24 C           1.0825    3.7549   30.3021 C.ar    1  UNL1        0.0406
     25 C           0.5573    2.8284   29.2458 C.ar    1  UNL1        0.0376
     26 C           0.4171    2.9770   27.7598 C.ar    1  UNL1        0.0031
     27 C          -0.1558    1.8557   26.9447 C.ar    1  UNL1        0.0002
     28 C          -0.5886    0.5858   27.6156 C.ar    1  UNL1        0.0031
     29 C          -0.4484    0.4372   29.1016 C.ar    1  UNL1        0.0375
     30 C           0.1245    1.5585   29.9167 C.ar    1  UNL1        0.1453
     31 O           0.3824    1.7002   31.3876 O.2     1  UNL1       -0.4534
@<TRIPOS>BOND
     1     1     2    1
     2     2     3   ar
     3     3     4   ar
     4     4     5   ar
     5     5    23    1
     6    23    24   ar
     7    24    25   ar
     8    25    26   ar
     9    26    27   ar
    10    27    28   ar
    11    28    29   ar
    12    29    30   ar
    13    30    31   ar
    14     5     6   ar
    15     6    11    1
    16    11    12    1
    17    12    13    1
    18    13    14    1
    19    14    15    1
    20    15    16    1
    21    16    17    1
    22    17    18   am
    23    18    19    2
    24    14    20    1
    25    20    21    1
    26     6     7   ar
    27     7     8    1
    28     7     2   ar
    29    31    23   ar
    30    21    11    1
    31    30    25   ar
    32    18    14    1
    33     1     9    1
    34     1    10    1
    35    17    22    1
@<TRIPOS>MOLECULE
*****
 31 35 0 0 0
SMALL
GASTEIGER

@<TRIPOS>ATOM
      1 N           0.9077    5.4973   36.0757 N.pl3   1  UNL1       -0.3419
      2 C           1.7161    4.3356   35.5789 C.ar    1  UNL1        0.1372
      3 N           2.5923    3.5715   36.5269 N.ar    1  UNL1       -0.2286
      4 C           3.4007    2.4098   36.0302 C.ar    1  UNL1        0.1046
      5 C           3.3330    2.0121   34.5854 C.ar    1  UNL1        0.0679
      6 C           2.4569    2.7761   33.6375 C.ar    1  UNL1        0.0657
      7 C           1.6485    3.9379   34.1342 C.ar    1  UNL1        0.1021
      8 CL          0.7723    4.7019   33.1862 Cl      1  UNL1       -0.0780
      9 H           0.9521    5.7583   37.0239 H       1  UNL1        0.1437
     10 H           0.3326    5.9988   35.4535 H       1  UNL1        0.1437
     11 N           2.3892    2.3785   32.1927 N.pl3   1  UNL1       -0.3066
     12 C           1.3430    1.4082   31.7301 C.3     1  UNL1        0.0913
     13 C           1.2753    1.0106   30.2854 C.3     1  UNL1        0.0301
     14 C           2.2539    1.5832   29.3032 C.3     1  UNL1        0.0737
     15 C           3.1599    2.0701   28.2114 C.3     1  UNL1        0.0300
     16 C           2.7343    1.4166   26.9299 C.3     1  UNL1        0.0899
     17 N           1.5652    0.5258   27.2299 N.am    1  UNL1       -0.3043
     18 C           1.2683    0.6288   28.6966 C.2     1  UNL1        0.2217
     19 O           0.1775   -0.0955   29.4284 O.2     1  UNL1       -0.2751
     20 C           3.3001    2.5534   29.7658 C.3     1  UNL1        0.0301
     21 C           3.3678    2.9510   31.2105 C.3     1  UNL1        0.0913
     22 H           1.0783   -0.0290   26.5785 H       1  UNL1        0.1494
     23 C           4.1415    0.8504   34.0886 C.ar    1  UNL1        0.1480
     24 C           5.6185    0.8518   33.8267 C.ar    1  UNL1        0.0406
     25 C           6.0047   -0.5144   33.3427 C.ar    1  UNL1        0.0376
     26 C           7.3240   -1.0976   32.9311 C.ar    1  UNL1        0.0031
     27 C           7.4050   -2.5265   32.4823 C.ar    1  UNL1        0.0002
     28 C           6.1668   -3.3724   32.4452 C.ar    1  UNL1        0.0031
     29 C           4.8475   -2.7892   32.8568 C.ar    1  UNL1        0.0375
     30 C           4.7665   -1.3603   33.3056 C.ar    1  UNL1        0.1453
     31 O           3.6150   -0.5167   33.7666 O.2     1  UNL1       -0.4534
@<TRIPOS>BOND
     1     1     2    1
     2     2     3   ar
     3     3     4   ar
     4     4     5   ar
     5     5    23    1
     6    23    24   ar
     7    24    25   ar
     8    25    26   ar
     9    26    27   ar
    10    27    28   ar
    11    28    29   ar
    12    29    30   ar
    13    30    31   ar
    14     5     6   ar
    15     6    11    1
    16    11    12    1
    17    12    13    1
    18    13    14    1
    19    14    15    1
    20    15    16    1
    21    16    17    1
    22    17    18   am
    23    18    19    2
    24    14    20    1
    25    20    21    1
    26     6     7   ar
    27     7     8    1
    28     7     2   ar
    29    31    23   ar
    30    21    11    1
    31    30    25   ar
    32    18    14    1
    33     1     9    1
    34     1    10    1
    35    17    22    1
@<TRIPOS>MOLECULE
*****
 31 35 0 0 0
SMALL
GASTEIGER

@<TRIPOS>ATOM
      1 N           5.3799    2.4922   26.1579 N.pl3   1  UNL1       -0.3419
      2 C           5.8563    1.0877   25.9334 C.ar    1  UNL1        0.1372
      3 N           6.6622    0.3912   26.9896 N.ar    1  UNL1       -0.2286
      4 C           7.1387   -1.0132   26.7651 C.ar    1  UNL1        0.1046
      5 C           6.8093   -1.7213   25.4843 C.ar    1  UNL1        0.0679
      6 C           6.0034   -1.0248   24.4282 C.ar    1  UNL1        0.0657
      7 C           5.5270    0.3797   24.6527 C.ar    1  UNL1        0.1021
      8 CL          4.7211    1.0762   23.5965 Cl      1  UNL1       -0.0780
      9 H           5.5961    2.9569   26.9985 H       1  UNL1        0.1437
     10 H           4.8509    2.9493   25.4647 H       1  UNL1        0.1437
     11 N           5.6740   -1.7328   23.1474 N.pl3   1  UNL1       -0.3066
     12 C           6.3708   -1.3469   21.8764 C.3     1  UNL1        0.0913
     13 C           6.0414   -2.0549   20.5958 C.3     1  UNL1        0.0301
     14 C           5.0151   -3.1488   20.5861 C.3     1  UNL1        0.0737
     15 C           4.0167   -4.2562   20.4224 C.3     1  UNL1        0.0300
     16 C           4.0108   -4.6656   18.9793 C.3     1  UNL1        0.0899
     17 N           5.0056   -3.8111   18.2511 N.am    1  UNL1       -0.3043
     18 C           5.6263   -2.8737   19.2441 C.2     1  UNL1        0.2217
     19 O           6.6742   -1.8424   18.9473 O.2     1  UNL1       -0.2751
     20 C           4.3183   -3.5347   21.8571 C.3     1  UNL1        0.0301
     21 C           4.6477   -2.8267   23.1377 C.3     1  UNL1        0.0913
     22 H           5.2145   -3.8574   17.2901 H       1  UNL1        0.1494
     23 C           7.2858   -3.1257   25.2598 C.ar    1  UNL1        0.1480
     24 C           6.8870   -4.3305   26.0594 C.ar    1  UNL1        0.0406
     25 C           7.5994   -5.5214   25.4900 C.ar    1  UNL1        0.0376
     26 C           7.5925   -6.9721   25.8713 C.ar    1  UNL1        0.0031
     27 C           8.4247   -7.9540   25.1011 C.ar    1  UNL1        0.0002
     28 C           9.2638   -7.4852   23.9496 C.ar    1  UNL1        0.0031
     29 C           9.2708   -6.0345   23.5682 C.ar    1  UNL1        0.0375
     30 C           8.4386   -5.0526   24.3385 C.ar    1  UNL1        0.1453
     31 O           8.2447   -3.5720   24.1962 O.2     1  UNL1       -0.4534
@<TRIPOS>BOND
     1     1     2    1
     2     2     3   ar
     3     3     4   ar
     4     4     5   ar
     5     5    23    1
     6    23    24   ar
     7    24    25   ar
     8    25    26   ar
     9    26    27   ar
    10    27    28   ar
    11    28    29   ar
    12    29    30   ar
    13    30    31   ar
    14     5     6   ar
    15     6    11    1
    16    11    12    1
    17    12    13    1
    18    13    14    1
    19    14    15    1
    20    15    16    1
    21    16    17    1
    22    17    18   am
    23    18    19    2
    24    14    20    1
    25    20    21    1
    26     6     7   ar
    27     7     8    1
    28     7     2   ar
    29    31    23   ar
    30    21    11    1
    31    30    25   ar
    32    18    14    1
    33     1     9    1
    34     1    10    1
    35    17    22    1
