@<TRIPOS>MOLECULE
*****
 31 34 0 0 0
SMALL
GASTEIGER

@<TRIPOS>ATOM
      1 C          -9.1960  -19.8752   22.3401 C.ar    1  UNL1        0.0376
      2 C         -10.4298  -20.0616   21.5077 C.ar    1  UNL1        0.0143
      3 C         -10.3152  -19.1739   20.3040 C.ar    1  UNL1        0.0198
      4 C          -9.0107  -18.4389   20.3926 C.ar    1  UNL1        0.0761
      5 N          -8.3189  -18.8723   21.6510 N.ar    1  UNL1       -0.3238
      6 C          -6.9844  -18.3880   22.1353 C.3     1  UNL1        0.1297
      7 C          -5.7901  -19.0965   21.5683 C.ar    1  UNL1       -0.0016
      8 C          -6.1970  -20.1733   20.6066 C.ar    1  UNL1       -0.0024
      9 C          -5.1510  -21.0048   19.9252 C.ar    1  UNL1       -0.0003
     10 C          -3.6980  -20.7594   20.2054 C.ar    1  UNL1       -0.0003
     11 C          -3.2910  -19.6826   21.1670 C.ar    1  UNL1       -0.0045
     12 C          -4.3370  -18.8511   21.8485 C.ar    1  UNL1       -0.0237
     13 C          -3.7196  -17.8367   22.7648 C.3     1  UNL1        0.0308
     14 C          -4.4025  -16.8171   23.6274 C.3     1  UNL1        0.0308
     15 C          -5.8718  -16.5601   23.7865 C.ar    1  UNL1       -0.0237
     16 C          -6.1311  -15.4431   24.7534 C.ar    1  UNL1       -0.0045
     17 C          -7.5396  -15.0251   25.0563 C.ar    1  UNL1       -0.0003
     18 C          -8.6886  -15.7242   24.3923 C.ar    1  UNL1       -0.0003
     19 C          -8.4292  -16.8412   23.4254 C.ar    1  UNL1       -0.0024
     20 C          -7.0209  -17.2592   23.1225 C.ar    1  UNL1       -0.0016
     21 C          -8.8926  -20.5699   23.6346 C.3     1  UNL1        0.0438
     22 C          -9.9105  -20.5811   24.7363 C.3     1  UNL1        0.0062
     23 C         -10.3672  -19.2900   25.3486 C.3     1  UNL1        0.0004
     24 C         -11.3228  -18.4043   24.6055 C.3     1  UNL1        0.0000
     25 C         -12.8009  -18.6317   24.7214 C.3     1  UNL1        0.0000
     26 C         -13.7325  -18.0419   23.7045 C.3     1  UNL1        0.0000
     27 C         -13.2159  -17.6506   22.3518 C.3     1  UNL1        0.0000
     28 C         -12.7506  -16.2462   22.1040 C.3     1  UNL1        0.0000
     29 C         -11.3001  -15.9726   21.8375 C.3     1  UNL1        0.0000
     30 C         -11.7126  -15.7585   19.2813 C.3     1  UNL1        0.0000
     31 C         -10.8646  -15.4841   20.4879 C.3     1  UNL1        0.0000
@<TRIPOS>BOND
     1    30    31    1
     2    31    29    1
     3    29    28    1
     4    28    27    1
     5    27    26    1
     6    26    25    1
     7    25    24    1
     8    24    23    1
     9    23    22    1
    10    22    21    1
    11    21     1    1
    12     1     2   ar
    13     2     3   ar
    14     3     4   ar
    15     4     5   ar
    16     5     6    1
    17     6     7    1
    18     7     8   ar
    19     8     9   ar
    20     9    10   ar
    21    10    11   ar
    22    11    12   ar
    23    12    13    1
    24    13    14    1
    25    14    15    1
    26    15    16   ar
    27    16    17   ar
    28    17    18   ar
    29    18    19   ar
    30    19    20   ar
    31     5     1   ar
    32    20     6    1
    33    12     7   ar
    34    20    15   ar
@<TRIPOS>MOLECULE
*****
 31 34 0 0 0
SMALL
GASTEIGER

@<TRIPOS>ATOM
      1 C          -9.5118  -19.8105   22.3664 C.ar    1  UNL1        0.0376
      2 C         -10.6990  -20.0674   21.4863 C.ar    1  UNL1        0.0143
      3 C         -10.5004  -19.3094   20.2072 C.ar    1  UNL1        0.0198
      4 C          -9.1906  -18.5840   20.2968 C.ar    1  UNL1        0.0761
      5 N          -8.5795  -18.8937   21.6312 N.ar    1  UNL1       -0.3238
      6 C          -7.2667  -18.3773   22.1411 C.3     1  UNL1        0.1297
      7 C          -7.3487  -17.2340   23.1086 C.ar    1  UNL1       -0.0016
      8 C          -8.7716  -16.8373   23.3691 C.ar    1  UNL1       -0.0024
      9 C          -9.0756  -15.7102   24.3109 C.ar    1  UNL1       -0.0003
     10 C          -7.9566  -14.9797   24.9923 C.ar    1  UNL1       -0.0003
     11 C          -6.5337  -15.3763   24.7319 C.ar    1  UNL1       -0.0045
     12 C          -6.2297  -16.5034   23.7900 C.ar    1  UNL1       -0.0237
     13 C          -4.7525  -16.7359   23.6721 C.3     1  UNL1        0.0308
     14 C          -4.0294  -17.7561   22.8437 C.3     1  UNL1        0.0308
     15 C          -4.6050  -18.7960   21.9286 C.ar    1  UNL1       -0.0237
     16 C          -3.5271  -19.6187   21.2873 C.ar    1  UNL1       -0.0045
     17 C          -3.8899  -20.7179   20.3333 C.ar    1  UNL1       -0.0003
     18 C          -5.3306  -20.9943   20.0206 C.ar    1  UNL1       -0.0003
     19 C          -6.4085  -20.1716   20.6619 C.ar    1  UNL1       -0.0024
     20 C          -6.0457  -19.0725   21.6159 C.ar    1  UNL1       -0.0016
     21 C          -9.2950  -20.3718   23.7404 C.3     1  UNL1        0.0438
     22 C         -10.2361  -20.0163   24.8530 C.3     1  UNL1        0.0062
     23 C         -11.1416  -18.8280   24.7183 C.3     1  UNL1        0.0004
     24 C         -12.5856  -18.9373   25.1095 C.3     1  UNL1        0.0000
     25 C         -13.6249  -18.1494   24.3687 C.3     1  UNL1        0.0000
     26 C         -13.3326  -17.6304   22.9920 C.3     1  UNL1        0.0000
     27 C         -12.6056  -16.3298   22.8195 C.3     1  UNL1        0.0000
     28 C         -11.7796  -16.0896   21.5906 C.3     1  UNL1        0.0000
     29 C         -12.3753  -16.3091   20.2317 C.3     1  UNL1        0.0000
     30 C         -10.4567  -14.9388   19.1402 C.3     1  UNL1        0.0000
     31 C         -11.7894  -15.6194   19.0355 C.3     1  UNL1        0.0000
@<TRIPOS>BOND
     1    30    31    1
     2    31    29    1
     3    29    28    1
     4    28    27    1
     5    27    26    1
     6    26    25    1
     7    25    24    1
     8    24    23    1
     9    23    22    1
    10    22    21    1
    11    21     1    1
    12     1     2   ar
    13     2     3   ar
    14     3     4   ar
    15     4     5   ar
    16     5     6    1
    17     6     7    1
    18     7     8   ar
    19     8     9   ar
    20     9    10   ar
    21    10    11   ar
    22    11    12   ar
    23    12    13    1
    24    13    14    1
    25    14    15    1
    26    15    16   ar
    27    16    17   ar
    28    17    18   ar
    29    18    19   ar
    30    19    20   ar
    31     5     1   ar
    32    20     6    1
    33    12     7   ar
    34    20    15   ar
@<TRIPOS>MOLECULE
*****
 31 34 0 0 0
SMALL
GASTEIGER

@<TRIPOS>ATOM
      1 C          -8.0947  -16.4074   24.3371 C.ar    1  UNL1        0.0376
      2 C          -8.0837  -16.3734   25.8367 C.ar    1  UNL1        0.0143
      3 C          -8.9635  -17.4827   26.3319 C.ar    1  UNL1        0.0198
      4 C          -9.5183  -18.2023   25.1385 C.ar    1  UNL1        0.0761
      5 N          -8.9814  -17.5378   23.9056 N.ar    1  UNL1       -0.3238
      6 C          -9.2788  -17.9339   22.4897 C.3     1  UNL1        0.1297
      7 C         -10.5409  -17.3698   21.9076 C.ar    1  UNL1       -0.0016
      8 C         -11.2604  -16.5015   22.8967 C.ar    1  UNL1       -0.0024
      9 C         -12.5498  -15.8378   22.5134 C.ar    1  UNL1       -0.0003
     10 C         -13.1196  -16.0422   21.1410 C.ar    1  UNL1       -0.0003
     11 C         -12.4001  -16.9105   20.1519 C.ar    1  UNL1       -0.0045
     12 C         -11.1108  -17.5742   20.5352 C.ar    1  UNL1       -0.0237
     13 C         -10.5592  -18.3933   19.4060 C.3     1  UNL1        0.0308
     14 C          -9.3017  -19.2102   19.3703 C.3     1  UNL1        0.0308
     15 C          -8.2851  -19.4098   20.4551 C.ar    1  UNL1       -0.0237
     16 C          -7.1711  -20.3071   20.0037 C.ar    1  UNL1       -0.0045
     17 C          -6.0468  -20.6365   20.9406 C.ar    1  UNL1       -0.0003
     18 C          -6.0367  -20.0685   22.3288 C.ar    1  UNL1       -0.0003
     19 C          -7.1507  -19.1712   22.7802 C.ar    1  UNL1       -0.0024
     20 C          -8.2748  -18.8418   21.8434 C.ar    1  UNL1       -0.0016
     21 C          -7.3499  -15.4748   23.4286 C.3     1  UNL1        0.0438
     22 C          -5.9111  -15.1508   23.7024 C.3     1  UNL1        0.0062
     23 C          -4.9612  -16.2390   24.1072 C.3     1  UNL1        0.0004
     24 C          -3.9524  -16.7573   23.1255 C.3     1  UNL1        0.0000
     25 C          -3.2954  -18.0858   23.3563 C.3     1  UNL1        0.0000
     26 C          -2.2042  -18.5523   22.4388 C.3     1  UNL1        0.0000
     27 C          -2.4707  -19.6533   21.4556 C.3     1  UNL1        0.0000
     28 C          -2.9797  -19.3261   20.0830 C.3     1  UNL1        0.0000
     29 C          -2.6165  -18.0208   19.4397 C.3     1  UNL1        0.0000
     30 C          -0.0915  -17.5300   19.8054 C.3     1  UNL1        0.0000
     31 C          -1.2388  -17.8168   18.8827 C.3     1  UNL1        0.0000
@<TRIPOS>BOND
     1    30    31    1
     2    31    29    1
     3    29    28    1
     4    28    27    1
     5    27    26    1
     6    26    25    1
     7    25    24    1
     8    24    23    1
     9    23    22    1
    10    22    21    1
    11    21     1    1
    12     1     2   ar
    13     2     3   ar
    14     3     4   ar
    15     4     5   ar
    16     5     6    1
    17     6     7    1
    18     7     8   ar
    19     8     9   ar
    20     9    10   ar
    21    10    11   ar
    22    11    12   ar
    23    12    13    1
    24    13    14    1
    25    14    15    1
    26    15    16   ar
    27    16    17   ar
    28    17    18   ar
    29    18    19   ar
    30    19    20   ar
    31     5     1   ar
    32    20     6    1
    33    12     7   ar
    34    20    15   ar
@<TRIPOS>MOLECULE
*****
 31 34 0 0 0
SMALL
GASTEIGER

@<TRIPOS>ATOM
      1 C          -8.0677  -16.3689   24.2837 C.ar    1  UNL1        0.0376
      2 C          -8.0486  -16.3213   25.7829 C.ar    1  UNL1        0.0143
      3 C          -8.9159  -17.4337   26.2930 C.ar    1  UNL1        0.0198
      4 C          -9.4711  -18.1687   25.1093 C.ar    1  UNL1        0.0761
      5 N          -8.9469  -17.5107   23.8674 N.ar    1  UNL1       -0.3238
      6 C          -9.2488  -17.9222   22.4569 C.3     1  UNL1        0.1297
      7 C          -8.2385  -18.8238   21.8116 C.ar    1  UNL1       -0.0016
      8 C          -7.1046  -19.1322   22.7438 C.ar    1  UNL1       -0.0024
      9 C          -5.9832  -20.0203   22.2927 C.ar    1  UNL1       -0.0003
     10 C          -5.9957  -20.6000   20.9093 C.ar    1  UNL1       -0.0003
     11 C          -7.1296  -20.2917   19.9771 C.ar    1  UNL1       -0.0045
     12 C          -8.2510  -19.4035   20.4282 C.ar    1  UNL1       -0.0237
     13 C          -9.2769  -19.2248   19.3485 C.3     1  UNL1        0.0308
     14 C         -10.5436  -18.4223   19.3855 C.3     1  UNL1        0.0308
     15 C         -11.0973  -17.6003   20.5114 C.ar    1  UNL1       -0.0237
     16 C         -12.3968  -16.9547   20.1310 C.ar    1  UNL1       -0.0045
     17 C         -13.1200  -16.0865   21.1176 C.ar    1  UNL1       -0.0003
     18 C         -12.5438  -15.8639   22.4844 C.ar    1  UNL1       -0.0003
     19 C         -11.2444  -16.5095   22.8648 C.ar    1  UNL1       -0.0024
     20 C         -10.5211  -17.3776   21.8783 C.ar    1  UNL1       -0.0016
     21 C          -7.3361  -15.4381   23.3627 C.3     1  UNL1        0.0438
     22 C          -5.8828  -15.1454   23.5914 C.3     1  UNL1        0.0062
     23 C          -5.0785  -16.0148   24.5120 C.3     1  UNL1        0.0004
     24 C          -4.3179  -17.1856   23.9637 C.3     1  UNL1        0.0000
     25 C          -3.4146  -17.0052   22.7799 C.3     1  UNL1        0.0000
     26 C          -2.2999  -17.9778   22.5319 C.3     1  UNL1        0.0000
     27 C          -2.6076  -19.3635   22.0472 C.3     1  UNL1        0.0000
     28 C          -2.4185  -19.7113   20.6003 C.3     1  UNL1        0.0000
     29 C          -2.8329  -18.7401   19.5351 C.3     1  UNL1        0.0000
     30 C          -0.4078  -17.8149   19.4218 C.3     1  UNL1        0.0000
     31 C          -1.8102  -17.8519   18.8909 C.3     1  UNL1        0.0000
@<TRIPOS>BOND
     1    30    31    1
     2    31    29    1
     3    29    28    1
     4    28    27    1
     5    27    26    1
     6    26    25    1
     7    25    24    1
     8    24    23    1
     9    23    22    1
    10    22    21    1
    11    21     1    1
    12     1     2   ar
    13     2     3   ar
    14     3     4   ar
    15     4     5   ar
    16     5     6    1
    17     6     7    1
    18     7     8   ar
    19     8     9   ar
    20     9    10   ar
    21    10    11   ar
    22    11    12   ar
    23    12    13    1
    24    13    14    1
    25    14    15    1
    26    15    16   ar
    27    16    17   ar
    28    17    18   ar
    29    18    19   ar
    30    19    20   ar
    31     5     1   ar
    32    20     6    1
    33    12     7   ar
    34    20    15   ar
@<TRIPOS>MOLECULE
*****
 31 34 0 0 0
SMALL
GASTEIGER

@<TRIPOS>ATOM
      1 C          -8.6541  -17.3932   23.9281 C.ar    1  UNL1        0.0376
      2 C          -9.2181  -16.0837   24.3940 C.ar    1  UNL1        0.0143
      3 C          -8.7798  -15.0212   23.4302 C.ar    1  UNL1        0.0198
      4 C          -7.9449  -15.6740   22.3688 C.ar    1  UNL1        0.0761
      5 N          -7.8672  -17.1400   22.6765 N.ar    1  UNL1       -0.3238
      6 C          -7.1318  -18.1718   21.8735 C.3     1  UNL1        0.1297
      7 C          -5.6834  -18.3540   22.2185 C.ar    1  UNL1       -0.0016
      8 C          -5.2648  -17.4363   23.3287 C.ar    1  UNL1       -0.0024
      9 C          -3.8504  -17.4589   23.8274 C.ar    1  UNL1       -0.0003
     10 C          -2.8545  -18.3992   23.2158 C.ar    1  UNL1       -0.0003
     11 C          -3.2730  -19.3169   22.1056 C.ar    1  UNL1       -0.0045
     12 C          -4.6875  -19.2942   21.6070 C.ar    1  UNL1       -0.0237
     13 C          -4.8941  -20.2845   20.4994 C.3     1  UNL1        0.0308
     14 C          -6.1474  -20.5792   19.7298 C.3     1  UNL1        0.0308
     15 C          -7.5039  -19.9562   19.8778 C.ar    1  UNL1       -0.0237
     16 C          -8.4849  -20.5418   18.9058 C.ar    1  UNL1       -0.0045
     17 C          -9.9039  -20.0560   18.8879 C.ar    1  UNL1       -0.0003
     18 C         -10.3420  -18.9846   19.8418 C.ar    1  UNL1       -0.0003
     19 C          -9.3611  -18.3990   20.8139 C.ar    1  UNL1       -0.0024
     20 C          -7.9421  -18.8848   20.8319 C.ar    1  UNL1       -0.0016
     21 C          -8.8438  -18.7226   24.5967 C.3     1  UNL1        0.0438
     22 C          -9.2166  -19.9255   23.7818 C.3     1  UNL1        0.0062
     23 C         -10.6461  -20.3760   23.7205 C.3     1  UNL1        0.0004
     24 C         -11.6973  -19.4618   23.1646 C.3     1  UNL1        0.0000
     25 C         -12.4353  -18.5261   24.0754 C.3     1  UNL1        0.0000
     26 C         -13.3015  -17.4456   23.4988 C.3     1  UNL1        0.0000
     27 C         -12.6843  -16.1655   23.0191 C.3     1  UNL1        0.0000
     28 C         -11.8773  -16.1496   21.7547 C.3     1  UNL1        0.0000
     29 C         -12.5617  -16.2802   20.4264 C.3     1  UNL1        0.0000
     30 C         -10.5467  -15.1240   19.2634 C.3     1  UNL1        0.0000
     31 C         -11.9332  -15.6927   19.1978 C.3     1  UNL1        0.0000
@<TRIPOS>BOND
     1    30    31    1
     2    31    29    1
     3    29    28    1
     4    28    27    1
     5    27    26    1
     6    26    25    1
     7    25    24    1
     8    24    23    1
     9    23    22    1
    10    22    21    1
    11    21     1    1
    12     1     2   ar
    13     2     3   ar
    14     3     4   ar
    15     4     5   ar
    16     5     6    1
    17     6     7    1
    18     7     8   ar
    19     8     9   ar
    20     9    10   ar
    21    10    11   ar
    22    11    12   ar
    23    12    13    1
    24    13    14    1
    25    14    15    1
    26    15    16   ar
    27    16    17   ar
    28    17    18   ar
    29    18    19   ar
    30    19    20   ar
    31     5     1   ar
    32    20     6    1
    33    12     7   ar
    34    20    15   ar
@<TRIPOS>MOLECULE
*****
 31 34 0 0 0
SMALL
GASTEIGER

@<TRIPOS>ATOM
      1 C          -8.6335  -17.5295   23.8663 C.ar    1  UNL1        0.0376
      2 C          -9.1898  -16.2258   24.3570 C.ar    1  UNL1        0.0143
      3 C          -8.7431  -15.1474   23.4150 C.ar    1  UNL1        0.0198
      4 C          -7.9108  -15.7845   22.3421 C.ar    1  UNL1        0.0761
      5 N          -7.8430  -17.2568   22.6210 N.ar    1  UNL1       -0.3238
      6 C          -7.1129  -18.2773   21.7990 C.3     1  UNL1        0.1297
      7 C          -7.9316  -18.9802   20.7570 C.ar    1  UNL1       -0.0016
      8 C          -9.3519  -18.4978   20.7585 C.ar    1  UNL1       -0.0024
      9 C         -10.3408  -19.0746   19.7894 C.ar    1  UNL1       -0.0003
     10 C          -9.9095  -20.1337   18.8187 C.ar    1  UNL1       -0.0003
     11 C          -8.4892  -20.6161   18.8172 C.ar    1  UNL1       -0.0045
     12 C          -7.5002  -20.0394   19.7864 C.ar    1  UNL1       -0.0237
     13 C          -6.1437  -20.6571   19.6180 C.3     1  UNL1        0.0308
     14 C          -4.8836  -20.3684   20.3787 C.3     1  UNL1        0.0308
     15 C          -4.6687  -19.3905   21.4956 C.ar    1  UNL1       -0.0237
     16 C          -3.2493  -19.4153   21.9802 C.ar    1  UNL1       -0.0045
     17 C          -2.8221  -18.5095   23.0970 C.ar    1  UNL1       -0.0003
     18 C          -3.8143  -17.5789   23.7291 C.ar    1  UNL1       -0.0003
     19 C          -5.2336  -17.5541   23.2445 C.ar    1  UNL1       -0.0024
     20 C          -5.6608  -18.4598   22.1278 C.ar    1  UNL1       -0.0016
     21 C          -8.8327  -18.8705   24.5083 C.3     1  UNL1        0.0438
     22 C          -9.2628  -20.0432   23.6778 C.3     1  UNL1        0.0062
     23 C         -10.7169  -20.3969   23.5757 C.3     1  UNL1        0.0004
     24 C         -11.6930  -19.4036   23.0183 C.3     1  UNL1        0.0000
     25 C         -12.4637  -18.5093   23.9436 C.3     1  UNL1        0.0000
     26 C         -13.2509  -17.3581   23.3911 C.3     1  UNL1        0.0000
     27 C         -12.5616  -16.0671   23.0626 C.3     1  UNL1        0.0000
     28 C         -11.8371  -15.9145   21.7579 C.3     1  UNL1        0.0000
     29 C         -12.4881  -16.3596   20.4820 C.3     1  UNL1        0.0000
     30 C         -10.6909  -15.1132   19.0796 C.3     1  UNL1        0.0000
     31 C         -12.0153  -15.8121   19.1681 C.3     1  UNL1        0.0000
@<TRIPOS>BOND
     1    30    31    1
     2    31    29    1
     3    29    28    1
     4    28    27    1
     5    27    26    1
     6    26    25    1
     7    25    24    1
     8    24    23    1
     9    23    22    1
    10    22    21    1
    11    21     1    1
    12     1     2   ar
    13     2     3   ar
    14     3     4   ar
    15     4     5   ar
    16     5     6    1
    17     6     7    1
    18     7     8   ar
    19     8     9   ar
    20     9    10   ar
    21    10    11   ar
    22    11    12   ar
    23    12    13    1
    24    13    14    1
    25    14    15    1
    26    15    16   ar
    27    16    17   ar
    28    17    18   ar
    29    18    19   ar
    30    19    20   ar
    31     5     1   ar
    32    20     6    1
    33    12     7   ar
    34    20    15   ar
@<TRIPOS>MOLECULE
*****
 31 34 0 0 0
SMALL
GASTEIGER

@<TRIPOS>ATOM
      1 C           5.4060   -2.8478   19.5563 C.ar    1  UNL1        0.0376
      2 C           5.3914   -3.9489   18.5377 C.ar    1  UNL1        0.0143
      3 C           4.3308   -4.9328   18.9339 C.ar    1  UNL1        0.0198
      4 C           3.6899   -4.4399   20.1973 C.ar    1  UNL1        0.0761
      5 N           4.3544   -3.1513   20.5820 N.ar    1  UNL1       -0.3238
      6 C           4.0252   -2.3133   21.7817 C.3     1  UNL1        0.1297
      7 C           4.8130   -2.6147   23.0221 C.ar    1  UNL1       -0.0016
      8 C           5.7941   -3.7257   22.7918 C.ar    1  UNL1       -0.0024
      9 C           6.6841   -4.1840   23.9089 C.ar    1  UNL1       -0.0003
     10 C           6.5929   -3.5312   25.2563 C.ar    1  UNL1       -0.0003
     11 C           5.6119   -2.4202   25.4867 C.ar    1  UNL1       -0.0045
     12 C           4.7219   -1.9620   24.3696 C.ar    1  UNL1       -0.0237
     13 C           3.8205   -0.8466   24.8094 C.3     1  UNL1        0.0308
     14 C           2.7876   -0.1084   24.0105 C.3     1  UNL1        0.0308
     15 C           2.4010   -0.3035   22.5743 C.ar    1  UNL1       -0.0237
     16 C           1.3170    0.6488   22.1645 C.ar    1  UNL1       -0.0045
     17 C           0.7837    0.6199   20.7627 C.ar    1  UNL1       -0.0003
     18 C           1.3345   -0.3613   19.7709 C.ar    1  UNL1       -0.0003
     19 C           2.4185   -1.3136   20.1807 C.ar    1  UNL1       -0.0024
     20 C           2.9518   -1.2847   21.5824 C.ar    1  UNL1       -0.0016
     21 C           6.3130   -1.6531   19.5501 C.3     1  UNL1        0.0438
     22 C           7.4377   -1.5602   20.5382 C.3     1  UNL1        0.0062
     23 C           7.7443   -0.2517   21.2047 C.3     1  UNL1        0.0004
     24 C           6.8821    0.2364   22.3310 C.3     1  UNL1        0.0000
     25 C           5.7414    1.1695   22.0521 C.3     1  UNL1        0.0000
     26 C           5.5964    1.7924   20.6952 C.3     1  UNL1        0.0000
     27 C           4.2408    1.9073   20.0637 C.3     1  UNL1        0.0000
     28 C           4.0915    1.7686   18.5775 C.3     1  UNL1        0.0000
     29 C           5.2532    1.3110   17.7465 C.3     1  UNL1        0.0000
     30 C           3.8475   -0.6972   16.8853 C.3     1  UNL1        0.0000
     31 C           5.1228    0.0926   16.8813 C.3     1  UNL1        0.0000
@<TRIPOS>BOND
     1    30    31    1
     2    31    29    1
     3    29    28    1
     4    28    27    1
     5    27    26    1
     6    26    25    1
     7    25    24    1
     8    24    23    1
     9    23    22    1
    10    22    21    1
    11    21     1    1
    12     1     2   ar
    13     2     3   ar
    14     3     4   ar
    15     4     5   ar
    16     5     6    1
    17     6     7    1
    18     7     8   ar
    19     8     9   ar
    20     9    10   ar
    21    10    11   ar
    22    11    12   ar
    23    12    13    1
    24    13    14    1
    25    14    15    1
    26    15    16   ar
    27    16    17   ar
    28    17    18   ar
    29    18    19   ar
    30    19    20   ar
    31     5     1   ar
    32    20     6    1
    33    12     7   ar
    34    20    15   ar
@<TRIPOS>MOLECULE
*****
 31 34 0 0 0
SMALL
GASTEIGER

@<TRIPOS>ATOM
      1 C           5.2269   -2.7668   19.4026 C.ar    1  UNL1        0.0376
      2 C           5.2313   -3.8930   18.4118 C.ar    1  UNL1        0.0143
      3 C           4.2920   -4.9515   18.9091 C.ar    1  UNL1        0.0198
      4 C           3.7071   -4.4795   20.2071 C.ar    1  UNL1        0.0761
      5 N           4.2849   -3.1293   20.5122 N.ar    1  UNL1       -0.3238
      6 C           3.9751   -2.2890   21.7155 C.3     1  UNL1        0.1297
      7 C           2.8987   -1.2606   21.5314 C.ar    1  UNL1       -0.0016
      8 C           2.3431   -1.2920   20.1385 C.ar    1  UNL1       -0.0024
      9 C           1.2528   -0.3403   19.7444 C.ar    1  UNL1       -0.0003
     10 C           0.7181    0.6429   20.7431 C.ar    1  UNL1       -0.0003
     11 C           1.2737    0.6743   22.1360 C.ar    1  UNL1       -0.0045
     12 C           2.3640   -0.2774   22.5302 C.ar    1  UNL1       -0.0237
     13 C           2.7737   -0.0799   23.9596 C.3     1  UNL1        0.0308
     14 C           3.8191   -0.8166   24.7433 C.3     1  UNL1        0.0308
     15 C           4.7132   -1.9330   24.2911 C.ar    1  UNL1       -0.0237
     16 C           5.6209   -2.3894   25.3947 C.ar    1  UNL1       -0.0045
     17 C           6.5980   -3.5010   25.1507 C.ar    1  UNL1       -0.0003
     18 C           6.6674   -4.1563   23.8032 C.ar    1  UNL1       -0.0003
     19 C           5.7597   -3.6999   22.6997 C.ar    1  UNL1       -0.0024
     20 C           4.7826   -2.5883   22.9436 C.ar    1  UNL1       -0.0016
     21 C           6.0246   -1.5005   19.3014 C.3     1  UNL1        0.0438
     22 C           6.4919   -1.0134   17.9619 C.3     1  UNL1        0.0062
     23 C           5.6439   -0.0602   17.1729 C.3     1  UNL1        0.0004
     24 C           4.3498    0.4404   17.7427 C.3     1  UNL1        0.0000
     25 C           4.2879    1.7932   18.3876 C.3     1  UNL1        0.0000
     26 C           4.1990    1.9090   19.8806 C.3     1  UNL1        0.0000
     27 C           5.4453    1.8480   20.7131 C.3     1  UNL1        0.0000
     28 C           5.3457    1.7689   22.2077 C.3     1  UNL1        0.0000
     29 C           6.4276    1.0932   22.9968 C.3     1  UNL1        0.0000
     30 C           8.2535   -0.7458   23.1824 C.3     1  UNL1        0.0000
     31 C           7.2695    0.0293   22.3572 C.3     1  UNL1        0.0000
@<TRIPOS>BOND
     1    30    31    1
     2    31    29    1
     3    29    28    1
     4    28    27    1
     5    27    26    1
     6    26    25    1
     7    25    24    1
     8    24    23    1
     9    23    22    1
    10    22    21    1
    11    21     1    1
    12     1     2   ar
    13     2     3   ar
    14     3     4   ar
    15     4     5   ar
    16     5     6    1
    17     6     7    1
    18     7     8   ar
    19     8     9   ar
    20     9    10   ar
    21    10    11   ar
    22    11    12   ar
    23    12    13    1
    24    13    14    1
    25    14    15    1
    26    15    16   ar
    27    16    17   ar
    28    17    18   ar
    29    18    19   ar
    30    19    20   ar
    31     5     1   ar
    32    20     6    1
    33    12     7   ar
    34    20    15   ar
@<TRIPOS>MOLECULE
*****
 31 34 0 0 0
SMALL
GASTEIGER

@<TRIPOS>ATOM
      1 C           5.2952   -2.6479   19.4386 C.ar    1  UNL1        0.0376
      2 C           5.3261   -3.7482   18.4196 C.ar    1  UNL1        0.0143
      3 C           4.3743   -4.8188   18.8647 C.ar    1  UNL1        0.0198
      4 C           3.7553   -4.3802   20.1586 C.ar    1  UNL1        0.0761
      5 N           4.3245   -3.0384   20.5134 N.ar    1  UNL1       -0.3238
      6 C           3.9829   -2.2293   21.7293 C.3     1  UNL1        0.1297
      7 C           4.7776   -2.5409   22.9628 C.ar    1  UNL1       -0.0016
      8 C           5.7771   -3.6304   22.7100 C.ar    1  UNL1       -0.0024
      9 C           6.6765   -4.0947   23.8170 C.ar    1  UNL1       -0.0003
     10 C           6.5763   -3.4695   25.1768 C.ar    1  UNL1       -0.0003
     11 C           5.5768   -2.3800   25.4296 C.ar    1  UNL1       -0.0045
     12 C           4.6775   -1.9157   24.3226 C.ar    1  UNL1       -0.0237
     13 C           3.7578   -0.8245   24.7847 C.3     1  UNL1        0.0308
     14 C           2.7113   -0.0889   24.0014 C.3     1  UNL1        0.0308
     15 C           2.3258   -0.2630   22.5622 C.ar    1  UNL1       -0.0237
     16 C           1.2251    0.6783   22.1720 C.ar    1  UNL1       -0.0045
     17 C           0.6902    0.6671   20.7706 C.ar    1  UNL1       -0.0003
     18 C           1.2561   -0.2854   19.7595 C.ar    1  UNL1       -0.0003
     19 C           2.3569   -1.2267   20.1497 C.ar    1  UNL1       -0.0024
     20 C           2.8917   -1.2156   21.5510 C.ar    1  UNL1       -0.0016
     21 C           6.0949   -1.3796   19.3911 C.3     1  UNL1        0.0438
     22 C           6.5278   -0.8150   18.0705 C.3     1  UNL1        0.0062
     23 C           5.5507   -0.0550   17.2233 C.3     1  UNL1        0.0004
     24 C           4.2829    0.4703   17.8289 C.3     1  UNL1        0.0000
     25 C           4.2500    1.8472   18.4231 C.3     1  UNL1        0.0000
     26 C           4.2173    2.0206   19.9127 C.3     1  UNL1        0.0000
     27 C           5.4945    1.9958   20.6988 C.3     1  UNL1        0.0000
     28 C           5.5524    1.2751   22.0132 C.3     1  UNL1        0.0000
     29 C           6.7952    0.5339   22.4080 C.3     1  UNL1        0.0000
     30 C           8.4041   -0.3048   24.2676 C.3     1  UNL1        0.0000
     31 C           7.2813    0.5865   23.8260 C.3     1  UNL1        0.0000
@<TRIPOS>BOND
     1    30    31    1
     2    31    29    1
     3    29    28    1
     4    28    27    1
     5    27    26    1
     6    26    25    1
     7    25    24    1
     8    24    23    1
     9    23    22    1
    10    22    21    1
    11    21     1    1
    12     1     2   ar
    13     2     3   ar
    14     3     4   ar
    15     4     5   ar
    16     5     6    1
    17     6     7    1
    18     7     8   ar
    19     8     9   ar
    20     9    10   ar
    21    10    11   ar
    22    11    12   ar
    23    12    13    1
    24    13    14    1
    25    14    15    1
    26    15    16   ar
    27    16    17   ar
    28    17    18   ar
    29    18    19   ar
    30    19    20   ar
    31     5     1   ar
    32    20     6    1
    33    12     7   ar
    34    20    15   ar
