@<TRIPOS>MOLECULE
*****
 44 49 0 0 0
SMALL
GASTEIGER

@<TRIPOS>ATOM
      1 C           3.1301    0.1894   20.4106 C.ar    1  UNL1        0.0115
      2 C           3.3111   -0.3189   19.0110 C.ar    1  UNL1        0.0579
      3 CL          2.9299    0.5438   17.8446 Cl      1  UNL1       -0.0822
      4 C           3.8734   -1.6898   18.7779 C.ar    1  UNL1        0.0174
      5 C           4.2546   -2.5524   19.9443 C.ar    1  UNL1        0.0716
      6 C           4.0736   -2.0441   21.3439 C.ar    1  UNL1        0.0854
      7 N           4.3572   -2.6622   22.6808 N.2     1  UNL1       -0.2455
      8 C           3.9702   -1.6734   23.7403 C.2     1  UNL1        0.0774
      9 C           4.0264   -1.7335   25.2380 C.2     1  UNL1        0.0164
     10 C           3.5597   -0.5643   26.0535 C.2     1  UNL1       -0.0007
     11 C           3.0369    0.6651   25.3713 C.2     1  UNL1       -0.0233
     12 C           2.9808    0.7252   23.8736 C.3     1  UNL1        0.0536
     13 C           3.4474   -0.4440   23.0581 C.2     1  UNL1        0.0013
     14 C           3.5113   -0.6732   21.5771 C.ar    1  UNL1        0.0164
     15 C           0.1639    0.5751   20.6398 C.3     1  UNL1        0.0326
     16 C           1.0847    1.7532   20.7583 C.ar    1  UNL1       -0.0055
     17 C           2.5678    1.5605   20.6438 C.ar    1  UNL1       -0.0017
     18 C           3.4887    2.7386   20.7623 C.ar    1  UNL1       -0.0002
     19 C           2.9264    4.1095   20.9954 C.ar    1  UNL1        0.0015
     20 C           1.4432    4.3023   21.1100 C.ar    1  UNL1        0.0174
     21 C           0.5224    3.1241   20.9914 C.ar    1  UNL1        0.0671
     22 N          -0.9608    3.3169   21.1060 N.ar    1  UNL1       -0.2272
     23 C          -1.7915    3.4958   19.8699 C.ar    1  UNL1        0.2697
     24 O          -1.1391    3.4818   18.5193 O.2     1  UNL1       -0.2664
     25 C          -3.2747    3.6885   19.9845 C.ar    1  UNL1        0.0797
     26 C          -3.9271    3.7025   21.3351 C.ar    1  UNL1        0.0835
     27 C          -5.4102    3.8953   21.4497 C.ar    1  UNL1        0.0741
     28 CL         -6.2409    4.0741   20.2136 Cl      1  UNL1       -0.0807
     29 C          -6.0626    3.9093   22.8004 C.ar    1  UNL1        0.0144
     30 C          -5.2318    3.7304   24.0364 C.ar    1  UNL1        0.0200
     31 C          -3.7486    3.5376   23.9219 C.ar    1  UNL1        0.0844
     32 N          -3.0963    3.5237   22.5712 N.ar    1  UNL1       -0.2576
     33 C          -1.6132    3.3309   22.4566 C.ar    1  UNL1        0.3416
     34 O          -0.7824    3.1521   23.6927 O.2     1  UNL1       -0.2455
     35 C           4.8169   -3.9234   19.7111 C.2     1  UNL1        0.2442
     36 N           4.2469   -4.7940   18.6309 N.am    1  UNL1       -0.3253
     37 O           5.9493   -4.4237   20.5583 O.2     1  UNL1       -0.2703
     38 H           3.5037   -4.4657   18.0749 H       1  UNL1        0.1453
     39 H           4.6160   -5.6938   18.4779 H       1  UNL1        0.1453
     40 C           3.6159   -0.6244   27.5513 C.3     1  UNL1        0.1069
     41 C           2.5838    0.4609   27.6336 C.3     1  UNL1        0.0339
     42 C           4.6480   -1.7097   27.4690 C.3     1  UNL1        0.0339
     43 O           3.6721   -0.6845   29.0490 O.3     1  UNL1       -0.3827
     44 H           3.0549   -0.0357   29.4220 H       1  UNL1        0.2107
@<TRIPOS>BOND
     1    15    16    1
     2    16    17   ar
     3    17     1    1
     4     1     2   ar
     5     2     3    1
     6     2     4   ar
     7     4     5   ar
     8     5    35    1
     9    35    36   am
    10    35    37    2
    11     5     6   ar
    12     6     7    2
    13     7     8    1
    14     8     9    2
    15     9    10    1
    16    10    40    1
    17    40    41    1
    18    40    42    1
    19    40    43    1
    20    10    11    2
    21    11    12    1
    22    12    13    1
    23    13    14    2
    24    17    18   ar
    25    18    19   ar
    26    19    20   ar
    27    20    21   ar
    28    21    22    1
    29    22    23   ar
    30    23    24    2
    31    23    25   ar
    32    25    26   ar
    33    26    27   ar
    34    27    28    1
    35    27    29   ar
    36    29    30   ar
    37    30    31   ar
    38    31    32   ar
    39    32    33   ar
    40    33    34    2
    41    21    16   ar
    42    33    22   ar
    43    14     1   ar
    44    32    26   ar
    45    14     6   ar
    46    13     8    1
    47    36    38    1
    48    36    39    1
    49    43    44    1
@<TRIPOS>MOLECULE
*****
 44 49 0 0 0
SMALL
GASTEIGER

@<TRIPOS>ATOM
      1 C           3.1383    0.1958   20.3745 C.ar    1  UNL1        0.0115
      2 C           3.3355   -0.3134   18.9774 C.ar    1  UNL1        0.0579
      3 CL          2.9605    0.5455   17.8061 Cl      1  UNL1       -0.0822
      4 C           3.9076   -1.6815   18.7515 C.ar    1  UNL1        0.0174
      5 C           4.2825   -2.5404   19.9227 C.ar    1  UNL1        0.0716
      6 C           4.0853   -2.0312   21.3198 C.ar    1  UNL1        0.0854
      7 N           4.3597   -2.6459   22.6603 N.2     1  UNL1       -0.2455
      8 C           3.9571   -1.6577   23.7146 C.2     1  UNL1        0.0774
      9 C           3.9994   -1.7155   25.2128 C.2     1  UNL1        0.0164
     10 C           3.5185   -0.5478   26.0222 C.2     1  UNL1       -0.0007
     11 C           2.9954    0.6776   25.3334 C.2     1  UNL1       -0.0233
     12 C           2.9531    0.7354   23.8351 C.3     1  UNL1        0.0536
     13 C           3.4340   -0.4323   23.0257 C.2     1  UNL1        0.0013
     14 C           3.5132   -0.6631   21.5457 C.ar    1  UNL1        0.0164
     15 C           0.1654    0.5756   20.5057 C.3     1  UNL1        0.0326
     16 C           1.0797    1.7538   20.6659 C.ar    1  UNL1       -0.0055
     17 C           2.5661    1.5640   20.6003 C.ar    1  UNL1       -0.0017
     18 C           3.4806    2.7422   20.7606 C.ar    1  UNL1       -0.0002
     19 C           2.9084    4.1102   20.9864 C.ar    1  UNL1        0.0015
     20 C           1.4219    4.3001   21.0520 C.ar    1  UNL1        0.0174
     21 C           0.5076    3.1219   20.8917 C.ar    1  UNL1        0.0671
     22 N          -0.9789    3.3117   20.9573 N.ar    1  UNL1       -0.2272
     23 C          -1.6754    3.3256   22.2858 C.ar    1  UNL1        0.2697
     24 O          -0.8853    3.1496   23.5486 O.2     1  UNL1       -0.2664
     25 C          -3.1619    3.5154   22.3513 C.ar    1  UNL1        0.0797
     26 C          -3.9519    3.6914   21.0885 C.ar    1  UNL1        0.0835
     27 C          -5.4384    3.8812   21.1541 C.ar    1  UNL1        0.0741
     28 CL         -6.1348    3.8951   22.4825 Cl      1  UNL1       -0.0807
     29 C          -6.2284    4.0572   19.8912 C.ar    1  UNL1        0.0144
     30 C          -5.5320    4.0433   18.5627 C.ar    1  UNL1        0.0200
     31 C          -4.0455    3.8535   18.4971 C.ar    1  UNL1        0.0844
     32 N          -3.2555    3.6775   19.7601 N.ar    1  UNL1       -0.2576
     33 C          -1.7690    3.4877   19.6945 C.ar    1  UNL1        0.3416
     34 O          -1.0726    3.4738   18.3659 O.2     1  UNL1       -0.2455
     35 C           4.8546   -3.9085   19.6968 C.2     1  UNL1        0.2442
     36 N           4.2623   -4.8057   18.6509 N.am    1  UNL1       -0.3253
     37 O           6.0190   -4.3793   20.5170 O.2     1  UNL1       -0.2703
     38 H           3.4981   -4.4967   18.1126 H       1  UNL1        0.1453
     39 H           4.6378   -5.7036   18.5027 H       1  UNL1        0.1453
     40 C           3.5608   -0.6056   27.5206 C.3     1  UNL1        0.1069
     41 C           2.5098    0.4623   27.5914 C.3     1  UNL1        0.0339
     42 C           4.6117   -1.6734   27.4498 C.3     1  UNL1        0.0339
     43 O           3.6030   -0.6633   29.0188 O.3     1  UNL1       -0.3827
     44 H           2.9714   -0.0247   29.3850 H       1  UNL1        0.2107
@<TRIPOS>BOND
     1    15    16    1
     2    16    17   ar
     3    17     1    1
     4     1     2   ar
     5     2     3    1
     6     2     4   ar
     7     4     5   ar
     8     5    35    1
     9    35    36   am
    10    35    37    2
    11     5     6   ar
    12     6     7    2
    13     7     8    1
    14     8     9    2
    15     9    10    1
    16    10    40    1
    17    40    41    1
    18    40    42    1
    19    40    43    1
    20    10    11    2
    21    11    12    1
    22    12    13    1
    23    13    14    2
    24    17    18   ar
    25    18    19   ar
    26    19    20   ar
    27    20    21   ar
    28    21    22    1
    29    22    23   ar
    30    23    24    2
    31    23    25   ar
    32    25    26   ar
    33    26    27   ar
    34    27    28    1
    35    27    29   ar
    36    29    30   ar
    37    30    31   ar
    38    31    32   ar
    39    32    33   ar
    40    33    34    2
    41    21    16   ar
    42    33    22   ar
    43    14     1   ar
    44    32    26   ar
    45    14     6   ar
    46    13     8    1
    47    36    38    1
    48    36    39    1
    49    43    44    1
@<TRIPOS>MOLECULE
*****
 44 49 0 0 0
SMALL
GASTEIGER

@<TRIPOS>ATOM
      1 C           5.5786    0.9082   34.9094 C.ar    1  UNL1        0.0115
      2 C           5.9312    0.4676   36.2992 C.ar    1  UNL1        0.0579
      3 CL          7.2645   -0.1640   36.5702 Cl      1  UNL1       -0.0822
      4 C           4.9505    0.6587   37.4180 C.ar    1  UNL1        0.0174
      5 C           3.6173    1.2904   37.1470 C.ar    1  UNL1        0.0716
      6 C           3.2647    1.7309   35.7572 C.ar    1  UNL1        0.0854
      7 N           2.0360    2.3787   35.1909 N.2     1  UNL1       -0.2455
      8 C           2.2573    2.5880   33.7221 C.2     1  UNL1        0.0774
      9 C           1.3918    3.1836   32.6516 C.2     1  UNL1        0.0164
     10 C           1.8919    3.2608   31.2395 C.2     1  UNL1       -0.0007
     11 C           3.2574    2.7424   30.8980 C.2     1  UNL1       -0.0233
     12 C           4.1228    2.1467   31.9686 C.3     1  UNL1        0.0536
     13 C           3.6228    2.0695   33.3806 C.2     1  UNL1        0.0013
     14 C           4.2454    1.5398   34.6384 C.ar    1  UNL1        0.0164
     15 C           5.5137   -1.6036   33.2704 C.3     1  UNL1        0.0326
     16 C           6.5269   -0.5388   32.9711 C.ar    1  UNL1       -0.0055
     17 C           6.5594    0.7171   33.7906 C.ar    1  UNL1       -0.0017
     18 C           7.5726    1.7820   33.4913 C.ar    1  UNL1       -0.0002
     19 C           8.5533    1.5908   32.3725 C.ar    1  UNL1        0.0015
     20 C           8.5208    0.3348   31.5531 C.ar    1  UNL1        0.0174
     21 C           7.5076   -0.7300   31.8523 C.ar    1  UNL1        0.0671
     22 N           7.4751   -1.9859   31.0329 N.ar    1  UNL1       -0.2272
     23 C           6.5671   -2.0816   29.8427 C.ar    1  UNL1        0.2697
     24 O           5.6917   -0.9214   29.4721 O.2     1  UNL1       -0.2664
     25 C           6.5346   -3.3376   29.0232 C.ar    1  UNL1        0.0797
     26 C           7.4101   -4.4978   29.3939 C.ar    1  UNL1        0.0835
     27 C           7.3775   -5.7537   28.5744 C.ar    1  UNL1        0.0741
     28 CL          6.4696   -5.8494   27.3843 Cl      1  UNL1       -0.0807
     29 C           8.2531   -6.9140   28.9451 C.ar    1  UNL1        0.0144
     30 C           9.1610   -6.8183   30.1353 C.ar    1  UNL1        0.0200
     31 C           9.1935   -5.5623   30.9548 C.ar    1  UNL1        0.0844
     32 N           8.3180   -4.4021   30.5840 N.ar    1  UNL1       -0.2576
     33 C           8.3505   -3.1462   31.4035 C.ar    1  UNL1        0.3416
     34 O           9.2585   -3.0505   32.5937 O.2     1  UNL1       -0.2455
     35 C           2.6366    1.4815   38.2658 C.2     1  UNL1        0.2442
     36 N           1.4954    2.4418   38.1070 N.am    1  UNL1       -0.3253
     37 O           2.7971    0.7121   39.5435 O.2     1  UNL1       -0.2703
     38 H           1.3900    2.9467   37.2684 H       1  UNL1        0.1453
     39 H           0.8517    2.5672   38.8413 H       1  UNL1        0.1453
     40 C           1.0264    3.8565   30.1689 C.3     1  UNL1        0.1069
     41 C           1.4709    2.7877   29.2149 C.3     1  UNL1        0.0339
     42 C           0.5820    4.9253   31.1228 C.3     1  UNL1        0.0339
     43 O           0.1610    4.4522   29.0983 O.3     1  UNL1       -0.3827
     44 H           0.2454    3.9290   28.2859 H       1  UNL1        0.2107
@<TRIPOS>BOND
     1    15    16    1
     2    16    17   ar
     3    17     1    1
     4     1     2   ar
     5     2     3    1
     6     2     4   ar
     7     4     5   ar
     8     5    35    1
     9    35    36   am
    10    35    37    2
    11     5     6   ar
    12     6     7    2
    13     7     8    1
    14     8     9    2
    15     9    10    1
    16    10    40    1
    17    40    41    1
    18    40    42    1
    19    40    43    1
    20    10    11    2
    21    11    12    1
    22    12    13    1
    23    13    14    2
    24    17    18   ar
    25    18    19   ar
    26    19    20   ar
    27    20    21   ar
    28    21    22    1
    29    22    23   ar
    30    23    24    2
    31    23    25   ar
    32    25    26   ar
    33    26    27   ar
    34    27    28    1
    35    27    29   ar
    36    29    30   ar
    37    30    31   ar
    38    31    32   ar
    39    32    33   ar
    40    33    34    2
    41    21    16   ar
    42    33    22   ar
    43    14     1   ar
    44    32    26   ar
    45    14     6   ar
    46    13     8    1
    47    36    38    1
    48    36    39    1
    49    43    44    1
@<TRIPOS>MOLECULE
*****
 44 49 0 0 0
SMALL
GASTEIGER

@<TRIPOS>ATOM
      1 C           3.5969    1.0599   22.5660 C.ar    1  UNL1        0.0115
      2 C           3.6436    1.2751   21.0822 C.ar    1  UNL1        0.0579
      3 CL          4.9330    1.0914   20.3379 Cl      1  UNL1       -0.0822
      4 C           2.4010    1.6740   20.3427 C.ar    1  UNL1        0.0174
      5 C           1.1117    1.8576   21.0870 C.ar    1  UNL1        0.0716
      6 C           1.0650    1.6424   22.5707 C.ar    1  UNL1        0.0854
      7 N          -0.0526    1.7484   23.5656 N.2     1  UNL1       -0.2455
      8 C           0.4993    1.4150   24.9200 C.2     1  UNL1        0.0774
      9 C          -0.1380    1.3552   26.2765 C.2     1  UNL1        0.0164
     10 C           0.6835    0.9835   27.4753 C.2     1  UNL1       -0.0007
     11 C           2.1422    0.6715   27.3174 C.2     1  UNL1       -0.0233
     12 C           2.7794    0.7313   25.9609 C.3     1  UNL1        0.0536
     13 C           1.9580    1.1030   24.7621 C.2     1  UNL1        0.0013
     14 C           2.3076    1.2436   23.3102 C.ar    1  UNL1        0.0164
     15 C           4.4387   -1.8185   22.6415 C.3     1  UNL1        0.0326
     16 C           5.2604   -0.7781   23.3432 C.ar    1  UNL1       -0.0055
     17 C           4.8395    0.6611   23.3055 C.ar    1  UNL1       -0.0017
     18 C           5.6612    1.7015   24.0072 C.ar    1  UNL1       -0.0002
     19 C           6.9038    1.3026   24.7466 C.ar    1  UNL1        0.0015
     20 C           7.3247   -0.1367   24.7844 C.ar    1  UNL1        0.0174
     21 C           6.5030   -1.1770   24.0826 C.ar    1  UNL1        0.0671
     22 N           6.9239   -2.6163   24.1204 N.ar    1  UNL1       -0.2272
     23 C           7.6623   -3.2125   22.9587 C.ar    1  UNL1        0.2697
     24 O           7.9797   -2.3694   21.7594 O.2     1  UNL1       -0.2664
     25 C           8.0832   -4.6517   22.9965 C.ar    1  UNL1        0.0797
     26 C           7.7657   -5.4948   24.1958 C.ar    1  UNL1        0.0835
     27 C           8.1866   -6.9340   24.2335 C.ar    1  UNL1        0.0741
     28 CL          8.9249   -7.5301   23.0719 Cl      1  UNL1       -0.0807
     29 C           7.8691   -7.7770   25.4330 C.ar    1  UNL1        0.0144
     30 C           7.1308   -7.1809   26.5946 C.ar    1  UNL1        0.0200
     31 C           6.7099   -5.7416   26.5569 C.ar    1  UNL1        0.0844
     32 N           7.0274   -4.8986   25.3574 N.ar    1  UNL1       -0.2576
     33 C           6.6065   -3.4594   25.3197 C.ar    1  UNL1        0.3416
     34 O           5.8681   -2.8632   26.4814 O.2     1  UNL1       -0.2455
     35 C          -0.1309    2.2565   20.3474 C.2     1  UNL1        0.2442
     36 N          -1.4030    2.5101   21.1005 N.am    1  UNL1       -0.3253
     37 O          -0.1013    2.4018   18.8547 O.2     1  UNL1       -0.2703
     38 H          -1.4225    2.4147   22.0802 H       1  UNL1        0.1453
     39 H          -2.2186    2.7718   20.6152 H       1  UNL1        0.1453
     40 C           0.0462    0.9237   28.8319 C.3     1  UNL1        0.1069
     41 C           0.8864    2.0835   29.2777 C.3     1  UNL1        0.0339
     42 C          -0.7939   -0.2362   28.3861 C.3     1  UNL1        0.0339
     43 O          -0.5910    0.8638   30.1885 O.3     1  UNL1       -0.3827
     44 H          -0.2161    1.5581   30.7527 H       1  UNL1        0.2107
@<TRIPOS>BOND
     1    15    16    1
     2    16    17   ar
     3    17     1    1
     4     1     2   ar
     5     2     3    1
     6     2     4   ar
     7     4     5   ar
     8     5    35    1
     9    35    36   am
    10    35    37    2
    11     5     6   ar
    12     6     7    2
    13     7     8    1
    14     8     9    2
    15     9    10    1
    16    10    40    1
    17    40    41    1
    18    40    42    1
    19    40    43    1
    20    10    11    2
    21    11    12    1
    22    12    13    1
    23    13    14    2
    24    17    18   ar
    25    18    19   ar
    26    19    20   ar
    27    20    21   ar
    28    21    22    1
    29    22    23   ar
    30    23    24    2
    31    23    25   ar
    32    25    26   ar
    33    26    27   ar
    34    27    28    1
    35    27    29   ar
    36    29    30   ar
    37    30    31   ar
    38    31    32   ar
    39    32    33   ar
    40    33    34    2
    41    21    16   ar
    42    33    22   ar
    43    14     1   ar
    44    32    26   ar
    45    14     6   ar
    46    13     8    1
    47    36    38    1
    48    36    39    1
    49    43    44    1
@<TRIPOS>MOLECULE
*****
 44 49 0 0 0
SMALL
GASTEIGER

@<TRIPOS>ATOM
      1 C           3.5555    1.3735   23.9533 C.ar    1  UNL1        0.0115
      2 C           2.7673    2.5019   24.5495 C.ar    1  UNL1        0.0579
      3 CL          3.3173    3.2662   25.7172 Cl      1  UNL1       -0.0822
      4 C           1.4290    2.8660   23.9780 C.ar    1  UNL1        0.0174
      5 C           0.8790    2.1017   22.8104 C.ar    1  UNL1        0.0716
      6 C           1.6673    0.9733   22.2142 C.ar    1  UNL1        0.0854
      7 N           1.3846    0.0466   21.0691 N.2     1  UNL1       -0.2455
      8 C           2.5482   -0.8903   20.9328 C.2     1  UNL1        0.0774
      9 C           2.8248   -2.0150   19.9798 C.2     1  UNL1        0.0164
     10 C           4.1033   -2.7921   20.0877 C.2     1  UNL1       -0.0007
     11 C           5.1051   -2.4443   21.1486 C.2     1  UNL1       -0.0233
     12 C           4.8284   -1.3195   22.1016 C.3     1  UNL1        0.0536
     13 C           3.5500   -0.5425   21.9937 C.2     1  UNL1        0.0013
     14 C           3.0056    0.6092   22.7856 C.ar    1  UNL1        0.0164
     15 C           3.7404   -0.6193   26.1880 C.3     1  UNL1        0.0326
     16 C           4.9862    0.0130   25.6421 C.ar    1  UNL1       -0.0055
     17 C           4.8938    1.0094   24.5248 C.ar    1  UNL1       -0.0017
     18 C           6.1396    1.6419   23.9788 C.ar    1  UNL1       -0.0002
     19 C           7.4778    1.2778   24.5503 C.ar    1  UNL1        0.0015
     20 C           7.5702    0.2813   25.6677 C.ar    1  UNL1        0.0174
     21 C           6.3244   -0.3511   26.2136 C.ar    1  UNL1        0.0671
     22 N           6.4168   -1.3475   27.3310 N.ar    1  UNL1       -0.2272
     23 C           6.6353   -2.7996   27.0248 C.ar    1  UNL1        0.2697
     24 O           6.7615   -3.2552   25.6013 O.2     1  UNL1       -0.2664
     25 C           6.7277   -3.7960   28.1422 C.ar    1  UNL1        0.0797
     26 C           6.6016   -3.3404   29.5658 C.ar    1  UNL1        0.0835
     27 C           6.6940   -4.3368   30.6831 C.ar    1  UNL1        0.0741
     28 CL          6.9125   -5.7889   30.3770 Cl      1  UNL1       -0.0807
     29 C           6.5678   -3.8812   32.1067 C.ar    1  UNL1        0.0144
     30 C           6.3493   -2.4291   32.4129 C.ar    1  UNL1        0.0200
     31 C           6.2569   -1.4327   31.2955 C.ar    1  UNL1        0.0844
     32 N           6.3831   -1.8884   29.8719 N.ar    1  UNL1       -0.2576
     33 C           6.2907   -0.8919   28.7545 C.ar    1  UNL1        0.3416
     34 O           6.0721    0.5602   29.0607 O.2     1  UNL1       -0.2455
     35 C          -0.4592    2.4658   22.2390 C.2     1  UNL1        0.2442
     36 N          -0.8075    2.0711   20.8345 N.am    1  UNL1       -0.3253
     37 O          -1.4492    3.2247   23.0722 O.2     1  UNL1       -0.2703
     38 H          -0.1577    1.5731   20.2876 H       1  UNL1        0.1453
     39 H          -1.6858    2.3101   20.4594 H       1  UNL1        0.1453
     40 C           4.3800   -3.9169   19.1346 C.3     1  UNL1        0.1069
     41 C           3.5370   -4.8331   19.9711 C.3     1  UNL1        0.0339
     42 C           5.2231   -3.0007   18.2981 C.3     1  UNL1        0.0339
     43 O           4.6568   -5.0416   18.1816 O.3     1  UNL1       -0.3827
     44 H           4.2024   -5.8427   18.4861 H       1  UNL1        0.2107
@<TRIPOS>BOND
     1    15    16    1
     2    16    17   ar
     3    17     1    1
     4     1     2   ar
     5     2     3    1
     6     2     4   ar
     7     4     5   ar
     8     5    35    1
     9    35    36   am
    10    35    37    2
    11     5     6   ar
    12     6     7    2
    13     7     8    1
    14     8     9    2
    15     9    10    1
    16    10    40    1
    17    40    41    1
    18    40    42    1
    19    40    43    1
    20    10    11    2
    21    11    12    1
    22    12    13    1
    23    13    14    2
    24    17    18   ar
    25    18    19   ar
    26    19    20   ar
    27    20    21   ar
    28    21    22    1
    29    22    23   ar
    30    23    24    2
    31    23    25   ar
    32    25    26   ar
    33    26    27   ar
    34    27    28    1
    35    27    29   ar
    36    29    30   ar
    37    30    31   ar
    38    31    32   ar
    39    32    33   ar
    40    33    34    2
    41    21    16   ar
    42    33    22   ar
    43    14     1   ar
    44    32    26   ar
    45    14     6   ar
    46    13     8    1
    47    36    38    1
    48    36    39    1
    49    43    44    1
@<TRIPOS>MOLECULE
*****
 44 49 0 0 0
SMALL
GASTEIGER

@<TRIPOS>ATOM
      1 C          -0.5588    3.6546   24.1636 C.ar    1  UNL1        0.0115
      2 C          -0.7426    3.6678   25.6523 C.ar    1  UNL1        0.0579
      3 CL          0.4498    3.5599   26.5561 Cl      1  UNL1       -0.0822
      4 C          -2.1185    3.7890   26.2371 C.ar    1  UNL1        0.0174
      5 C          -3.3107    3.8969   25.3333 C.ar    1  UNL1        0.0716
      6 C          -3.1270    3.8837   23.8446 C.ar    1  UNL1        0.0854
      7 N          -4.1059    3.9732   22.7116 N.2     1  UNL1       -0.2455
      8 C          -3.3350    3.9073   21.4266 C.2     1  UNL1        0.0774
      9 C          -3.7703    3.9491   19.9918 C.2     1  UNL1        0.0164
     10 C          -2.7501    3.8607   18.8957 C.2     1  UNL1       -0.0007
     11 C          -1.2947    3.7305   19.2345 C.2     1  UNL1       -0.0233
     12 C          -0.8594    3.6887   20.6693 C.3     1  UNL1        0.0536
     13 C          -1.8796    3.7772   21.7654 C.2     1  UNL1        0.0013
     14 C          -1.7511    3.7626   23.2598 C.ar    1  UNL1        0.0164
     15 C           0.5972    0.9449   23.5975 C.3     1  UNL1        0.0326
     16 C           1.3952    2.1786   23.2958 C.ar    1  UNL1       -0.0055
     17 C           0.8172    3.5335   23.5788 C.ar    1  UNL1       -0.0017
     18 C           1.6152    4.7673   23.2770 C.ar    1  UNL1       -0.0002
     19 C           2.9911    4.6461   22.6922 C.ar    1  UNL1        0.0015
     20 C           3.5691    3.2912   22.4092 C.ar    1  UNL1        0.0174
     21 C           2.7711    2.0574   22.7110 C.ar    1  UNL1        0.0671
     22 N           3.3491    0.7025   22.4279 N.ar    1  UNL1       -0.2272
     23 C           4.2473    0.0452   23.4336 C.ar    1  UNL1        0.2697
     24 O           4.5674    0.7430   24.7223 O.2     1  UNL1       -0.2664
     25 C           4.8253   -1.3097   23.1506 C.ar    1  UNL1        0.0797
     26 C           4.5051   -2.0074   21.8619 C.ar    1  UNL1        0.0835
     27 C           5.0831   -3.3623   21.5789 C.ar    1  UNL1        0.0741
     28 CL          5.9812   -4.0195   22.5845 Cl      1  UNL1       -0.0807
     29 C           4.7629   -4.0600   20.2901 C.ar    1  UNL1        0.0144
     30 C           3.8648   -3.4028   19.2845 C.ar    1  UNL1        0.0200
     31 C           3.2868   -2.0478   19.5675 C.ar    1  UNL1        0.0844
     32 N           3.6070   -1.3502   20.8562 N.ar    1  UNL1       -0.2576
     33 C           3.0290    0.0048   21.1393 C.ar    1  UNL1        0.3416
     34 O           2.1308    0.6620   20.1335 O.2     1  UNL1       -0.2455
     35 C          -4.6867    4.0181   25.9181 C.2     1  UNL1        0.2442
     36 N          -5.8916    3.8750   25.0364 N.am    1  UNL1       -0.3253
     37 O          -4.8577    4.2823   27.3848 O.2     1  UNL1       -0.2703
     38 H          -5.7794    3.7016   24.0738 H       1  UNL1        0.1453
     39 H          -6.7947    3.9545   25.4203 H       1  UNL1        0.1453
     40 C          -3.1853    3.9024   17.4608 C.3     1  UNL1        0.1069
     41 C          -1.7512    3.9774   17.0279 C.3     1  UNL1        0.0339
     42 C          -4.6195    3.8274   17.8937 C.3     1  UNL1        0.0339
     43 O          -3.6206    3.9441   16.0260 O.3     1  UNL1       -0.3827
     44 H          -2.8400    3.9988   15.4528 H       1  UNL1        0.2107
@<TRIPOS>BOND
     1    15    16    1
     2    16    17   ar
     3    17     1    1
     4     1     2   ar
     5     2     3    1
     6     2     4   ar
     7     4     5   ar
     8     5    35    1
     9    35    36   am
    10    35    37    2
    11     5     6   ar
    12     6     7    2
    13     7     8    1
    14     8     9    2
    15     9    10    1
    16    10    40    1
    17    40    41    1
    18    40    42    1
    19    40    43    1
    20    10    11    2
    21    11    12    1
    22    12    13    1
    23    13    14    2
    24    17    18   ar
    25    18    19   ar
    26    19    20   ar
    27    20    21   ar
    28    21    22    1
    29    22    23   ar
    30    23    24    2
    31    23    25   ar
    32    25    26   ar
    33    26    27   ar
    34    27    28    1
    35    27    29   ar
    36    29    30   ar
    37    30    31   ar
    38    31    32   ar
    39    32    33   ar
    40    33    34    2
    41    21    16   ar
    42    33    22   ar
    43    14     1   ar
    44    32    26   ar
    45    14     6   ar
    46    13     8    1
    47    36    38    1
    48    36    39    1
    49    43    44    1
@<TRIPOS>MOLECULE
*****
 44 49 0 0 0
SMALL
GASTEIGER

@<TRIPOS>ATOM
      1 C           6.7233   -1.1214   28.6845 C.ar    1  UNL1        0.0115
      2 C           6.1528   -0.0195   29.5273 C.ar    1  UNL1        0.0579
      3 CL          6.0442    1.3699   28.9722 Cl      1  UNL1       -0.0822
      4 C           5.6908   -0.3068   30.9251 C.ar    1  UNL1        0.0174
      5 C           5.7994   -1.6961   31.4802 C.ar    1  UNL1        0.0716
      6 C           6.3699   -2.7980   30.6373 C.ar    1  UNL1        0.0854
      7 N           6.6001   -4.2547   30.9113 N.2     1  UNL1       -0.2455
      8 C           7.2043   -4.8676   29.6827 C.2     1  UNL1        0.0774
      9 C           7.6425   -6.2680   29.3714 C.2     1  UNL1        0.0164
     10 C           8.2240   -6.5904   28.0268 C.2     1  UNL1       -0.0007
     11 C           8.3672   -5.5125   26.9936 C.2     1  UNL1       -0.0233
     12 C           7.9290   -4.1121   27.3049 C.3     1  UNL1        0.0536
     13 C           7.3475   -3.7897   28.6495 C.2     1  UNL1        0.0013
     14 C           6.8319   -2.5106   29.2395 C.ar    1  UNL1        0.0164
     15 C           4.8851   -1.6156   26.3658 C.3     1  UNL1        0.0326
     16 C           6.2662   -1.0810   26.1273 C.ar    1  UNL1       -0.0055
     17 C           7.1853   -0.8339   27.2865 C.ar    1  UNL1       -0.0017
     18 C           8.5664   -0.2994   27.0481 C.ar    1  UNL1       -0.0002
     19 C           9.0283   -0.0120   25.6503 C.ar    1  UNL1        0.0015
     20 C           8.1091   -0.2591   24.4909 C.ar    1  UNL1        0.0174
     21 C           6.7281   -0.7936   24.7294 C.ar    1  UNL1        0.0671
     22 N           5.8089   -1.0408   23.5700 N.ar    1  UNL1       -0.2272
     23 C           4.7671   -0.0238   23.2088 C.ar    1  UNL1        0.2697
     24 O           4.6445    1.2403   24.0070 O.2     1  UNL1       -0.2664
     25 C           3.8480   -0.2709   22.0495 C.ar    1  UNL1        0.0797
     26 C           3.9706   -1.5350   21.2513 C.ar    1  UNL1        0.0835
     27 C           3.0515   -1.7821   20.0920 C.ar    1  UNL1        0.0741
     28 CL          2.0097   -0.7652   19.7308 Cl      1  UNL1       -0.0807
     29 C           3.1741   -3.0463   19.2939 C.ar    1  UNL1        0.0144
     30 C           4.2159   -4.0632   19.6551 C.ar    1  UNL1        0.0200
     31 C           5.1350   -3.8161   20.8144 C.ar    1  UNL1        0.0844
     32 N           5.0123   -2.5520   21.6125 N.ar    1  UNL1       -0.2576
     33 C           5.9315   -2.3048   22.7719 C.ar    1  UNL1        0.3416
     34 O           6.9733   -3.3219   23.1331 O.2     1  UNL1       -0.2455
     35 C           5.3374   -1.9835   32.8780 C.2     1  UNL1        0.2442
     36 N           4.5846   -3.2465   33.1743 N.am    1  UNL1       -0.3253
     37 O           5.6283   -1.0078   33.9796 O.2     1  UNL1       -0.2703
     38 H           4.3936   -3.8869   32.4514 H       1  UNL1        0.1453
     39 H           4.2814   -3.4351   34.0918 H       1  UNL1        0.1453
     40 C           8.6622   -7.9908   27.7155 C.3     1  UNL1        0.1069
     41 C           9.5356   -7.9887   28.9349 C.3     1  UNL1        0.0339
     42 C           7.7889   -7.9929   26.4960 C.3     1  UNL1        0.0339
     43 O           9.1004   -9.3911   27.4040 O.3     1  UNL1       -0.3827
     44 H           9.7274   -9.6917   28.0804 H       1  UNL1        0.2107
@<TRIPOS>BOND
     1    15    16    1
     2    16    17   ar
     3    17     1    1
     4     1     2   ar
     5     2     3    1
     6     2     4   ar
     7     4     5   ar
     8     5    35    1
     9    35    36   am
    10    35    37    2
    11     5     6   ar
    12     6     7    2
    13     7     8    1
    14     8     9    2
    15     9    10    1
    16    10    40    1
    17    40    41    1
    18    40    42    1
    19    40    43    1
    20    10    11    2
    21    11    12    1
    22    12    13    1
    23    13    14    2
    24    17    18   ar
    25    18    19   ar
    26    19    20   ar
    27    20    21   ar
    28    21    22    1
    29    22    23   ar
    30    23    24    2
    31    23    25   ar
    32    25    26   ar
    33    26    27   ar
    34    27    28    1
    35    27    29   ar
    36    29    30   ar
    37    30    31   ar
    38    31    32   ar
    39    32    33   ar
    40    33    34    2
    41    21    16   ar
    42    33    22   ar
    43    14     1   ar
    44    32    26   ar
    45    14     6   ar
    46    13     8    1
    47    36    38    1
    48    36    39    1
    49    43    44    1
@<TRIPOS>MOLECULE
*****
 44 49 0 0 0
SMALL
GASTEIGER

@<TRIPOS>ATOM
      1 C           2.6509    1.8696   24.9205 C.ar    1  UNL1        0.0115
      2 C           2.6472    2.2080   26.3819 C.ar    1  UNL1        0.0579
      3 CL          2.1638    3.5523   26.8393 Cl      1  UNL1       -0.0822
      4 C           3.1269    1.2020   27.3859 C.ar    1  UNL1        0.0174
      5 C           3.6103   -0.1422   26.9285 C.ar    1  UNL1        0.0716
      6 C           3.6140   -0.4806   25.4672 C.ar    1  UNL1        0.0854
      7 N           4.0297   -1.7154   24.7238 N.2     1  UNL1       -0.2455
      8 C           3.8069   -1.4726   23.2605 C.2     1  UNL1        0.0774
      9 C           4.0365   -2.3335   22.0538 C.2     1  UNL1        0.0164
     10 C           3.7127   -1.8097   20.6861 C.2     1  UNL1       -0.0007
     11 C           3.1593   -0.4248   20.5251 C.2     1  UNL1       -0.0233
     12 C           2.9297    0.4362   21.7317 C.3     1  UNL1        0.0536
     13 C           3.2536   -0.0877   23.0994 C.2     1  UNL1        0.0013
     14 C           3.1343    0.5253   24.4632 C.ar    1  UNL1        0.0164
     15 C          -0.2179    1.8629   24.0435 C.3     1  UNL1        0.0326
     16 C           0.7368    2.8722   23.4781 C.ar    1  UNL1       -0.0055
     17 C           2.1712    2.8756   23.9165 C.ar    1  UNL1       -0.0017
     18 C           3.1260    3.8850   23.3512 C.ar    1  UNL1       -0.0002
     19 C           2.6463    4.8909   22.3472 C.ar    1  UNL1        0.0015
     20 C           1.2118    4.8875   21.9087 C.ar    1  UNL1        0.0174
     21 C           0.2571    3.8782   22.4741 C.ar    1  UNL1        0.0671
     22 N          -1.1774    3.8748   22.0356 N.ar    1  UNL1       -0.2272
     23 C          -1.5656    3.2161   20.7451 C.ar    1  UNL1        0.2697
     24 O          -0.5193    2.5608   19.8931 O.2     1  UNL1       -0.2664
     25 C          -3.0001    3.2127   20.3066 C.ar    1  UNL1        0.0797
     26 C          -4.0464    3.8680   21.1585 C.ar    1  UNL1        0.0835
     27 C          -5.4808    3.8646   20.7200 C.ar    1  UNL1        0.0741
     28 CL         -5.8690    3.2059   19.4296 Cl      1  UNL1       -0.0807
     29 C          -6.5271    4.5200   21.5721 C.ar    1  UNL1        0.0144
     30 C          -6.1389    5.1787   22.8626 C.ar    1  UNL1        0.0200
     31 C          -4.7044    5.1821   23.3011 C.ar    1  UNL1        0.0844
     32 N          -3.6582    4.5267   22.4490 N.ar    1  UNL1       -0.2576
     33 C          -2.2237    4.5301   22.8876 C.ar    1  UNL1        0.3416
     34 O          -1.8355    5.1889   24.1781 O.2     1  UNL1       -0.2455
     35 C           4.0900   -1.1482   27.9325 C.2     1  UNL1        0.2442
     36 N           4.8036   -2.3848   27.4730 N.am    1  UNL1       -0.3253
     37 O           3.8560   -0.9174   29.3961 O.2     1  UNL1       -0.2703
     38 H           4.9571   -2.5363   26.5124 H       1  UNL1        0.1453
     39 H           5.1184   -3.0451   28.1319 H       1  UNL1        0.1453
     40 C           3.9422   -2.6707   19.4794 C.3     1  UNL1        0.1069
     41 C           3.6804   -1.4924   18.5889 C.3     1  UNL1        0.0339
     42 C           4.2041   -3.8489   20.3700 C.3     1  UNL1        0.0339
     43 O           4.1718   -3.5317   18.2728 O.3     1  UNL1       -0.3827
     44 H           4.0616   -2.9989   17.4698 H       1  UNL1        0.2107
@<TRIPOS>BOND
     1    15    16    1
     2    16    17   ar
     3    17     1    1
     4     1     2   ar
     5     2     3    1
     6     2     4   ar
     7     4     5   ar
     8     5    35    1
     9    35    36   am
    10    35    37    2
    11     5     6   ar
    12     6     7    2
    13     7     8    1
    14     8     9    2
    15     9    10    1
    16    10    40    1
    17    40    41    1
    18    40    42    1
    19    40    43    1
    20    10    11    2
    21    11    12    1
    22    12    13    1
    23    13    14    2
    24    17    18   ar
    25    18    19   ar
    26    19    20   ar
    27    20    21   ar
    28    21    22    1
    29    22    23   ar
    30    23    24    2
    31    23    25   ar
    32    25    26   ar
    33    26    27   ar
    34    27    28    1
    35    27    29   ar
    36    29    30   ar
    37    30    31   ar
    38    31    32   ar
    39    32    33   ar
    40    33    34    2
    41    21    16   ar
    42    33    22   ar
    43    14     1   ar
    44    32    26   ar
    45    14     6   ar
    46    13     8    1
    47    36    38    1
    48    36    39    1
    49    43    44    1
@<TRIPOS>MOLECULE
*****
 44 49 0 0 0
SMALL
GASTEIGER

@<TRIPOS>ATOM
      1 C           4.1833    0.8829   24.7450 C.ar    1  UNL1        0.0115
      2 C           4.5621    0.6187   26.1721 C.ar    1  UNL1        0.0579
      3 CL          4.2390    1.6286   27.2332 Cl      1  UNL1       -0.0822
      4 C           5.2641   -0.6554   26.5382 C.ar    1  UNL1        0.0174
      5 C           5.5871   -1.6652   25.4772 C.ar    1  UNL1        0.0716
      6 C           5.2082   -1.4010   24.0501 C.ar    1  UNL1        0.0854
      7 N           5.3945   -2.2041   22.7969 N.2     1  UNL1       -0.2455
      8 C           4.8077   -1.4264   21.6564 C.2     1  UNL1        0.0774
      9 C           4.7022   -1.7213   20.1895 C.2     1  UNL1        0.0164
     10 C           4.0479   -0.7325   19.2708 C.2     1  UNL1       -0.0007
     11 C           3.4990    0.5513   19.8191 C.2     1  UNL1       -0.0233
     12 C           3.6044    0.8462   21.2860 C.3     1  UNL1        0.0536
     13 C           4.2587   -0.1426   22.2046 C.2     1  UNL1        0.0013
     14 C           4.5063   -0.1269   23.6840 C.ar    1  UNL1        0.0164
     15 C           1.1854    0.9824   24.6932 C.3     1  UNL1        0.0326
     16 C           1.9824    2.2067   24.3531 C.ar    1  UNL1       -0.0055
     17 C           3.4813    2.1571   24.3790 C.ar    1  UNL1       -0.0017
     18 C           4.2784    3.3814   24.0389 C.ar    1  UNL1       -0.0002
     19 C           3.5764    4.6555   23.6729 C.ar    1  UNL1        0.0015
     20 C           2.0774    4.7052   23.6470 C.ar    1  UNL1        0.0174
     21 C           1.2804    3.4808   23.9871 C.ar    1  UNL1        0.0671
     22 N          -0.2185    3.5305   23.9611 N.ar    1  UNL1       -0.2272
     23 C          -0.9852    3.7106   25.2378 C.ar    1  UNL1        0.2697
     24 O          -0.2528    3.8411   26.5403 O.2     1  UNL1       -0.2664
     25 C          -2.4841    3.7603   25.2119 C.ar    1  UNL1        0.0797
     26 C          -3.2165    3.6299   23.9093 C.ar    1  UNL1        0.0835
     27 C          -4.7154    3.6795   23.8834 C.ar    1  UNL1        0.0741
     28 CL         -5.4820    3.8597   25.1601 Cl      1  UNL1       -0.0807
     29 C          -5.4477    3.5491   22.5808 C.ar    1  UNL1        0.0144
     30 C          -4.6811    3.3689   21.3042 C.ar    1  UNL1        0.0200
     31 C          -3.1821    3.3192   21.3301 C.ar    1  UNL1        0.0844
     32 N          -2.4499    3.4497   22.6327 N.ar    1  UNL1       -0.2576
     33 C          -0.9509    3.4000   22.6586 C.ar    1  UNL1        0.3416
     34 O          -0.1843    3.2199   21.3819 O.2     1  UNL1       -0.2455
     35 C           6.2891   -2.9393   25.8433 C.2     1  UNL1        0.2442
     36 N           6.1669   -4.1439   24.9580 N.am    1  UNL1       -0.3253
     37 O           7.1132   -3.0087   27.0947 O.2     1  UNL1       -0.2703
     38 H           5.6260   -4.0984   24.1366 H       1  UNL1        0.1453
     39 H           6.6276   -4.9801   25.1983 H       1  UNL1        0.1453
     40 C           3.9424   -1.0274   17.8038 C.3     1  UNL1        0.1069
     41 C           5.0439   -2.0381   17.9278 C.3     1  UNL1        0.0339
     42 C           2.8410   -0.0168   17.6799 C.3     1  UNL1        0.0339
     43 O           3.8370   -1.3223   16.3369 O.3     1  UNL1       -0.3827
     44 H           4.4858   -2.0021   16.0963 H       1  UNL1        0.2107
@<TRIPOS>BOND
     1    15    16    1
     2    16    17   ar
     3    17     1    1
     4     1     2   ar
     5     2     3    1
     6     2     4   ar
     7     4     5   ar
     8     5    35    1
     9    35    36   am
    10    35    37    2
    11     5     6   ar
    12     6     7    2
    13     7     8    1
    14     8     9    2
    15     9    10    1
    16    10    40    1
    17    40    41    1
    18    40    42    1
    19    40    43    1
    20    10    11    2
    21    11    12    1
    22    12    13    1
    23    13    14    2
    24    17    18   ar
    25    18    19   ar
    26    19    20   ar
    27    20    21   ar
    28    21    22    1
    29    22    23   ar
    30    23    24    2
    31    23    25   ar
    32    25    26   ar
    33    26    27   ar
    34    27    28    1
    35    27    29   ar
    36    29    30   ar
    37    30    31   ar
    38    31    32   ar
    39    32    33   ar
    40    33    34    2
    41    21    16   ar
    42    33    22   ar
    43    14     1   ar
    44    32    26   ar
    45    14     6   ar
    46    13     8    1
    47    36    38    1
    48    36    39    1
    49    43    44    1
