@<TRIPOS>MOLECULE
*****
 18 20 0 0 0
SMALL
GASTEIGER

@<TRIPOS>ATOM
      1 C          -9.6873  -17.3937   22.4731 C.3     1  UNL1        0.0347
      2 C          -9.2017  -18.3449   23.5264 C.3     1  UNL1        0.0054
      3 C          -9.7512  -19.7392   23.5886 C.3     1  UNL1        0.0004
      4 C         -10.7864  -20.1823   22.5975 C.3     1  UNL1        0.0001
      5 C         -11.2720  -19.2311   21.5443 C.3     1  UNL1        0.0017
      6 C         -10.7224  -17.8368   21.4821 C.3     1  UNL1        0.0208
      7 C         -11.0072  -16.6858   20.5634 C.3     1  UNL1        0.0689
      8 N         -10.1480  -15.5313   20.9866 N.3     1  UNL1       -0.2972
      9 C          -9.3323  -15.9689   22.1669 C.3     1  UNL1        0.0726
     10 H         -10.7359  -14.7393   21.2466 H       1  UNL1        0.1233
     11 CL         -5.5539  -15.0649   26.1463 Cl      1  UNL1       -0.0814
     12 C          -6.5873  -15.6472   25.2280 C.ar    1  UNL1        0.0682
     13 C          -6.1895  -16.1419   23.8690 C.ar    1  UNL1        0.0119
     14 C          -7.2228  -16.7241   22.9507 C.ar    1  UNL1       -0.0033
     15 C          -8.6539  -16.8115   23.3914 C.ar    1  UNL1       -0.0206
     16 C          -9.0517  -16.3167   24.7505 C.ar    1  UNL1        0.0080
     17 C          -8.0184  -15.7346   25.6687 C.ar    1  UNL1        0.0679
     18 CL         -8.4161  -15.2398   27.0277 Cl      1  UNL1       -0.0814
@<TRIPOS>BOND
     1    11    12    1
     2    12    13   ar
     3    13    14   ar
     4    14    15   ar
     5     1    15    1
     6     1     2    1
     7     2     3    1
     8     3     4    1
     9     4     5    1
    10     6     5    1
    11     6     7    1
    12     7     8    1
    13     8     9    1
    14    15    16   ar
    15    16    17   ar
    16    17    18    1
    17    17    12   ar
    18     6     1    1
    19     9     1    1
    20     8    10    1
@<TRIPOS>MOLECULE
*****
 18 20 0 0 0
SMALL
GASTEIGER

@<TRIPOS>ATOM
      1 C          -7.6439  -16.3186   24.8213 C.3     1  UNL1        0.0347
      2 C          -8.6753  -16.1624   25.8992 C.3     1  UNL1        0.0054
      3 C          -8.3001  -15.5403   27.2115 C.3     1  UNL1        0.0004
      4 C          -6.8937  -15.0745   27.4459 C.3     1  UNL1        0.0001
      5 C          -5.8624  -15.2308   26.3681 C.3     1  UNL1        0.0017
      6 C          -6.2375  -15.8528   25.0557 C.3     1  UNL1        0.0208
      7 C          -5.4426  -16.1363   23.8156 C.3     1  UNL1        0.0689
      8 N          -6.3577  -16.7772   22.8148 N.3     1  UNL1       -0.2972
      9 C          -7.7182  -16.8899   23.4363 C.3     1  UNL1        0.0726
     10 H          -6.0100  -17.7050   22.5723 H       1  UNL1        0.1233
     11 CL        -13.0804  -18.3595   23.3116 Cl      1  UNL1       -0.0814
     12 C         -11.7213  -17.8493   23.6890 C.ar    1  UNL1        0.0682
     13 C         -10.8593  -18.6371   24.6304 C.ar    1  UNL1        0.0119
     14 C          -9.5001  -18.1269   25.0078 C.ar    1  UNL1       -0.0033
     15 C          -9.0031  -16.8289   24.4438 C.ar    1  UNL1       -0.0206
     16 C          -9.8652  -16.0411   23.5025 C.ar    1  UNL1        0.0080
     17 C         -11.2242  -16.5513   23.1251 C.ar    1  UNL1        0.0679
     18 CL        -12.0863  -15.7635   22.1837 Cl      1  UNL1       -0.0814
@<TRIPOS>BOND
     1    11    12    1
     2    12    13   ar
     3    13    14   ar
     4    14    15   ar
     5     1    15    1
     6     1     2    1
     7     2     3    1
     8     3     4    1
     9     4     5    1
    10     6     5    1
    11     6     7    1
    12     7     8    1
    13     8     9    1
    14    15    16   ar
    15    16    17   ar
    16    17    18    1
    17    17    12   ar
    18     6     1    1
    19     9     1    1
    20     8    10    1
@<TRIPOS>MOLECULE
*****
 18 20 0 0 0
SMALL
GASTEIGER

@<TRIPOS>ATOM
      1 C         -10.1888  -17.8950   23.1330 C.3     1  UNL1        0.0347
      2 C         -10.3552  -16.4043   23.1473 C.3     1  UNL1        0.0054
      3 C         -11.5709  -15.7794   22.5296 C.3     1  UNL1        0.0004
      4 C         -12.6201  -16.6452   21.8975 C.3     1  UNL1        0.0001
      5 C         -12.4537  -18.1359   21.8832 C.3     1  UNL1        0.0017
      6 C         -11.2381  -18.7607   22.5009 C.3     1  UNL1        0.0208
      7 C         -10.8034  -20.1899   22.6370 C.3     1  UNL1        0.0689
      8 N          -9.4855  -20.2075   23.3531 N.3     1  UNL1       -0.2972
      9 C          -9.1057  -18.7891   23.6597 C.3     1  UNL1        0.0726
     10 H          -8.7748  -20.6356   22.7599 H       1  UNL1        0.1233
     11 CL         -5.6812  -14.9616   25.7932 Cl      1  UNL1       -0.0814
     12 C          -6.8082  -15.6949   25.1281 C.ar    1  UNL1        0.0682
     13 C          -6.6926  -16.1013   23.6889 C.ar    1  UNL1        0.0119
     14 C          -7.8195  -16.8347   23.0239 C.ar    1  UNL1       -0.0033
     15 C          -9.0619  -17.1616   23.7981 C.ar    1  UNL1       -0.0206
     16 C          -9.1774  -16.7552   25.2373 C.ar    1  UNL1        0.0080
     17 C          -8.0506  -16.0219   25.9023 C.ar    1  UNL1        0.0679
     18 CL         -8.1661  -15.6155   27.3416 Cl      1  UNL1       -0.0814
@<TRIPOS>BOND
     1    11    12    1
     2    12    13   ar
     3    13    14   ar
     4    14    15   ar
     5     1    15    1
     6     1     2    1
     7     2     3    1
     8     3     4    1
     9     4     5    1
    10     6     5    1
    11     6     7    1
    12     7     8    1
    13     8     9    1
    14    15    16   ar
    15    16    17   ar
    16    17    18    1
    17    17    12   ar
    18     6     1    1
    19     9     1    1
    20     8    10    1
@<TRIPOS>MOLECULE
*****
 18 20 0 0 0
SMALL
GASTEIGER

@<TRIPOS>ATOM
      1 C          -6.9031  -16.6246   23.4262 C.3     1  UNL1        0.0347
      2 C          -7.2408  -17.8543   22.6363 C.3     1  UNL1        0.0054
      3 C          -6.1502  -18.7837   22.1929 C.3     1  UNL1        0.0004
      4 C          -4.7219  -18.4836   22.5393 C.3     1  UNL1        0.0001
      5 C          -4.3843  -17.2540   23.3292 C.3     1  UNL1        0.0017
      6 C          -5.4748  -16.3245   23.7726 C.3     1  UNL1        0.0208
      7 C          -5.4469  -15.0461   24.5569 C.3     1  UNL1        0.0689
      8 N          -6.8579  -14.5562   24.6952 N.3     1  UNL1       -0.2972
      9 C          -7.7578  -15.5318   23.9964 C.3     1  UNL1        0.0726
     10 H          -6.9478  -13.6346   24.2674 H       1  UNL1        0.1233
     11 CL        -12.7665  -17.2974   22.3458 Cl      1  UNL1       -0.0814
     12 C         -11.3006  -17.1292   22.6159 C.ar    1  UNL1        0.0682
     13 C         -10.7007  -17.6874   23.8722 C.ar    1  UNL1        0.0119
     14 C          -9.2348  -17.5193   24.1423 C.ar    1  UNL1       -0.0033
     15 C          -8.3690  -16.7928   23.1561 C.ar    1  UNL1       -0.0206
     16 C          -8.9690  -16.2346   21.8998 C.ar    1  UNL1        0.0080
     17 C         -10.4348  -16.4028   21.6297 C.ar    1  UNL1        0.0679
     18 CL        -11.0348  -15.8446   20.3734 Cl      1  UNL1       -0.0814
@<TRIPOS>BOND
     1    11    12    1
     2    12    13   ar
     3    13    14   ar
     4    14    15   ar
     5     1    15    1
     6     1     2    1
     7     2     3    1
     8     3     4    1
     9     4     5    1
    10     6     5    1
    11     6     7    1
    12     7     8    1
    13     8     9    1
    14    15    16   ar
    15    16    17   ar
    16    17    18    1
    17    17    12   ar
    18     6     1    1
    19     9     1    1
    20     8    10    1
@<TRIPOS>MOLECULE
*****
 18 20 0 0 0
SMALL
GASTEIGER

@<TRIPOS>ATOM
      1 C         -10.5720  -17.4297   23.3084 C.3     1  UNL1        0.0347
      2 C         -10.0885  -16.4981   22.2368 C.3     1  UNL1        0.0054
      3 C         -11.0044  -16.1042   21.1162 C.3     1  UNL1        0.0004
      4 C         -12.4039  -16.6419   21.0672 C.3     1  UNL1        0.0001
      5 C         -12.8874  -17.5735   22.1387 C.3     1  UNL1        0.0017
      6 C         -11.9715  -17.9674   23.2594 C.3     1  UNL1        0.0208
      7 C         -12.1665  -18.8613   24.4480 C.3     1  UNL1        0.0689
      8 N         -10.8875  -18.8762   25.2316 N.3     1  UNL1       -0.2972
      9 C          -9.9021  -17.9914   24.5273 C.3     1  UNL1        0.0726
     10 H         -10.5237  -19.8277   25.2825 H       1  UNL1        0.1233
     11 CL         -4.9004  -15.6107   24.0328 Cl      1  UNL1       -0.0814
     12 C          -6.3184  -16.0655   23.8517 C.ar    1  UNL1        0.0682
     13 C          -7.4425  -15.2715   24.4480 C.ar    1  UNL1        0.0119
     14 C          -8.8604  -15.7262   24.2669 C.ar    1  UNL1       -0.0033
     15 C          -9.1541  -16.9749   23.4895 C.ar    1  UNL1       -0.0206
     16 C          -8.0298  -17.7690   22.8932 C.ar    1  UNL1        0.0080
     17 C          -6.6120  -17.3142   23.0743 C.ar    1  UNL1        0.0679
     18 CL         -5.4878  -18.1082   22.4780 Cl      1  UNL1       -0.0814
@<TRIPOS>BOND
     1    11    12    1
     2    12    13   ar
     3    13    14   ar
     4    14    15   ar
     5     1    15    1
     6     1     2    1
     7     2     3    1
     8     3     4    1
     9     4     5    1
    10     6     5    1
    11     6     7    1
    12     7     8    1
    13     8     9    1
    14    15    16   ar
    15    16    17   ar
    16    17    18    1
    17    17    12   ar
    18     6     1    1
    19     9     1    1
    20     8    10    1
@<TRIPOS>MOLECULE
*****
 18 20 0 0 0
SMALL
GASTEIGER

@<TRIPOS>ATOM
      1 C         -10.7662  -17.6533   22.3474 C.3     1  UNL1        0.0347
      2 C         -10.3201  -18.4775   23.5186 C.3     1  UNL1        0.0054
      3 C         -11.3176  -18.9196   24.5479 C.3     1  UNL1        0.0004
      4 C         -12.7612  -18.5377   24.4059 C.3     1  UNL1        0.0001
      5 C         -13.2073  -17.7135   23.2347 C.3     1  UNL1        0.0017
      6 C         -12.2098  -17.2714   22.2055 C.3     1  UNL1        0.0208
      7 C         -12.3531  -16.4580   20.9533 C.3     1  UNL1        0.0689
      8 N         -10.9981  -16.3372   20.3213 N.3     1  UNL1       -0.2972
      9 C         -10.0174  -17.0760   21.1829 C.3     1  UNL1        0.0726
     10 H         -10.7319  -15.3546   20.2582 H       1  UNL1        0.1233
     11 CL         -4.8904  -18.8671   22.3808 Cl      1  UNL1       -0.0814
     12 C          -6.3594  -18.5637   22.3724 C.ar    1  UNL1        0.0682
     13 C          -7.3193  -19.5211   21.7308 C.ar    1  UNL1        0.0119
     14 C          -8.7883  -19.2177   21.7225 C.ar    1  UNL1       -0.0033
     15 C          -9.2973  -17.9568   22.3557 C.ar    1  UNL1       -0.0206
     16 C          -8.3373  -16.9993   22.9974 C.ar    1  UNL1        0.0080
     17 C          -6.8684  -17.3028   23.0057 C.ar    1  UNL1        0.0679
     18 CL         -5.9084  -16.3453   23.6473 Cl      1  UNL1       -0.0814
@<TRIPOS>BOND
     1    11    12    1
     2    12    13   ar
     3    13    14   ar
     4    14    15   ar
     5     1    15    1
     6     1     2    1
     7     2     3    1
     8     3     4    1
     9     4     5    1
    10     6     5    1
    11     6     7    1
    12     7     8    1
    13     8     9    1
    14    15    16   ar
    15    16    17   ar
    16    17    18    1
    17    17    12   ar
    18     6     1    1
    19     9     1    1
    20     8    10    1
@<TRIPOS>MOLECULE
*****
 18 20 0 0 0
SMALL
GASTEIGER

@<TRIPOS>ATOM
      1 C          -8.9505  -18.4099   22.6069 C.3     1  UNL1        0.0347
      2 C          -8.5802  -19.7998   23.0325 C.3     1  UNL1        0.0054
      3 C          -9.4194  -20.5230   24.0437 C.3     1  UNL1        0.0004
      4 C         -10.6288  -19.8564   24.6294 C.3     1  UNL1        0.0001
      5 C         -10.9990  -18.4666   24.2038 C.3     1  UNL1        0.0017
      6 C         -10.1599  -17.7433   23.1925 C.3     1  UNL1        0.0208
      7 C         -10.2761  -16.3770   22.5845 C.3     1  UNL1        0.0689
      8 N          -9.1385  -16.1992   21.6231 N.3     1  UNL1       -0.2972
      9 C          -8.3193  -17.4556   21.6369 C.3     1  UNL1        0.0726
     10 H          -8.5631  -15.4075   21.9104 H       1  UNL1        0.1233
     11 CL         -4.0261  -20.5516   19.9303 Cl      1  UNL1       -0.0814
     12 C          -5.2572  -20.0162   20.5995 C.ar    1  UNL1        0.0682
     13 C          -6.6051  -20.2419   19.9814 C.ar    1  UNL1        0.0119
     14 C          -7.8362  -19.7065   20.6505 C.ar    1  UNL1       -0.0033
     15 C          -7.7194  -18.9454   21.9377 C.ar    1  UNL1       -0.0206
     16 C          -6.3714  -18.7196   22.5558 C.ar    1  UNL1        0.0080
     17 C          -5.1404  -19.2550   21.8867 C.ar    1  UNL1        0.0679
     18 CL         -3.7924  -19.0293   22.5048 Cl      1  UNL1       -0.0814
@<TRIPOS>BOND
     1    11    12    1
     2    12    13   ar
     3    13    14   ar
     4    14    15   ar
     5     1    15    1
     6     1     2    1
     7     2     3    1
     8     3     4    1
     9     4     5    1
    10     6     5    1
    11     6     7    1
    12     7     8    1
    13     8     9    1
    14    15    16   ar
    15    16    17   ar
    16    17    18    1
    17    17    12   ar
    18     6     1    1
    19     9     1    1
    20     8    10    1
@<TRIPOS>MOLECULE
*****
 18 20 0 0 0
SMALL
GASTEIGER

@<TRIPOS>ATOM
      1 C         -10.4829  -18.1397   22.9790 C.3     1  UNL1        0.0347
      2 C          -9.9680  -17.5359   21.7061 C.3     1  UNL1        0.0054
      3 C         -10.9219  -16.9036   20.7364 C.3     1  UNL1        0.0004
      4 C         -12.3906  -16.8751   21.0396 C.3     1  UNL1        0.0001
      5 C         -12.9055  -17.4789   22.3125 C.3     1  UNL1        0.0017
      6 C         -11.9517  -18.1112   23.2822 C.3     1  UNL1        0.0208
      7 C         -12.1645  -18.7811   24.6073 C.3     1  UNL1        0.0689
      8 N         -10.8273  -19.2237   25.1231 N.3     1  UNL1       -0.2972
      9 C          -9.7880  -18.8273   24.1167 C.3     1  UNL1        0.0726
     10 H         -10.8216  -20.2362   25.2461 H       1  UNL1        0.1233
     11 CL         -4.5341  -18.5516   22.3142 Cl      1  UNL1       -0.0814
     12 C          -6.0214  -18.4486   22.4804 C.ar    1  UNL1        0.0682
     13 C          -6.9097  -19.5492   21.9811 C.ar    1  UNL1        0.0119
     14 C          -8.3970  -19.4463   22.1473 C.ar    1  UNL1       -0.0033
     15 C          -8.9957  -18.2427   22.8128 C.ar    1  UNL1       -0.0206
     16 C          -8.1072  -17.1421   23.3120 C.ar    1  UNL1        0.0080
     17 C          -6.6201  -17.2450   23.1458 C.ar    1  UNL1        0.0679
     18 CL         -5.7316  -16.1444   23.6451 Cl      1  UNL1       -0.0814
@<TRIPOS>BOND
     1    11    12    1
     2    12    13   ar
     3    13    14   ar
     4    14    15   ar
     5     1    15    1
     6     1     2    1
     7     2     3    1
     8     3     4    1
     9     4     5    1
    10     6     5    1
    11     6     7    1
    12     7     8    1
    13     8     9    1
    14    15    16   ar
    15    16    17   ar
    16    17    18    1
    17    17    12   ar
    18     6     1    1
    19     9     1    1
    20     8    10    1
@<TRIPOS>MOLECULE
*****
 18 20 0 0 0
SMALL
GASTEIGER

@<TRIPOS>ATOM
      1 C          -7.9779  -17.3262   23.3306 C.3     1  UNL1        0.0347
      2 C          -8.6933  -16.3039   24.1630 C.3     1  UNL1        0.0054
      3 C          -7.9196  -15.2066   24.8318 C.3     1  UNL1        0.0004
      4 C          -6.4304  -15.1317   24.6681 C.3     1  UNL1        0.0001
      5 C          -5.7150  -16.1540   23.8357 C.3     1  UNL1        0.0017
      6 C          -6.4888  -17.2513   23.1669 C.3     1  UNL1        0.0208
      7 C          -6.0606  -18.3920   22.2920 C.3     1  UNL1        0.0689
      8 N          -7.2852  -19.1720   21.9150 N.3     1  UNL1       -0.2972
      9 C          -8.4701  -18.5133   22.5568 C.3     1  UNL1        0.0726
     10 H          -7.2002  -20.1322   22.2483 H       1  UNL1        0.1233
     11 CL        -13.9160  -18.1360   23.6193 Cl      1  UNL1       -0.0814
     12 C         -12.4314  -17.9336   23.5471 C.ar    1  UNL1        0.0682
     13 C         -11.5326  -18.6159   24.5352 C.ar    1  UNL1        0.0119
     14 C         -10.0481  -18.4135   24.4630 C.ar    1  UNL1       -0.0033
     15 C          -9.4625  -17.5287   23.4027 C.ar    1  UNL1       -0.0206
     16 C         -10.3614  -16.8463   22.4147 C.ar    1  UNL1        0.0080
     17 C         -11.8458  -17.0488   22.4868 C.ar    1  UNL1        0.0679
     18 CL        -12.7448  -16.3664   21.4988 Cl      1  UNL1       -0.0814
@<TRIPOS>BOND
     1    11    12    1
     2    12    13   ar
     3    13    14   ar
     4    14    15   ar
     5     1    15    1
     6     1     2    1
     7     2     3    1
     8     3     4    1
     9     4     5    1
    10     6     5    1
    11     6     7    1
    12     7     8    1
    13     8     9    1
    14    15    16   ar
    15    16    17   ar
    16    17    18    1
    17    17    12   ar
    18     6     1    1
    19     9     1    1
    20     8    10    1
