@<TRIPOS>MOLECULE
*****
 31 33 0 0 0
SMALL
GASTEIGER

@<TRIPOS>ATOM
      1 C          -8.5880  -16.0762   26.2349 C.ar    1  UNL1        0.1647
      2 C          -8.9883  -15.3122   25.0076 C.ar    1  UNL1        0.1571
      3 N          -9.7124  -16.0085   23.8937 N.ar    1  UNL1       -0.1616
      4 N         -10.0363  -17.4687   24.0070 N.ar    1  UNL1       -0.2084
      5 C          -9.6361  -18.2327   25.2343 C.ar    1  UNL1        0.2799
      6 O          -9.9600  -19.6929   25.3476 O.2     1  UNL1       -0.2654
      7 C          -8.9119  -17.5364   26.3482 C.ar    1  UNL1        0.1007
      8 O          -7.8638  -15.3800   27.3488 O.3     1  UNL1       -0.4672
      9 C          -6.3870  -15.1378   27.2473 C.3     1  UNL1        0.2509
     10 C          -4.1456  -16.4154   23.5603 C.ar    1  UNL1        0.1578
     11 C          -4.1048  -17.2659   24.7952 C.ar    1  UNL1        0.0398
     12 C          -4.8520  -16.8400   26.0242 C.ar    1  UNL1        0.0216
     13 C          -5.6399  -15.5636   26.0183 C.ar    1  UNL1        0.1029
     14 N          -5.6806  -14.7132   24.7834 N.ar    1  UNL1       -0.2413
     15 C          -4.9335  -15.1390   23.5544 C.ar    1  UNL1        0.1353
     16 C          -2.1703  -16.0939   21.9036 C.3     1  UNL1        0.2525
     17 O          -3.3985  -16.8413   22.3313 O.3     1  UNL1       -0.4699
     18 C         -10.7605  -18.1650   22.8931 C.3     1  UNL1        0.1992
     19 C         -10.2251  -18.0984   21.4935 C.2     1  UNL1        0.1974
     20 O         -11.0285  -17.4358   20.4139 O.2     1  UNL1       -0.2892
     21 C          -8.8863  -18.6943   21.1734 C.ar    1  UNL1        0.0328
     22 C          -7.6994  -18.3780   22.0344 C.ar    1  UNL1        0.0023
     23 C          -6.3606  -18.9740   21.7143 C.ar    1  UNL1       -0.0028
     24 C          -6.2087  -19.8862   20.5334 C.ar    1  UNL1       -0.0065
     25 C          -7.3956  -20.2026   19.6724 C.ar    1  UNL1       -0.0071
     26 C          -8.7344  -19.6066   19.9924 C.ar    1  UNL1       -0.0193
     27 C          -9.9213  -19.9229   19.1315 C.3     1  UNL1        0.0311
     28 C          -4.8699  -20.4822   20.2134 C.3     1  UNL1        0.0992
     29 N          -3.6388  -19.6262   20.2541 N.3     1  UNL1       -0.2665
     30 C          -2.5738  -19.8922   21.2765 C.3     1  UNL1        0.0899
     31 C          -3.4726  -18.5041   19.2725 C.3     1  UNL1        0.0899
@<TRIPOS>BOND
     1    16    17    1
     2    17    10    1
     3    10    11   ar
     4    11    12   ar
     5    12    13   ar
     6    13     9    1
     7     9     8    1
     8     8     1    1
     9     1     2   ar
    10     2     3   ar
    11     3     4   ar
    12     4    18    1
    13    18    19    1
    14    19    20    2
    15    19    21    1
    16    21    22   ar
    17    22    23   ar
    18    23    24   ar
    19    24    28    1
    20    28    29    1
    21    29    30    1
    22    29    31    1
    23    24    25   ar
    24    25    26   ar
    25    26    27    1
    26     4     5   ar
    27     5     6    2
    28     5     7   ar
    29    13    14   ar
    30    14    15   ar
    31    15    10   ar
    32     7     1   ar
    33    26    21   ar
@<TRIPOS>MOLECULE
*****
 31 33 0 0 0
SMALL
GASTEIGER

@<TRIPOS>ATOM
      1 C          -7.6829  -19.7250   20.5081 C.ar    1  UNL1        0.1647
      2 C          -7.6399  -20.0789   21.9652 C.ar    1  UNL1        0.1571
      3 N          -8.9032  -20.0820   22.7738 N.ar    1  UNL1       -0.1616
      4 N         -10.2096  -19.7311   22.1255 N.ar    1  UNL1       -0.2084
      5 C         -10.2526  -19.3772   20.6685 C.ar    1  UNL1        0.2799
      6 O         -11.5589  -19.0264   20.0202 O.2     1  UNL1       -0.2654
      7 C          -8.9893  -19.3742   19.8598 C.ar    1  UNL1        0.1007
      8 O          -6.4196  -19.7219   19.6994 O.3     1  UNL1       -0.4672
      9 C          -5.1411  -20.2221   20.3037 C.3     1  UNL1        0.2509
     10 C          -1.4503  -17.6493   20.2098 C.ar    1  UNL1        0.1578
     11 C          -1.5733  -18.7477   21.2239 C.ar    1  UNL1        0.0398
     12 C          -2.8036  -19.6053   21.2551 C.ar    1  UNL1        0.0216
     13 C          -3.9108  -19.3645   20.2724 C.ar    1  UNL1        0.1029
     14 N          -3.7879  -18.2661   19.2583 N.ar    1  UNL1       -0.2413
     15 C          -2.5576  -17.4085   19.2270 C.ar    1  UNL1        0.1353
     16 C           1.1370  -17.4232   20.2753 C.3     1  UNL1        0.2525
     17 O          -0.2201  -16.7917   20.1785 O.3     1  UNL1       -0.4699
     18 C         -11.4729  -19.7342   22.9341 C.3     1  UNL1        0.1992
     19 C         -11.7060  -18.6699   23.9652 C.2     1  UNL1        0.1974
     20 O         -13.0721  -18.4844   24.5562 O.2     1  UNL1       -0.2892
     21 C         -10.5729  -17.7911   24.4053 C.ar    1  UNL1        0.0328
     22 C          -9.7849  -18.1415   25.6326 C.ar    1  UNL1        0.0023
     23 C          -8.6517  -17.2627   26.0727 C.ar    1  UNL1       -0.0028
     24 C          -8.3066  -16.0334   25.2855 C.ar    1  UNL1       -0.0065
     25 C          -9.0946  -15.6829   24.0582 C.ar    1  UNL1       -0.0071
     26 C         -10.2277  -16.5617   23.6181 C.ar    1  UNL1       -0.0193
     27 C         -11.0157  -16.2113   22.3908 C.3     1  UNL1        0.0311
     28 C          -7.1734  -15.1546   25.7256 C.3     1  UNL1        0.0992
     29 N          -5.7713  -15.4658   25.2931 N.3     1  UNL1       -0.2665
     30 C          -5.3498  -15.2124   23.8761 C.3     1  UNL1        0.0899
     31 C          -4.7906  -16.0305   26.2778 C.3     1  UNL1        0.0899
@<TRIPOS>BOND
     1    16    17    1
     2    17    10    1
     3    10    11   ar
     4    11    12   ar
     5    12    13   ar
     6    13     9    1
     7     9     8    1
     8     8     1    1
     9     1     2   ar
    10     2     3   ar
    11     3     4   ar
    12     4    18    1
    13    18    19    1
    14    19    20    2
    15    19    21    1
    16    21    22   ar
    17    22    23   ar
    18    23    24   ar
    19    24    28    1
    20    28    29    1
    21    29    30    1
    22    29    31    1
    23    24    25   ar
    24    25    26   ar
    25    26    27    1
    26     4     5   ar
    27     5     6    2
    28     5     7   ar
    29    13    14   ar
    30    14    15   ar
    31    15    10   ar
    32     7     1   ar
    33    26    21   ar
@<TRIPOS>MOLECULE
*****
 31 33 0 0 0
SMALL
GASTEIGER

@<TRIPOS>ATOM
      1 C          -7.0212  -20.3371   20.9402 C.ar    1  UNL1        0.1647
      2 C          -7.2619  -19.6084   19.6513 C.ar    1  UNL1        0.1571
      3 N          -8.5805  -18.9376   19.4038 N.ar    1  UNL1       -0.1616
      4 N          -9.6585  -18.9955   20.4454 N.ar    1  UNL1       -0.2084
      5 C          -9.4178  -19.7240   21.7342 C.ar    1  UNL1        0.2799
      6 O         -10.4958  -19.7818   22.7756 O.2     1  UNL1       -0.2654
      7 C          -8.0992  -20.3948   21.9816 C.ar    1  UNL1        0.1007
      8 O          -5.7026  -21.0079   21.1876 O.3     1  UNL1       -0.4672
      9 C          -4.6285  -20.9594   20.1417 C.3     1  UNL1        0.2509
     10 C          -1.4073  -17.8253   20.3681 C.ar    1  UNL1        0.1578
     11 C          -2.0811  -18.1151   19.0597 C.ar    1  UNL1        0.0398
     12 C          -3.1548  -19.1598   18.9842 C.ar    1  UNL1        0.0216
     13 C          -3.5548  -19.9147   20.2172 C.ar    1  UNL1        0.1029
     14 N          -2.8810  -19.6248   21.5256 N.ar    1  UNL1       -0.2413
     15 C          -1.8072  -18.5801   21.6010 C.ar    1  UNL1        0.1353
     16 C           1.0786  -17.1286   20.0767 C.3     1  UNL1        0.2525
     17 O          -0.3335  -16.7806   20.4436 O.3     1  UNL1       -0.4699
     18 C         -10.9771  -18.3247   20.1979 C.3     1  UNL1        0.1992
     19 C         -11.2547  -16.9747   20.7902 C.2     1  UNL1        0.1974
     20 O         -12.4800  -16.2132   20.3797 O.2     1  UNL1       -0.2892
     21 C         -10.3069  -16.3864   21.7930 C.ar    1  UNL1        0.0328
     22 C          -9.0744  -15.6686   21.3288 C.ar    1  UNL1        0.0023
     23 C          -8.1266  -15.0803   22.3316 C.ar    1  UNL1       -0.0028
     24 C          -8.4113  -15.2099   23.7986 C.ar    1  UNL1       -0.0065
     25 C          -9.6439  -15.9278   24.2629 C.ar    1  UNL1       -0.0071
     26 C         -10.5917  -16.5160   23.2601 C.ar    1  UNL1       -0.0193
     27 C         -11.8242  -17.2339   23.7243 C.3     1  UNL1        0.0311
     28 C          -7.4635  -14.6216   24.8014 C.3     1  UNL1        0.0992
     29 N          -6.7370  -15.5162   25.7615 N.3     1  UNL1       -0.2665
     30 C          -7.4271  -16.0042   27.0007 C.3     1  UNL1        0.0899
     31 C          -5.3204  -15.9230   25.4823 C.3     1  UNL1        0.0899
@<TRIPOS>BOND
     1    16    17    1
     2    17    10    1
     3    10    11   ar
     4    11    12   ar
     5    12    13   ar
     6    13     9    1
     7     9     8    1
     8     8     1    1
     9     1     2   ar
    10     2     3   ar
    11     3     4   ar
    12     4    18    1
    13    18    19    1
    14    19    20    2
    15    19    21    1
    16    21    22   ar
    17    22    23   ar
    18    23    24   ar
    19    24    28    1
    20    28    29    1
    21    29    30    1
    22    29    31    1
    23    24    25   ar
    24    25    26   ar
    25    26    27    1
    26     4     5   ar
    27     5     6    2
    28     5     7   ar
    29    13    14   ar
    30    14    15   ar
    31    15    10   ar
    32     7     1   ar
    33    26    21   ar
@<TRIPOS>MOLECULE
*****
 31 33 0 0 0
SMALL
GASTEIGER

@<TRIPOS>ATOM
      1 C           7.4016   -5.0415   25.0324 C.ar    1  UNL1        0.1647
      2 C           7.9172   -5.5271   23.7101 C.ar    1  UNL1        0.1571
      3 N           7.4697   -4.8639   22.4412 N.ar    1  UNL1       -0.1616
      4 N           6.5065   -3.7151   22.4947 N.ar    1  UNL1       -0.2084
      5 C           5.9910   -3.2296   23.8170 C.ar    1  UNL1        0.2799
      6 O           5.0279   -2.0809   23.8704 O.2     1  UNL1       -0.2654
      7 C           6.4386   -3.8927   25.0858 C.ar    1  UNL1        0.1007
      8 O           7.8492   -5.7046   26.3012 O.3     1  UNL1       -0.4672
      9 C           6.8433   -6.0670   27.3532 C.3     1  UNL1        0.2509
     10 C           6.7547   -3.8195   31.2508 C.ar    1  UNL1        0.1578
     11 C           6.4950   -3.0969   29.9622 C.ar    1  UNL1        0.0398
     12 C           6.5245   -3.8461   28.6631 C.ar    1  UNL1        0.0216
     13 C           6.8138   -5.3178   28.6524 C.ar    1  UNL1        0.1029
     14 N           7.0735   -6.0405   29.9409 N.ar    1  UNL1       -0.2413
     15 C           7.0439   -5.2913   31.2401 C.ar    1  UNL1        0.1353
     16 C           5.5745   -2.1613   32.8655 C.3     1  UNL1        0.2525
     17 O           6.7251   -3.0703   32.5500 O.3     1  UNL1       -0.4699
     18 C           6.0590   -3.0520   21.2259 C.3     1  UNL1        0.1992
     19 C           4.6971   -3.3421   20.6680 C.2     1  UNL1        0.1974
     20 O           4.1640   -4.7440   20.6820 O.2     1  UNL1       -0.2892
     21 C           3.8685   -2.2302   20.0961 C.ar    1  UNL1        0.0328
     22 C           2.7866   -1.5999   20.9220 C.ar    1  UNL1        0.0023
     23 C           1.9579   -0.4880   20.3501 C.ar    1  UNL1       -0.0028
     24 C           2.2111   -0.0065   18.9523 C.ar    1  UNL1       -0.0065
     25 C           3.2931   -0.6368   18.1263 C.ar    1  UNL1       -0.0071
     26 C           4.1217   -1.7487   18.6982 C.ar    1  UNL1       -0.0193
     27 C           5.2036   -2.3790   17.8723 C.3     1  UNL1        0.0311
     28 C           1.3825    1.1054   18.3804 C.3     1  UNL1        0.0992
     29 N           1.5308    2.5006   18.9108 N.3     1  UNL1       -0.2665
     30 C           0.5092    3.0551   19.8589 C.3     1  UNL1        0.0899
     31 C           2.7008    3.3414   18.4932 C.3     1  UNL1        0.0899
@<TRIPOS>BOND
     1    16    17    1
     2    17    10    1
     3    10    11   ar
     4    11    12   ar
     5    12    13   ar
     6    13     9    1
     7     9     8    1
     8     8     1    1
     9     1     2   ar
    10     2     3   ar
    11     3     4   ar
    12     4    18    1
    13    18    19    1
    14    19    20    2
    15    19    21    1
    16    21    22   ar
    17    22    23   ar
    18    23    24   ar
    19    24    28    1
    20    28    29    1
    21    29    30    1
    22    29    31    1
    23    24    25   ar
    24    25    26   ar
    25    26    27    1
    26     4     5   ar
    27     5     6    2
    28     5     7   ar
    29    13    14   ar
    30    14    15   ar
    31    15    10   ar
    32     7     1   ar
    33    26    21   ar
@<TRIPOS>MOLECULE
*****
 31 33 0 0 0
SMALL
GASTEIGER

@<TRIPOS>ATOM
      1 C           5.1676   -1.9553   24.2807 C.ar    1  UNL1        0.1647
      2 C           5.6640   -0.6924   23.6412 C.ar    1  UNL1        0.1571
      3 N           6.0053   -0.6752   22.1807 N.ar    1  UNL1       -0.1616
      4 N           5.8502   -1.9209   21.3595 N.ar    1  UNL1       -0.2084
      5 C           5.3538   -3.1837   21.9990 C.ar    1  UNL1        0.2799
      6 O           5.1987   -4.4294   21.1778 O.2     1  UNL1       -0.2654
      7 C           5.0125   -3.2009   23.4595 C.ar    1  UNL1        0.1007
      8 O           4.8264   -1.9725   25.7412 O.3     1  UNL1       -0.4672
      9 C           4.7067   -0.6833   26.4987 C.3     1  UNL1        0.2509
     10 C           0.7526    0.5231   28.2763 C.ar    1  UNL1        0.1578
     11 C           1.2425    1.1813   27.0206 C.ar    1  UNL1        0.0398
     12 C           2.5605    0.7792   26.4281 C.ar    1  UNL1        0.0216
     13 C           3.3886   -0.2812   27.0912 C.ar    1  UNL1        0.1029
     14 N           2.8988   -0.9394   28.3469 N.ar    1  UNL1       -0.2413
     15 C           1.5807   -0.5372   28.9394 C.ar    1  UNL1        0.1353
     16 C          -1.6370   -0.1025   29.0814 C.3     1  UNL1        0.2525
     17 O          -0.5654    0.9253   28.8688 O.3     1  UNL1       -0.4699
     18 C           6.1915   -1.9038   19.8990 C.3     1  UNL1        0.1992
     19 C           5.0990   -1.8200   18.8744 C.2     1  UNL1        0.1974
     20 O           5.2395   -2.5424   17.5674 O.2     1  UNL1       -0.2892
     21 C           3.8660   -1.0138   19.1570 C.ar    1  UNL1        0.0328
     22 C           2.7243   -1.6286   19.9108 C.ar    1  UNL1        0.0023
     23 C           1.4913   -0.8224   20.1934 C.ar    1  UNL1       -0.0028
     24 C           1.4002    0.5987   19.7221 C.ar    1  UNL1       -0.0065
     25 C           2.5419    1.2136   18.9683 C.ar    1  UNL1       -0.0071
     26 C           3.7749    0.4074   18.6857 C.ar    1  UNL1       -0.0193
     27 C           4.9166    1.0223   17.9319 C.3     1  UNL1        0.0311
     28 C           0.1672    1.4049   20.0047 C.3     1  UNL1        0.0992
     29 N           0.0697    2.2087   21.2674 N.3     1  UNL1       -0.2665
     30 C          -1.1551    3.0303   21.5408 C.3     1  UNL1        0.0899
     31 C           1.1972    2.1910   22.2567 C.3     1  UNL1        0.0899
@<TRIPOS>BOND
     1    16    17    1
     2    17    10    1
     3    10    11   ar
     4    11    12   ar
     5    12    13   ar
     6    13     9    1
     7     9     8    1
     8     8     1    1
     9     1     2   ar
    10     2     3   ar
    11     3     4   ar
    12     4    18    1
    13    18    19    1
    14    19    20    2
    15    19    21    1
    16    21    22   ar
    17    22    23   ar
    18    23    24   ar
    19    24    28    1
    20    28    29    1
    21    29    30    1
    22    29    31    1
    23    24    25   ar
    24    25    26   ar
    25    26    27    1
    26     4     5   ar
    27     5     6    2
    28     5     7   ar
    29    13    14   ar
    30    14    15   ar
    31    15    10   ar
    32     7     1   ar
    33    26    21   ar
@<TRIPOS>MOLECULE
*****
 31 33 0 0 0
SMALL
GASTEIGER

@<TRIPOS>ATOM
      1 C          -5.7657  -18.0897   22.7653 C.ar    1  UNL1        0.1647
      2 C          -6.8619  -17.1978   22.2625 C.ar    1  UNL1        0.1571
      3 N          -7.7136  -17.6344   21.1075 N.ar    1  UNL1       -0.1616
      4 N          -7.4690  -18.9630   20.4554 N.ar    1  UNL1       -0.2084
      5 C          -6.3728  -19.8548   20.9582 C.ar    1  UNL1        0.2799
      6 O          -6.1283  -21.1833   20.3061 O.2     1  UNL1       -0.2654
      7 C          -5.5211  -19.4181   22.1132 C.ar    1  UNL1        0.1007
      8 O          -4.9140  -17.6530   23.9203 O.3     1  UNL1       -0.4672
      9 C          -3.4225  -17.7952   23.8483 C.3     1  UNL1        0.2509
     10 C          -1.3639  -17.9117   19.8484 C.ar    1  UNL1        0.1578
     11 C          -1.6009  -19.1836   20.6073 C.ar    1  UNL1        0.0398
     12 C          -2.2871  -19.1448   21.9406 C.ar    1  UNL1        0.0216
     13 C          -2.7363  -17.8340   22.5150 C.ar    1  UNL1        0.1029
     14 N          -2.4994  -16.5621   21.7561 N.ar    1  UNL1       -0.2413
     15 C          -1.8132  -16.6009   20.4228 C.ar    1  UNL1        0.1353
     16 C          -1.4721  -17.7611   17.2570 C.3     1  UNL1        0.2525
     17 O          -0.6777  -17.9506   18.5152 O.3     1  UNL1       -0.4699
     18 C          -8.3207  -19.3996   19.3004 C.3     1  UNL1        0.1992
     19 C          -9.7937  -19.6091   19.4917 C.2     1  UNL1        0.1974
     20 O         -10.6380  -20.0876   18.3480 O.2     1  UNL1       -0.2892
     21 C         -10.4223  -19.3399   20.8268 C.ar    1  UNL1        0.0328
     22 C         -10.2817  -20.3386   21.9370 C.ar    1  UNL1        0.0023
     23 C         -10.9103  -20.0695   23.2721 C.ar    1  UNL1       -0.0028
     24 C         -11.6796  -18.8016   23.4969 C.ar    1  UNL1       -0.0065
     25 C         -11.8202  -17.8027   22.3867 C.ar    1  UNL1       -0.0071
     26 C         -11.1916  -18.0719   21.0516 C.ar    1  UNL1       -0.0193
     27 C         -11.3322  -17.0731   19.9414 C.3     1  UNL1        0.0311
     28 C         -12.3082  -18.5324   24.8320 C.3     1  UNL1        0.0992
     29 N         -13.7983  -18.4060   24.9475 N.3     1  UNL1       -0.2665
     30 C         -14.6304  -18.1916   23.7180 C.3     1  UNL1        0.0899
     31 C         -14.4565  -18.4940   26.2926 C.3     1  UNL1        0.0899
@<TRIPOS>BOND
     1    16    17    1
     2    17    10    1
     3    10    11   ar
     4    11    12   ar
     5    12    13   ar
     6    13     9    1
     7     9     8    1
     8     8     1    1
     9     1     2   ar
    10     2     3   ar
    11     3     4   ar
    12     4    18    1
    13    18    19    1
    14    19    20    2
    15    19    21    1
    16    21    22   ar
    17    22    23   ar
    18    23    24   ar
    19    24    28    1
    20    28    29    1
    21    29    30    1
    22    29    31    1
    23    24    25   ar
    24    25    26   ar
    25    26    27    1
    26     4     5   ar
    27     5     6    2
    28     5     7   ar
    29    13    14   ar
    30    14    15   ar
    31    15    10   ar
    32     7     1   ar
    33    26    21   ar
@<TRIPOS>MOLECULE
*****
 31 33 0 0 0
SMALL
GASTEIGER

@<TRIPOS>ATOM
      1 C           4.7926   -3.1140   19.6053 C.ar    1  UNL1        0.1647
      2 C           3.8188   -2.4821   20.5553 C.ar    1  UNL1        0.1571
      3 N           2.9469   -1.3521   20.0942 N.ar    1  UNL1       -0.1616
      4 N           3.0487   -0.8540   18.6829 N.ar    1  UNL1       -0.2084
      5 C           4.0224   -1.4859   17.7329 C.ar    1  UNL1        0.2799
      6 O           4.1241   -0.9877   16.3217 O.2     1  UNL1       -0.2654
      7 C           4.8943   -2.6159   18.1941 C.ar    1  UNL1        0.1007
      8 O           5.6645   -4.2441   20.0665 O.3     1  UNL1       -0.4672
      9 C           6.9189   -3.9571   20.8373 C.3     1  UNL1        0.2509
     10 C           6.9505   -4.3708   25.3181 C.ar    1  UNL1        0.1578
     11 C           6.2852   -3.1882   24.6788 C.ar    1  UNL1        0.0398
     12 C           6.2746   -3.0503   23.1852 C.ar    1  UNL1        0.0216
     13 C           6.9294   -4.0950   22.3309 C.ar    1  UNL1        0.1029
     14 N           7.5948   -5.2775   22.9703 N.ar    1  UNL1       -0.2413
     15 C           7.6054   -5.4154   24.4639 C.ar    1  UNL1        0.1353
     16 C           6.4908   -5.7816   27.4508 C.3     1  UNL1        0.2525
     17 O           6.9611   -4.5086   26.8118 O.3     1  UNL1       -0.4699
     18 C           2.1767    0.2761   18.2217 C.3     1  UNL1        0.1992
     19 C           2.1431    1.5612   18.9947 C.2     1  UNL1        0.1974
     20 O           3.4008    2.0994   19.6099 O.2     1  UNL1       -0.2892
     21 C           0.8519    2.3080   19.1524 C.ar    1  UNL1        0.0328
     22 C           0.4031    3.2635   18.0867 C.ar    1  UNL1        0.0023
     23 C          -0.8882    4.0103   18.2444 C.ar    1  UNL1       -0.0028
     24 C          -1.7307    3.8017   19.4678 C.ar    1  UNL1       -0.0065
     25 C          -1.2819    2.8462   20.5335 C.ar    1  UNL1       -0.0071
     26 C           0.0094    2.0994   20.3758 C.ar    1  UNL1       -0.0193
     27 C           0.4582    1.1440   21.4415 C.3     1  UNL1        0.0311
     28 C          -3.0219    4.5485   19.6255 C.3     1  UNL1        0.0992
     29 N          -4.3227    3.8734   19.3057 N.3     1  UNL1       -0.2665
     30 C          -4.7713    3.7469   17.8799 C.3     1  UNL1        0.0899
     31 C          -5.1748    3.3249   20.4116 C.3     1  UNL1        0.0899
@<TRIPOS>BOND
     1    16    17    1
     2    17    10    1
     3    10    11   ar
     4    11    12   ar
     5    12    13   ar
     6    13     9    1
     7     9     8    1
     8     8     1    1
     9     1     2   ar
    10     2     3   ar
    11     3     4   ar
    12     4    18    1
    13    18    19    1
    14    19    20    2
    15    19    21    1
    16    21    22   ar
    17    22    23   ar
    18    23    24   ar
    19    24    28    1
    20    28    29    1
    21    29    30    1
    22    29    31    1
    23    24    25   ar
    24    25    26   ar
    25    26    27    1
    26     4     5   ar
    27     5     6    2
    28     5     7   ar
    29    13    14   ar
    30    14    15   ar
    31    15    10   ar
    32     7     1   ar
    33    26    21   ar
@<TRIPOS>MOLECULE
*****
 31 33 0 0 0
SMALL
GASTEIGER

@<TRIPOS>ATOM
      1 C           7.2762   -4.2000   23.2855 C.ar    1  UNL1        0.1647
      2 C           8.0062   -4.6661   22.0608 C.ar    1  UNL1        0.1571
      3 N           7.3995   -4.4643   20.7039 N.ar    1  UNL1       -0.1616
      4 N           6.0629   -3.7964   20.5717 N.ar    1  UNL1       -0.2084
      5 C           5.3330   -3.3304   21.7964 C.ar    1  UNL1        0.2799
      6 O           3.9964   -2.6625   21.6641 O.2     1  UNL1       -0.2654
      7 C           5.9396   -3.5321   23.1533 C.ar    1  UNL1        0.1007
      8 O           7.8828   -4.4018   24.6425 O.3     1  UNL1       -0.4672
      9 C           7.2908   -5.4055   25.5869 C.3     1  UNL1        0.2509
     10 C           6.7189   -4.3498   29.9238 C.ar    1  UNL1        0.1578
     11 C           7.1531   -5.7332   29.5396 C.ar    1  UNL1        0.0398
     12 C           7.3437   -6.0851   28.0940 C.ar    1  UNL1        0.0216
     13 C           7.1002   -5.0536   27.0326 C.ar    1  UNL1        0.1029
     14 N           6.6660   -3.6702   27.4168 N.ar    1  UNL1       -0.2413
     15 C           6.4753   -3.3183   28.8624 C.ar    1  UNL1        0.1353
     16 C           7.5712   -3.1962   32.0901 C.3     1  UNL1        0.2525
     17 O           6.5282   -3.9979   31.3694 O.3     1  UNL1       -0.4699
     18 C           5.4563   -3.5947   19.2147 C.3     1  UNL1        0.1992
     19 C           5.7786   -2.3607   18.4250 C.2     1  UNL1        0.1974
     20 O           6.9674   -2.3448   17.5105 O.2     1  UNL1       -0.2892
     21 C           4.9121   -1.1427   18.5499 C.ar    1  UNL1        0.0328
     22 C           3.6785   -1.0102   17.7070 C.ar    1  UNL1        0.0023
     23 C           2.8120    0.2078   17.8319 C.ar    1  UNL1       -0.0028
     24 C           3.1791    1.2934   18.7998 C.ar    1  UNL1       -0.0065
     25 C           4.4128    1.1609   19.6428 C.ar    1  UNL1       -0.0071
     26 C           5.2793   -0.0571   19.5179 C.ar    1  UNL1       -0.0193
     27 C           6.5129   -0.1896   20.3608 C.3     1  UNL1        0.0311
     28 C           2.3126    2.5114   18.9247 C.3     1  UNL1        0.0992
     29 N           0.8239    2.3647   19.0348 N.3     1  UNL1       -0.2665
     30 C          -0.0710    3.0204   18.0253 C.3     1  UNL1        0.0899
     31 C           0.2301    1.5621   20.1544 C.3     1  UNL1        0.0899
@<TRIPOS>BOND
     1    16    17    1
     2    17    10    1
     3    10    11   ar
     4    11    12   ar
     5    12    13   ar
     6    13     9    1
     7     9     8    1
     8     8     1    1
     9     1     2   ar
    10     2     3   ar
    11     3     4   ar
    12     4    18    1
    13    18    19    1
    14    19    20    2
    15    19    21    1
    16    21    22   ar
    17    22    23   ar
    18    23    24   ar
    19    24    28    1
    20    28    29    1
    21    29    30    1
    22    29    31    1
    23    24    25   ar
    24    25    26   ar
    25    26    27    1
    26     4     5   ar
    27     5     6    2
    28     5     7   ar
    29    13    14   ar
    30    14    15   ar
    31    15    10   ar
    32     7     1   ar
    33    26    21   ar
@<TRIPOS>MOLECULE
*****
 31 33 0 0 0
SMALL
GASTEIGER

@<TRIPOS>ATOM
      1 C           5.4110   -3.1339   22.5928 C.ar    1  UNL1        0.1647
      2 C           6.1694   -1.9749   22.0166 C.ar    1  UNL1        0.1571
      3 N           6.0437   -1.6469   20.5583 N.ar    1  UNL1       -0.1616
      4 N           5.1597   -2.4779   19.6762 N.ar    1  UNL1       -0.2084
      5 C           4.4015   -3.6367   20.2523 C.ar    1  UNL1        0.2799
      6 O           3.5175   -4.4676   19.3701 O.2     1  UNL1       -0.2654
      7 C           4.5271   -3.9648   21.7106 C.ar    1  UNL1        0.1007
      8 O           5.5367   -3.4619   24.0510 O.3     1  UNL1       -0.4672
      9 C           6.8253   -4.0104   24.5881 C.3     1  UNL1        0.2509
     10 C           7.0512   -5.4713   28.8384 C.ar    1  UNL1        0.1578
     11 C           6.7989   -4.0198   28.5566 C.ar    1  UNL1        0.0398
     12 C           6.7236   -3.5328   27.1398 C.ar    1  UNL1        0.0216
     13 C           6.9006   -4.4974   26.0048 C.ar    1  UNL1        0.1029
     14 N           7.1530   -5.9489   26.2866 N.ar    1  UNL1       -0.2413
     15 C           7.2283   -6.4358   27.7034 C.ar    1  UNL1        0.1353
     16 C           6.8959   -5.0042   31.3894 C.3     1  UNL1        0.2525
     17 O           7.1265   -5.9582   30.2551 O.3     1  UNL1       -0.4699
     18 C           5.0341   -2.1499   18.2179 C.3     1  UNL1        0.1992
     19 C           3.9650   -1.2071   17.7506 C.2     1  UNL1        0.1974
     20 O           3.7273   -1.0109   16.2826 O.2     1  UNL1       -0.2892
     21 C           3.1336   -0.4606   18.7513 C.ar    1  UNL1        0.0328
     22 C           1.9513   -1.1269   19.3903 C.ar    1  UNL1        0.0023
     23 C           1.1199   -0.3804   20.3911 C.ar    1  UNL1       -0.0028
     24 C           1.4708    1.0324   20.7529 C.ar    1  UNL1       -0.0065
     25 C           2.6531    1.6987   20.1139 C.ar    1  UNL1       -0.0071
     26 C           3.4845    0.9522   19.1131 C.ar    1  UNL1       -0.0193
     27 C           4.6667    1.6185   18.4741 C.3     1  UNL1        0.0311
     28 C           0.6394    1.7789   21.7536 C.3     1  UNL1        0.0992
     29 N           0.9006    1.6098   23.2209 N.3     1  UNL1       -0.2665
     30 C           2.0300    0.7391   23.6862 C.3     1  UNL1        0.0899
     31 C           0.0326    2.3115   24.2231 C.3     1  UNL1        0.0899
@<TRIPOS>BOND
     1    16    17    1
     2    17    10    1
     3    10    11   ar
     4    11    12   ar
     5    12    13   ar
     6    13     9    1
     7     9     8    1
     8     8     1    1
     9     1     2   ar
    10     2     3   ar
    11     3     4   ar
    12     4    18    1
    13    18    19    1
    14    19    20    2
    15    19    21    1
    16    21    22   ar
    17    22    23   ar
    18    23    24   ar
    19    24    28    1
    20    28    29    1
    21    29    30    1
    22    29    31    1
    23    24    25   ar
    24    25    26   ar
    25    26    27    1
    26     4     5   ar
    27     5     6    2
    28     5     7   ar
    29    13    14   ar
    30    14    15   ar
    31    15    10   ar
    32     7     1   ar
    33    26    21   ar
