@<TRIPOS>MOLECULE
*****
 43 45 0 0 0
SMALL
GASTEIGER

@<TRIPOS>ATOM
      1 C           0.7175    3.0450   19.0244 C.ar    1  UNL1        0.0539
      2 S          -0.4258    3.2004   18.0661 S.2     1  UNL1       -0.0619
      3 C          -1.2384    4.3836   18.5018 C.ar    1  UNL1        0.1641
      4 N          -0.5973    4.9594   19.7295 N.ar    1  UNL1       -0.2291
      5 C           0.6116    4.1321   20.0525 C.ar    1  UNL1        0.1414
      6 C           1.5498    4.3532   21.2019 C.2     1  UNL1        0.2672
      7 O           2.8811    5.0038   20.9688 O.2     1  UNL1       -0.2682
      8 N           1.1567    3.9236   22.5842 N.am    1  UNL1       -0.2765
      9 C           2.0949    4.1447   23.7335 C.3     1  UNL1        0.0937
     10 C           1.7018    3.7151   25.1159 C.3     1  UNL1        0.0216
     11 C           0.3705    3.0645   25.3490 C.3     1  UNL1        0.0035
     12 C          -0.5677    2.8434   24.1997 C.3     1  UNL1        0.0199
     13 C          -0.1746    3.2730   22.8173 C.3     1  UNL1        0.0757
     14 C          -1.1128    3.0519   21.6680 C.3     1  UNL1        0.0215
     15 C           3.9057   -0.1258   18.8466 C.ar    1  UNL1        0.1333
     16 C           4.1625    1.2298   18.2580 C.ar    1  UNL1        0.0208
     17 C           3.0998    2.2867   18.3173 C.ar    1  UNL1        0.0028
     18 C           1.7803    1.9881   18.9651 C.ar    1  UNL1        0.0191
     19 C           1.5235    0.6325   19.5537 C.ar    1  UNL1        0.0700
     20 CL          0.2040    0.3338   20.2016 Cl      1  UNL1       -0.0813
     21 C           2.5863   -0.4244   19.4944 C.ar    1  UNL1        0.0867
     22 CL          2.3294   -1.7801   20.0830 Cl      1  UNL1       -0.0800
     23 S           4.9685   -1.1827   18.7873 S.O2    1  UNL1        0.0613
     24 O           5.4301   -0.7956   20.1610 O.2     1  UNL1       -0.1530
     25 O           4.5068   -1.5698   17.4136 O.2     1  UNL1       -0.1530
     26 N           6.0312   -2.2396   18.7280 N.3     1  UNL1       -0.1723
     27 H           6.0407   -2.5943   17.7717 H       1  UNL1        0.1491
     28 C           7.1193   -3.7931   20.5036 C.3     1  UNL1        0.0278
     29 C           5.9524   -3.4339   19.6320 C.3     1  UNL1        0.1701
     30 C           4.7069   -4.2691   19.6646 C.3     1  UNL1        0.4118
     31 F           3.4613   -5.1043   19.6971 F       1  UNL1       -0.1685
     32 F           4.9080   -4.6253   18.2214 F       1  UNL1       -0.1685
     33 F           4.5057   -3.9129   21.1077 F       1  UNL1       -0.1685
     34 C          -2.4751    4.9002   17.8281 C.2     1  UNL1        0.2699
     35 O          -2.3632    5.9253   16.7388 O.2     1  UNL1       -0.2679
     36 N          -3.8236    4.3916   18.2437 N.am    1  UNL1       -0.2969
     37 H          -3.8971    3.7188   18.9587 H       1  UNL1        0.1499
     38 C          -5.0602    4.9082   17.5700 C.3     1  UNL1        0.1166
     39 C          -6.4130    4.5639   18.1194 C.3     1  UNL1        0.1064
     40 C          -6.9776    5.8141   17.5125 C.3     1  UNL1        0.0311
     41 C          -5.8483    3.3136   18.7261 C.3     1  UNL1        0.0311
     42 O          -7.7657    4.2196   18.6687 O.3     1  UNL1       -0.3851
     43 H          -8.4015    4.9076   18.4171 H       1  UNL1        0.2103
@<TRIPOS>BOND
     1    29    28    1
     2    29    26    1
     3    26    23    1
     4    23    24    2
     5    23    25    2
     6    23    15    1
     7    15    16   ar
     8    16    17   ar
     9    17    18   ar
    10    18     1    1
    11     1     2   ar
    12     2     3   ar
    13     3    34    1
    14    34    35    2
    15    34    36   am
    16    36    38    1
    17    38    39    1
    18    39    40    1
    19    39    41    1
    20    39    42    1
    21     3     4   ar
    22     4     5   ar
    23     5     6    1
    24     6     7    2
    25     6     8   am
    26     8     9    1
    27     9    10    1
    28    10    11    1
    29    11    12    1
    30    12    13    1
    31    13    14    1
    32    18    19   ar
    33    19    20    1
    34    19    21   ar
    35    21    22    1
    36    29    30    1
    37    30    31    1
    38    30    32    1
    39    30    33    1
    40    21    15   ar
    41     5     1   ar
    42    13     8    1
    43    26    27    1
    44    36    37    1
    45    42    43    1
@<TRIPOS>MOLECULE
*****
 43 45 0 0 0
SMALL
GASTEIGER

@<TRIPOS>ATOM
      1 C           1.3442    2.1468   18.9346 C.ar    1  UNL1        0.0539
      2 S           1.6190    0.7084   18.6097 S.2     1  UNL1       -0.0619
      3 C           3.0340    0.6054   18.1225 C.ar    1  UNL1        0.1641
      4 N           3.6337    1.9801   18.1463 N.ar    1  UNL1       -0.2291
      5 C           2.5893    2.9327   18.6482 C.ar    1  UNL1        0.1414
      6 C           2.7602    4.4116   18.8315 C.2     1  UNL1        0.2672
      7 O           2.4282    5.3498   17.7090 O.2     1  UNL1       -0.2682
      8 N           3.2630    4.9525   20.1370 N.am    1  UNL1       -0.2765
      9 C           3.4338    6.4314   20.3203 C.3     1  UNL1        0.0937
     10 C           3.9366    6.9722   21.6260 C.3     1  UNL1        0.0216
     11 C           4.2686    6.0341   22.7484 C.3     1  UNL1        0.0035
     12 C           4.0978    4.5552   22.5652 C.3     1  UNL1        0.0199
     13 C           3.5950    4.0144   21.2595 C.3     1  UNL1        0.0757
     14 C           3.4241    2.5354   21.0762 C.3     1  UNL1        0.0215
     15 C          -2.5344    3.8118   20.4946 C.ar    1  UNL1        0.1333
     16 C          -1.6200    3.0555   21.4120 C.ar    1  UNL1        0.0208
     17 C          -0.3271    2.5005   20.8920 C.ar    1  UNL1        0.0028
     18 C           0.0513    2.7018   19.4546 C.ar    1  UNL1        0.0191
     19 C          -0.8631    3.4581   18.5372 C.ar    1  UNL1        0.0700
     20 CL         -0.4847    3.6595   17.0997 Cl      1  UNL1       -0.0813
     21 C          -2.1560    4.0131   19.0572 C.ar    1  UNL1        0.0867
     22 CL         -3.0705    4.7695   18.1397 Cl      1  UNL1       -0.0800
     23 S          -3.8273    4.3668   21.0146 S.O2    1  UNL1        0.0613
     24 O          -4.5419    3.1293   20.5587 O.2     1  UNL1       -0.1530
     25 O          -3.1127    5.6044   21.4704 O.2     1  UNL1       -0.1530
     26 N          -5.1202    4.9219   21.5346 N.3     1  UNL1       -0.1723
     27 H          -4.9701    5.9181   21.6939 H       1  UNL1        0.1491
     28 C          -7.2131    4.2808   22.9343 C.3     1  UNL1        0.0278
     29 C          -5.7224    4.3682   22.7919 C.3     1  UNL1        0.1701
     30 C          -4.8338    3.9019   23.9068 C.3     1  UNL1        0.4118
     31 F          -3.9453    3.4356   25.0218 F       1  UNL1       -0.1685
     32 F          -5.0669    2.4779   23.4970 F       1  UNL1       -0.1685
     33 F          -4.6008    5.3259   24.3167 F       1  UNL1       -0.1685
     34 C           3.7274   -0.6517   17.6878 C.2     1  UNL1        0.2699
     35 O           3.7940   -1.0065   16.2319 O.2     1  UNL1       -0.2679
     36 N           4.3543   -1.5539   18.7091 N.am    1  UNL1       -0.2969
     37 H           4.3106   -1.3210   19.6647 H       1  UNL1        0.1499
     38 C           5.0477   -2.8110   18.2745 C.3     1  UNL1        0.1166
     39 C           5.5471   -3.7851   19.3002 C.3     1  UNL1        0.1064
     40 C           6.5989   -2.8021   19.7216 C.3     1  UNL1        0.0311
     41 C           4.4953   -4.7680   18.8787 C.3     1  UNL1        0.0311
     42 O           6.0464   -4.7591   20.3258 O.3     1  UNL1       -0.3851
     43 H           6.7953   -4.3698   20.8038 H       1  UNL1        0.2103
@<TRIPOS>BOND
     1    29    28    1
     2    29    26    1
     3    26    23    1
     4    23    24    2
     5    23    25    2
     6    23    15    1
     7    15    16   ar
     8    16    17   ar
     9    17    18   ar
    10    18     1    1
    11     1     2   ar
    12     2     3   ar
    13     3    34    1
    14    34    35    2
    15    34    36   am
    16    36    38    1
    17    38    39    1
    18    39    40    1
    19    39    41    1
    20    39    42    1
    21     3     4   ar
    22     4     5   ar
    23     5     6    1
    24     6     7    2
    25     6     8   am
    26     8     9    1
    27     9    10    1
    28    10    11    1
    29    11    12    1
    30    12    13    1
    31    13    14    1
    32    18    19   ar
    33    19    20    1
    34    19    21   ar
    35    21    22    1
    36    29    30    1
    37    30    31    1
    38    30    32    1
    39    30    33    1
    40    21    15   ar
    41     5     1   ar
    42    13     8    1
    43    26    27    1
    44    36    37    1
    45    42    43    1
@<TRIPOS>MOLECULE
*****
 43 45 0 0 0
SMALL
GASTEIGER

@<TRIPOS>ATOM
      1 C           5.0212   -1.9563   20.6250 C.ar    1  UNL1        0.0539
      2 S           5.4562   -2.8718   21.7307 S.2     1  UNL1       -0.0619
      3 C           6.7199   -3.5540   21.2976 C.ar    1  UNL1        0.1641
      4 N           7.0660   -3.0602   19.9241 N.ar    1  UNL1       -0.2291
      5 C           6.0161   -2.0728   19.5085 C.ar    1  UNL1        0.1414
      6 C           5.9694   -1.3318   18.2050 C.2     1  UNL1        0.2672
      7 O           4.9823   -1.7331   17.1492 O.2     1  UNL1       -0.2682
      8 N           6.9096   -0.1897   17.9574 N.am    1  UNL1       -0.2765
      9 C           6.8629    0.5512   16.6540 C.3     1  UNL1        0.0937
     10 C           7.8032    1.6933   16.4064 C.3     1  UNL1        0.0216
     11 C           8.7903    2.0946   17.4622 C.3     1  UNL1        0.0035
     12 C           8.8370    1.3538   18.7656 C.3     1  UNL1        0.0199
     13 C           7.8968    0.2116   19.0132 C.3     1  UNL1        0.0757
     14 C           7.9435   -0.5293   20.3166 C.3     1  UNL1        0.0215
     15 C           1.3723    0.6770   20.6524 C.ar    1  UNL1        0.1333
     16 C           1.2925   -0.7093   20.0854 C.ar    1  UNL1        0.0208
     17 C           2.5088   -1.5871   20.0763 C.ar    1  UNL1        0.0028
     18 C           3.8049   -1.0785   20.6341 C.ar    1  UNL1        0.0191
     19 C           3.8848    0.3078   21.2011 C.ar    1  UNL1        0.0700
     20 CL          5.1810    0.8165   21.7590 Cl      1  UNL1       -0.0813
     21 C           2.6685    1.1856   21.2103 C.ar    1  UNL1        0.0867
     22 CL          2.7484    2.5721   21.7773 Cl      1  UNL1       -0.0800
     23 S           0.1560    1.5548   20.6616 S.O2    1  UNL1        0.0613
     24 O          -0.1744    1.0826   22.0465 O.2     1  UNL1       -0.1530
     25 O           0.4864    2.0271   19.2767 O.2     1  UNL1       -0.1530
     26 N          -1.0603    2.4326   20.6708 N.3     1  UNL1       -0.1723
     27 H          -1.1311    2.8473   19.7416 H       1  UNL1        0.1491
     28 C          -0.0904    4.6026   21.7199 C.3     1  UNL1        0.0278
     29 C          -1.1654    3.5583   21.6565 C.3     1  UNL1        0.1701
     30 C          -2.3455    3.6399   22.5789 C.3     1  UNL1        0.4118
     31 F          -3.5256    3.7214   23.5012 F       1  UNL1       -0.1685
     32 F          -1.4536    3.3381   23.7466 F       1  UNL1       -0.1685
     33 F          -3.2373    3.9416   21.4112 F       1  UNL1       -0.1685
     34 C           7.5005   -4.5545   22.0975 C.2     1  UNL1        0.2699
     35 O           8.4210   -5.5149   21.4045 O.2     1  UNL1       -0.2679
     36 N           7.3606   -4.5944   23.5904 N.am    1  UNL1       -0.2969
     37 H           6.7565   -3.9640   24.0452 H       1  UNL1        0.1499
     38 C           8.1412   -5.5948   24.3903 C.3     1  UNL1        0.1166
     39 C           7.4745   -6.3516   25.5007 C.3     1  UNL1        0.1064
     40 C           6.8430   -5.0811   25.9875 C.3     1  UNL1        0.0311
     41 C           8.1062   -7.6222   25.0139 C.3     1  UNL1        0.0311
     42 O           6.8079   -7.1084   26.6110 O.3     1  UNL1       -0.3851
     43 H           6.2791   -6.4970   27.1472 H       1  UNL1        0.2103
@<TRIPOS>BOND
     1    29    28    1
     2    29    26    1
     3    26    23    1
     4    23    24    2
     5    23    25    2
     6    23    15    1
     7    15    16   ar
     8    16    17   ar
     9    17    18   ar
    10    18     1    1
    11     1     2   ar
    12     2     3   ar
    13     3    34    1
    14    34    35    2
    15    34    36   am
    16    36    38    1
    17    38    39    1
    18    39    40    1
    19    39    41    1
    20    39    42    1
    21     3     4   ar
    22     4     5   ar
    23     5     6    1
    24     6     7    2
    25     6     8   am
    26     8     9    1
    27     9    10    1
    28    10    11    1
    29    11    12    1
    30    12    13    1
    31    13    14    1
    32    18    19   ar
    33    19    20    1
    34    19    21   ar
    35    21    22    1
    36    29    30    1
    37    30    31    1
    38    30    32    1
    39    30    33    1
    40    21    15   ar
    41     5     1   ar
    42    13     8    1
    43    26    27    1
    44    36    37    1
    45    42    43    1
@<TRIPOS>MOLECULE
*****
 43 45 0 0 0
SMALL
GASTEIGER

@<TRIPOS>ATOM
      1 C           0.3626    2.7983   21.8167 C.ar    1  UNL1        0.0539
      2 S          -1.0039    3.0476   21.2505 S.2     1  UNL1       -0.0619
      3 C          -1.6604    4.1140   22.0761 C.ar    1  UNL1        0.1641
      4 N          -0.6996    4.5240   23.1526 N.ar    1  UNL1       -0.2291
      5 C           0.5506    3.7108   22.9923 C.ar    1  UNL1        0.1414
      6 C           1.7741    3.7954   23.8560 C.2     1  UNL1        0.2672
      7 O           2.9153    4.6825   23.4551 O.2     1  UNL1       -0.2682
      8 N           1.8564    2.9928   25.1205 N.am    1  UNL1       -0.2765
      9 C           3.0799    3.0774   25.9842 C.3     1  UNL1        0.0937
     10 C           3.1622    2.2748   27.2488 C.3     1  UNL1        0.0216
     11 C           2.0211    1.3877   27.6497 C.3     1  UNL1        0.0035
     12 C           0.7975    1.3031   26.7860 C.3     1  UNL1        0.0199
     13 C           0.7152    2.1057   25.5215 C.3     1  UNL1        0.0757
     14 C          -0.5082    2.0211   24.6578 C.3     1  UNL1        0.0215
     15 C           3.3699   -0.1661   20.2618 C.ar    1  UNL1        0.1333
     16 C           2.2924   -0.6149   21.2038 C.ar    1  UNL1        0.0208
     17 C           1.2900    0.3733   21.7222 C.ar    1  UNL1        0.0028
     18 C           1.3650    1.8102   21.2984 C.ar    1  UNL1        0.0191
     19 C           2.4426    2.2589   20.3564 C.ar    1  UNL1        0.0700
     20 CL          2.5177    3.6959   19.9326 Cl      1  UNL1       -0.0813
     21 C           3.4450    1.2708   19.8380 C.ar    1  UNL1        0.0867
     22 CL          4.5226    1.7196   18.8959 Cl      1  UNL1       -0.0800
     23 S           4.3724   -1.1543   19.7435 S.O2    1  UNL1        0.0613
     24 O           5.2299   -0.9179   20.9512 O.2     1  UNL1       -0.1530
     25 O           3.5148   -1.3907   18.5357 O.2     1  UNL1       -0.1530
     26 N           5.3748   -2.1425   19.2251 N.3     1  UNL1       -0.1723
     27 H           5.1578   -2.2928   18.2399 H       1  UNL1        0.1491
     28 C           6.7655   -3.9145   20.5197 C.3     1  UNL1        0.0278
     29 C           5.4861   -3.4988   19.8559 C.3     1  UNL1        0.1701
     30 C           4.3182   -4.4395   19.8228 C.3     1  UNL1        0.4118
     31 F           3.1503   -5.3802   19.7897 F       1  UNL1       -0.1685
     32 F           4.5430   -4.6670   18.3573 F       1  UNL1       -0.1685
     33 F           4.0935   -4.2120   21.2883 F       1  UNL1       -0.1685
     34 C          -3.0361    4.6725   21.8626 C.2     1  UNL1        0.2699
     35 O          -3.5293    4.9402   20.4716 O.2     1  UNL1       -0.2679
     36 N          -3.9185    4.9633   23.0402 N.am    1  UNL1       -0.2969
     37 H          -3.5947    4.7876   23.9532 H       1  UNL1        0.1499
     38 C          -5.2942    5.5217   22.8267 C.3     1  UNL1        0.1166
     39 C          -6.4934    4.6291   22.9501 C.3     1  UNL1        0.1064
     40 C          -6.8832    4.9578   21.5394 C.3     1  UNL1        0.0311
     41 C          -6.1035    4.3004   24.3608 C.3     1  UNL1        0.0311
     42 O          -7.6926    3.7365   23.0735 O.3     1  UNL1       -0.3851
     43 H          -8.1888    3.7445   22.2401 H       1  UNL1        0.2103
@<TRIPOS>BOND
     1    29    28    1
     2    29    26    1
     3    26    23    1
     4    23    24    2
     5    23    25    2
     6    23    15    1
     7    15    16   ar
     8    16    17   ar
     9    17    18   ar
    10    18     1    1
    11     1     2   ar
    12     2     3   ar
    13     3    34    1
    14    34    35    2
    15    34    36   am
    16    36    38    1
    17    38    39    1
    18    39    40    1
    19    39    41    1
    20    39    42    1
    21     3     4   ar
    22     4     5   ar
    23     5     6    1
    24     6     7    2
    25     6     8   am
    26     8     9    1
    27     9    10    1
    28    10    11    1
    29    11    12    1
    30    12    13    1
    31    13    14    1
    32    18    19   ar
    33    19    20    1
    34    19    21   ar
    35    21    22    1
    36    29    30    1
    37    30    31    1
    38    30    32    1
    39    30    33    1
    40    21    15   ar
    41     5     1   ar
    42    13     8    1
    43    26    27    1
    44    36    37    1
    45    42    43    1
@<TRIPOS>MOLECULE
*****
 43 45 0 0 0
SMALL
GASTEIGER

@<TRIPOS>ATOM
      1 C           3.9469    0.4473   32.2560 C.ar    1  UNL1        0.0539
      2 S           3.5348    0.5429   33.6951 S.2     1  UNL1       -0.0619
      3 C           4.7580    0.3494   34.5414 C.ar    1  UNL1        0.1641
      4 N           5.9261    0.1342   33.6254 N.ar    1  UNL1       -0.2291
      5 C           5.4248    0.1947   32.2129 C.ar    1  UNL1        0.1414
      6 C           6.2556    0.0313   30.9747 C.2     1  UNL1        0.2672
      7 O           6.7161    1.2403   30.2155 O.2     1  UNL1       -0.2682
      8 N           6.6261   -1.3410   30.4958 N.am    1  UNL1       -0.2765
      9 C           7.4569   -1.5044   29.2576 C.3     1  UNL1        0.0937
     10 C           7.8273   -2.8768   28.7787 C.3     1  UNL1        0.0216
     11 C           7.3670   -4.0858   29.5378 C.3     1  UNL1        0.0035
     12 C           6.5361   -3.9224   30.7760 C.3     1  UNL1        0.0199
     13 C           6.1657   -2.5501   31.2550 C.3     1  UNL1        0.0757
     14 C           5.3349   -2.3867   32.4931 C.3     1  UNL1        0.0215
     15 C           1.2270    0.8480   28.6935 C.ar    1  UNL1        0.1333
     16 C           1.7886   -0.4934   29.0611 C.ar    1  UNL1        0.0208
     17 C           2.6953   -0.6269   30.2486 C.ar    1  UNL1        0.0028
     18 C           3.0402    0.5809   31.0685 C.ar    1  UNL1        0.0191
     19 C           2.4786    1.9222   30.7008 C.ar    1  UNL1        0.0700
     20 CL          2.8236    3.1301   31.5206 Cl      1  UNL1       -0.0813
     21 C           1.5719    2.0558   29.5133 C.ar    1  UNL1        0.0867
     22 CL          1.0103    3.3973   29.1456 Cl      1  UNL1       -0.0800
     23 S           0.3203    0.9816   27.5060 S.O2    1  UNL1        0.0613
     24 O          -0.8630    0.6735   28.3748 O.2     1  UNL1       -0.1530
     25 O           1.5037    1.2896   26.6372 O.2     1  UNL1       -0.1530
     26 N          -0.5863    1.1151   26.3185 N.3     1  UNL1       -0.1723
     27 H          -0.2103    0.5069   25.5911 H       1  UNL1        0.1491
     28 C          -0.5354    2.6548   24.2264 C.3     1  UNL1        0.0278
     29 C          -0.8047    2.4590   25.6890 C.3     1  UNL1        0.1701
     30 C          -1.2925    3.6071   26.5221 C.3     1  UNL1        0.4118
     31 F          -1.7802    4.7551   27.3552 F       1  UNL1       -0.1685
     32 F          -2.5363    2.8374   26.8545 F       1  UNL1       -0.1685
     33 F          -0.0487    4.3767   26.1896 F       1  UNL1       -0.1685
     34 C           4.8049    0.3678   36.0406 C.2     1  UNL1        0.2699
     35 O           5.7588   -0.5292   36.7723 O.2     1  UNL1       -0.2679
     36 N           3.8977    1.2833   36.8080 N.am    1  UNL1       -0.2969
     37 H           3.2716    1.8721   36.3278 H       1  UNL1        0.1499
     38 C           3.9446    1.3018   38.3072 C.3     1  UNL1        0.1166
     39 C           2.8010    1.8811   39.0862 C.3     1  UNL1        0.1064
     40 C           2.0516    0.5892   38.9467 C.3     1  UNL1        0.0311
     41 C           3.5505    3.1730   39.2255 C.3     1  UNL1        0.0311
     42 O           1.6575    2.4605   39.8651 O.3     1  UNL1       -0.3851
     43 H           0.9541    1.7977   39.9480 H       1  UNL1        0.2103
@<TRIPOS>BOND
     1    29    28    1
     2    29    26    1
     3    26    23    1
     4    23    24    2
     5    23    25    2
     6    23    15    1
     7    15    16   ar
     8    16    17   ar
     9    17    18   ar
    10    18     1    1
    11     1     2   ar
    12     2     3   ar
    13     3    34    1
    14    34    35    2
    15    34    36   am
    16    36    38    1
    17    38    39    1
    18    39    40    1
    19    39    41    1
    20    39    42    1
    21     3     4   ar
    22     4     5   ar
    23     5     6    1
    24     6     7    2
    25     6     8   am
    26     8     9    1
    27     9    10    1
    28    10    11    1
    29    11    12    1
    30    12    13    1
    31    13    14    1
    32    18    19   ar
    33    19    20    1
    34    19    21   ar
    35    21    22    1
    36    29    30    1
    37    30    31    1
    38    30    32    1
    39    30    33    1
    40    21    15   ar
    41     5     1   ar
    42    13     8    1
    43    26    27    1
    44    36    37    1
    45    42    43    1
@<TRIPOS>MOLECULE
*****
 43 45 0 0 0
SMALL
GASTEIGER

@<TRIPOS>ATOM
      1 C           6.1468   -2.0956   25.6646 C.ar    1  UNL1        0.0539
      2 S           5.5228   -1.6610   26.9575 S.2     1  UNL1       -0.0619
      3 C           6.4840   -1.9761   28.0651 C.ar    1  UNL1        0.1641
      4 N           7.7021   -2.6055   27.4567 N.ar    1  UNL1       -0.2291
      5 C           7.4936   -2.6793   25.9731 C.ar    1  UNL1        0.1414
      6 C           8.4621   -3.2387   24.9735 C.2     1  UNL1        0.2672
      7 O           9.3782   -2.3194   24.2212 O.2     1  UNL1       -0.2682
      8 N           8.5146   -4.7171   24.7262 N.am    1  UNL1       -0.2765
      9 C           9.4831   -5.2765   23.7266 C.3     1  UNL1        0.0937
     10 C           9.5356   -6.7550   23.4794 C.3     1  UNL1        0.0216
     11 C           8.6196   -7.6743   24.2316 C.3     1  UNL1        0.0035
     12 C           7.6510   -7.1150   25.2313 C.3     1  UNL1        0.0199
     13 C           7.5986   -5.6364   25.4785 C.3     1  UNL1        0.0757
     14 C           6.6301   -5.0771   26.4781 C.3     1  UNL1        0.0215
     15 C           4.3021   -1.7150   21.5777 C.ar    1  UNL1        0.1333
     16 C           4.3719   -3.0555   22.2472 C.ar    1  UNL1        0.0208
     17 C           4.9868   -3.1823   23.6095 C.ar    1  UNL1        0.0028
     18 C           5.5319   -1.9687   24.3023 C.ar    1  UNL1        0.0191
     19 C           5.4621   -0.6283   23.6328 C.ar    1  UNL1        0.0700
     20 CL          6.0071    0.5854   24.3256 Cl      1  UNL1       -0.0813
     21 C           4.8472   -0.5014   22.2705 C.ar    1  UNL1        0.0867
     22 CL          4.7773    0.8391   21.6010 Cl      1  UNL1       -0.0800
     23 S           3.6872   -1.5882   20.2154 S.O2    1  UNL1        0.0613
     24 O           2.3600   -1.2807   20.8431 O.2     1  UNL1       -0.1530
     25 O           5.0144   -1.8956   19.5877 O.2     1  UNL1       -0.1530
     26 N           3.0723   -1.4613   18.8532 N.3     1  UNL1       -0.1723
     27 H           3.2838   -2.3248   18.3531 H       1  UNL1        0.1491
     28 C           4.2662   -0.6056   16.7101 C.3     1  UNL1        0.0278
     29 C           3.4717   -0.3304   17.9524 C.3     1  UNL1        0.1701
     30 C           3.0766    1.0758   18.2938 C.3     1  UNL1        0.4118
     31 F           2.6815    2.4820   18.6351 F       1  UNL1       -0.1685
     32 F           1.6331    0.6680   18.3031 F       1  UNL1       -0.1685
     33 F           4.5201    1.4836   18.2844 F       1  UNL1       -0.1685
     34 C           6.2654   -1.7088   29.5249 C.2     1  UNL1        0.2699
     35 O           7.4165   -1.7915   30.4831 O.2     1  UNL1       -0.2679
     36 N           4.8958   -1.3587   30.0263 N.am    1  UNL1       -0.2969
     37 H           4.1403   -1.3043   29.3974 H       1  UNL1        0.1499
     38 C           4.6773   -1.0914   31.4861 C.3     1  UNL1        0.1166
     39 C           3.4968   -0.2799   31.9314 C.3     1  UNL1        0.1064
     40 C           2.8296   -0.5256   30.6106 C.3     1  UNL1        0.0311
     41 C           4.1641   -0.0342   33.2522 C.3     1  UNL1        0.0311
     42 O           2.3165    0.5316   32.3767 O.3     1  UNL1       -0.3851
     43 H           1.6552    0.5567   31.6675 H       1  UNL1        0.2103
@<TRIPOS>BOND
     1    29    28    1
     2    29    26    1
     3    26    23    1
     4    23    24    2
     5    23    25    2
     6    23    15    1
     7    15    16   ar
     8    16    17   ar
     9    17    18   ar
    10    18     1    1
    11     1     2   ar
    12     2     3   ar
    13     3    34    1
    14    34    35    2
    15    34    36   am
    16    36    38    1
    17    38    39    1
    18    39    40    1
    19    39    41    1
    20    39    42    1
    21     3     4   ar
    22     4     5   ar
    23     5     6    1
    24     6     7    2
    25     6     8   am
    26     8     9    1
    27     9    10    1
    28    10    11    1
    29    11    12    1
    30    12    13    1
    31    13    14    1
    32    18    19   ar
    33    19    20    1
    34    19    21   ar
    35    21    22    1
    36    29    30    1
    37    30    31    1
    38    30    32    1
    39    30    33    1
    40    21    15   ar
    41     5     1   ar
    42    13     8    1
    43    26    27    1
    44    36    37    1
    45    42    43    1
@<TRIPOS>MOLECULE
*****
 43 45 0 0 0
SMALL
GASTEIGER

@<TRIPOS>ATOM
      1 C           2.5850    0.9017   22.1713 C.ar    1  UNL1        0.0539
      2 S           1.2019    1.4818   22.1472 S.2     1  UNL1       -0.0619
      3 C           0.9338    1.9837   20.7593 C.ar    1  UNL1        0.1641
      4 N           2.1511    1.7138   19.9256 N.ar    1  UNL1       -0.2291
      5 C           3.1716    1.0451   20.7982 C.ar    1  UNL1        0.1414
      6 C           4.5388    0.5982   20.3725 C.2     1  UNL1        0.2672
      7 O           5.7157    1.5110   20.5512 O.2     1  UNL1       -0.2682
      8 N           4.7291   -0.7613   19.7681 N.am    1  UNL1       -0.2765
      9 C           6.0962   -1.2082   19.3424 C.3     1  UNL1        0.0937
     10 C           6.2865   -2.5678   18.7380 C.3     1  UNL1        0.0216
     11 C           5.1097   -3.4805   18.5593 C.3     1  UNL1        0.0035
     12 C           3.7425   -3.0337   18.9850 C.3     1  UNL1        0.0199
     13 C           3.5523   -1.6741   19.5894 C.3     1  UNL1        0.0757
     14 C           2.1851   -1.2273   20.0151 C.3     1  UNL1        0.0215
     15 C           4.6173   -0.9446   25.7365 C.ar    1  UNL1        0.1333
     16 C           4.2690   -1.7926   24.5493 C.ar    1  UNL1        0.0208
     17 C           3.5916   -1.1772   23.3608 C.ar    1  UNL1        0.0028
     18 C           3.2624    0.2862   23.3597 C.ar    1  UNL1        0.0191
     19 C           3.6107    1.1342   24.5469 C.ar    1  UNL1        0.0700
     20 CL          3.2815    2.5977   24.5458 Cl      1  UNL1       -0.0813
     21 C           4.2881    0.5188   25.7353 C.ar    1  UNL1        0.0867
     22 CL          4.6364    1.3669   26.9226 Cl      1  UNL1       -0.0800
     23 S           5.2947   -1.5600   26.9249 S.O2    1  UNL1        0.0613
     24 O           3.9628   -1.9996   27.4566 O.2     1  UNL1       -0.1530
     25 O           6.6267   -1.1205   26.3932 O.2     1  UNL1       -0.1530
     26 N           5.9722   -2.1755   28.1133 N.3     1  UNL1       -0.1723
     27 H           6.4326   -1.4164   28.6155 H       1  UNL1        0.1491
     28 C           8.3785   -3.0827   28.4830 C.3     1  UNL1        0.0278
     29 C           6.9994   -3.2509   27.9175 C.3     1  UNL1        0.1701
     30 C           6.6474   -4.4945   27.1563 C.3     1  UNL1        0.4118
     31 F           6.2955   -5.7382   26.3950 F       1  UNL1       -0.1685
     32 F           7.4840   -4.0253   26.0030 F       1  UNL1       -0.1685
     33 F           5.8108   -4.9637   28.3095 F       1  UNL1       -0.1685
     34 C          -0.3299    2.6402   20.2880 C.2     1  UNL1        0.2699
     35 O          -0.3905    3.2563   18.9217 O.2     1  UNL1       -0.2679
     36 N          -1.5329    2.6807   21.1830 N.am    1  UNL1       -0.2969
     37 H          -1.4932    2.2763   22.0797 H       1  UNL1        0.1499
     38 C          -2.7966    3.3372   20.7116 C.3     1  UNL1        0.1166
     39 C          -3.9808    3.4293   21.6279 C.3     1  UNL1        0.1064
     40 C          -3.0644    3.6939   22.7856 C.3     1  UNL1        0.0311
     41 C          -4.8971    3.1647   20.4701 C.3     1  UNL1        0.0311
     42 O          -5.1649    3.5213   22.5440 O.3     1  UNL1       -0.3851
     43 H          -4.8615    3.7025   23.4474 H       1  UNL1        0.2103
@<TRIPOS>BOND
     1    29    28    1
     2    29    26    1
     3    26    23    1
     4    23    24    2
     5    23    25    2
     6    23    15    1
     7    15    16   ar
     8    16    17   ar
     9    17    18   ar
    10    18     1    1
    11     1     2   ar
    12     2     3   ar
    13     3    34    1
    14    34    35    2
    15    34    36   am
    16    36    38    1
    17    38    39    1
    18    39    40    1
    19    39    41    1
    20    39    42    1
    21     3     4   ar
    22     4     5   ar
    23     5     6    1
    24     6     7    2
    25     6     8   am
    26     8     9    1
    27     9    10    1
    28    10    11    1
    29    11    12    1
    30    12    13    1
    31    13    14    1
    32    18    19   ar
    33    19    20    1
    34    19    21   ar
    35    21    22    1
    36    29    30    1
    37    30    31    1
    38    30    32    1
    39    30    33    1
    40    21    15   ar
    41     5     1   ar
    42    13     8    1
    43    26    27    1
    44    36    37    1
    45    42    43    1
@<TRIPOS>MOLECULE
*****
 43 45 0 0 0
SMALL
GASTEIGER

@<TRIPOS>ATOM
      1 C           0.3356    2.4146   20.3686 C.ar    1  UNL1        0.0539
      2 S           0.7343    0.9887   20.1280 S.2     1  UNL1       -0.0619
      3 C           1.9372    0.9886   19.2318 C.ar    1  UNL1        0.1641
      4 N           2.2818    2.4144   18.9185 N.ar    1  UNL1       -0.2291
      5 C           1.2920    3.2957   19.6210 C.ar    1  UNL1        0.1414
      6 C           1.2637    4.7950   19.5827 C.2     1  UNL1        0.2672
      7 O           2.0149    5.5859   20.6124 O.2     1  UNL1       -0.2682
      8 N           0.4842    5.5033   18.5148 N.am    1  UNL1       -0.2765
      9 C           0.4558    7.0026   18.4765 C.3     1  UNL1        0.0937
     10 C          -0.3237    7.7109   17.4085 C.3     1  UNL1        0.0216
     11 C          -1.0749    6.9201   16.3788 C.3     1  UNL1        0.0035
     12 C          -1.0465    5.4209   16.4171 C.3     1  UNL1        0.0199
     13 C          -0.2670    4.7125   17.4850 C.3     1  UNL1        0.0757
     14 C          -0.2387    3.2133   17.5234 C.3     1  UNL1        0.0215
     15 C          -3.1226    3.8048   22.8901 C.ar    1  UNL1        0.1333
     16 C          -3.2840    3.6693   21.4050 C.ar    1  UNL1        0.0208
     17 C          -2.1313    3.2059   20.5645 C.ar    1  UNL1        0.0028
     18 C          -0.8171    2.8780   21.2091 C.ar    1  UNL1        0.0191
     19 C          -0.6558    3.0135   22.6942 C.ar    1  UNL1        0.0700
     20 CL          0.6584    2.6856   23.3388 Cl      1  UNL1       -0.0813
     21 C          -1.8085    3.4769   23.5347 C.ar    1  UNL1        0.0867
     22 CL         -1.6471    3.6124   25.0199 Cl      1  UNL1       -0.0800
     23 S          -4.2753    4.2682   23.7306 S.O2    1  UNL1        0.0613
     24 O          -4.7792    2.8580   23.8171 O.2     1  UNL1       -0.1530
     25 O          -3.7715    5.6784   23.6442 O.2     1  UNL1       -0.1530
     26 N          -5.4281    4.7316   24.5712 N.3     1  UNL1       -0.1723
     27 H          -5.7808    3.9117   25.0649 H       1  UNL1        0.1491
     28 C          -7.4629    6.3409   24.7117 C.3     1  UNL1        0.0278
     29 C          -6.6108    5.3898   23.9247 C.3     1  UNL1        0.1701
     30 C          -6.9415    5.0968   22.4913 C.3     1  UNL1        0.4118
     31 F          -7.2722    4.8039   21.0578 F       1  UNL1       -0.1685
     32 F          -6.2742    6.3745   22.0762 F       1  UNL1       -0.1685
     33 F          -7.6088    3.8191   22.9063 F       1  UNL1       -0.1685
     34 C           2.6671   -0.2244   18.7360 C.2     1  UNL1        0.2699
     35 O           3.1097   -0.3006   17.3048 O.2     1  UNL1       -0.2679
     36 N           2.9545   -1.3612   19.6715 N.am    1  UNL1       -0.2969
     37 H           2.6640   -1.3112   20.6108 H       1  UNL1        0.1499
     38 C           3.6845   -2.5742   19.1757 C.3     1  UNL1        0.1166
     39 C           4.2270   -3.5746   20.1530 C.3     1  UNL1        0.1064
     40 C           4.4085   -4.5636   19.0399 C.3     1  UNL1        0.0311
     41 C           4.0455   -2.5855   21.2661 C.3     1  UNL1        0.0311
     42 O           4.7695   -4.5749   21.1303 O.3     1  UNL1       -0.3851
     43 H           4.9971   -5.3935   20.6623 H       1  UNL1        0.2103
@<TRIPOS>BOND
     1    29    28    1
     2    29    26    1
     3    26    23    1
     4    23    24    2
     5    23    25    2
     6    23    15    1
     7    15    16   ar
     8    16    17   ar
     9    17    18   ar
    10    18     1    1
    11     1     2   ar
    12     2     3   ar
    13     3    34    1
    14    34    35    2
    15    34    36   am
    16    36    38    1
    17    38    39    1
    18    39    40    1
    19    39    41    1
    20    39    42    1
    21     3     4   ar
    22     4     5   ar
    23     5     6    1
    24     6     7    2
    25     6     8   am
    26     8     9    1
    27     9    10    1
    28    10    11    1
    29    11    12    1
    30    12    13    1
    31    13    14    1
    32    18    19   ar
    33    19    20    1
    34    19    21   ar
    35    21    22    1
    36    29    30    1
    37    30    31    1
    38    30    32    1
    39    30    33    1
    40    21    15   ar
    41     5     1   ar
    42    13     8    1
    43    26    27    1
    44    36    37    1
    45    42    43    1
@<TRIPOS>MOLECULE
*****
 43 45 0 0 0
SMALL
GASTEIGER

@<TRIPOS>ATOM
      1 C           5.1008   -0.0668   26.0652 C.ar    1  UNL1        0.0539
      2 S           5.8244   -0.8498   27.1202 S.2     1  UNL1       -0.0619
      3 C           5.7599   -0.0718   28.4010 C.ar    1  UNL1        0.1641
      4 N           4.9963    1.1922   28.1376 N.ar    1  UNL1       -0.2291
      5 C           4.5889    1.1952   26.6939 C.ar    1  UNL1        0.1414
      6 C           3.8070    2.2713   26.0007 C.2     1  UNL1        0.2672
      7 O           4.5241    3.3564   25.2534 O.2     1  UNL1       -0.2682
      8 N           2.3081    2.2625   26.0549 N.am    1  UNL1       -0.2765
      9 C           1.5261    3.3387   25.3617 C.3     1  UNL1        0.0937
     10 C           0.0271    3.3298   25.4158 C.3     1  UNL1        0.0216
     11 C          -0.6900    2.2448   26.1631 C.3     1  UNL1        0.0035
     12 C           0.0919    1.1686   26.8564 C.3     1  UNL1        0.0199
     13 C           1.5909    1.1775   26.8022 C.3     1  UNL1        0.0757
     14 C           2.3728    0.1013   27.4954 C.3     1  UNL1        0.0215
     15 C           4.5601   -1.2893   21.7683 C.ar    1  UNL1        0.1333
     16 C           3.5373   -1.6798   22.7935 C.ar    1  UNL1        0.0208
     17 C           3.7175   -1.2723   24.2258 C.ar    1  UNL1        0.0028
     18 C           4.9205   -0.4743   24.6329 C.ar    1  UNL1        0.0191
     19 C           5.9434   -0.0838   23.6076 C.ar    1  UNL1        0.0700
     20 CL          7.1466    0.7143   24.0147 Cl      1  UNL1       -0.0813
     21 C           5.7632   -0.4912   22.1753 C.ar    1  UNL1        0.0867
     22 CL          6.7861   -0.1006   21.1501 Cl      1  UNL1       -0.0800
     23 S           4.3799   -1.6967   20.3360 S.O2    1  UNL1        0.0613
     24 O           5.2316   -2.9084   20.5735 O.2     1  UNL1       -0.1530
     25 O           3.5282   -0.4850   20.0984 O.2     1  UNL1       -0.1530
     26 N           4.1997   -2.1042   18.9037 N.3     1  UNL1       -0.1723
     27 H           4.6432   -3.0168   18.7991 H       1  UNL1        0.1491
     28 C           3.8304   -0.7974   16.6887 C.3     1  UNL1        0.0278
     29 C           4.7333   -1.2350   17.8038 C.3     1  UNL1        0.1701
     30 C           6.1698   -0.8034   17.8189 C.3     1  UNL1        0.4118
     31 F           7.6062   -0.3717   17.8341 F       1  UNL1       -0.1685
     32 F           6.6009   -2.2331   17.6776 F       1  UNL1       -0.1685
     33 F           5.7386    0.6264   17.9603 F       1  UNL1       -0.1685
     34 C           6.3545   -0.4850   29.7147 C.2     1  UNL1        0.2699
     35 O           7.7362   -0.0354   30.0871 O.2     1  UNL1       -0.2679
     36 N           5.5674   -1.3480   30.6558 N.am    1  UNL1       -0.2969
     37 H           4.6606   -1.6431   30.4114 H       1  UNL1        0.1499
     38 C           6.1621   -1.7612   31.9694 C.3     1  UNL1        0.1166
     39 C           6.0822   -3.1924   32.4117 C.3     1  UNL1        0.1064
     40 C           7.3863   -3.4767   31.7273 C.3     1  UNL1        0.0311
     41 C           4.7780   -2.9080   33.0962 C.3     1  UNL1        0.0311
     42 O           6.0022   -4.6235   32.8540 O.3     1  UNL1       -0.3851
     43 H           6.7801   -5.1054   32.5321 H       1  UNL1        0.2103
@<TRIPOS>BOND
     1    29    28    1
     2    29    26    1
     3    26    23    1
     4    23    24    2
     5    23    25    2
     6    23    15    1
     7    15    16   ar
     8    16    17   ar
     9    17    18   ar
    10    18     1    1
    11     1     2   ar
    12     2     3   ar
    13     3    34    1
    14    34    35    2
    15    34    36   am
    16    36    38    1
    17    38    39    1
    18    39    40    1
    19    39    41    1
    20    39    42    1
    21     3     4   ar
    22     4     5   ar
    23     5     6    1
    24     6     7    2
    25     6     8   am
    26     8     9    1
    27     9    10    1
    28    10    11    1
    29    11    12    1
    30    12    13    1
    31    13    14    1
    32    18    19   ar
    33    19    20    1
    34    19    21   ar
    35    21    22    1
    36    29    30    1
    37    30    31    1
    38    30    32    1
    39    30    33    1
    40    21    15   ar
    41     5     1   ar
    42    13     8    1
    43    26    27    1
    44    36    37    1
    45    42    43    1
