@<TRIPOS>MOLECULE
*****
 33 37 0 0 0
SMALL
GASTEIGER

@<TRIPOS>ATOM
      1 C           4.5309   -1.8942   24.7321 C.ar    1  UNL1        0.0540
      2 C           3.4873   -0.8228   24.6180 C.ar    1  UNL1        0.0148
      3 C           2.8470   -0.5377   23.2918 C.ar    1  UNL1        0.0028
      4 C           3.2504   -1.3240   22.0798 C.ar    1  UNL1        0.0189
      5 C           4.2940   -2.3954   22.1939 C.ar    1  UNL1        0.0814
      6 C           4.9343   -2.6805   23.5201 C.ar    1  UNL1        0.0564
      7 C           5.9266   -3.7886   23.3270 C.ar    1  UNL1        0.1375
      8 BR          6.7936   -4.3912   24.3924 Br      1  UNL1       -0.0261
      9 N           5.8997   -4.1884   21.8815 N.ar    1  UNL1       -0.1621
     10 N           4.8907   -3.3273   21.1812 N.ar    1  UNL1       -0.2458
     11 C           6.2782   -1.3009   26.5610 C.2     1  UNL1        0.2515
     12 O           6.7450   -0.1374   25.7375 O.2     1  UNL1       -0.2697
     13 N           5.1711   -2.1794   26.0583 N.am    1  UNL1       -0.2802
     14 H           4.8647   -2.9431   26.5988 H       1  UNL1        0.1552
     15 N           8.6054   -3.7375   32.0953 N.pl3   1  UNL1       -0.3421
     16 C           7.8589   -3.9080   30.8055 C.ar    1  UNL1        0.1346
     17 N           7.2903   -5.2468   30.4393 N.ar    1  UNL1       -0.2089
     18 C           6.5438   -5.4173   29.1495 C.ar    1  UNL1        0.2000
     19 N           6.3659   -4.2489   28.2258 N.ar    1  UNL1       -0.2232
     20 C           6.9346   -2.9101   28.5919 C.ar    1  UNL1        0.0966
     21 C           6.9185   -1.5860   27.8872 C.ar    1  UNL1        0.0784
     22 C           7.6550   -0.5972   28.7415 C.ar    1  UNL1        0.0416
     23 S           8.1263   -1.3102   29.9742 S.2     1  UNL1       -0.0819
     24 C           7.6810   -2.7396   29.8818 C.ar    1  UNL1        0.0784
     25 H           8.7221   -4.5043   32.7016 H       1  UNL1        0.1437
     26 H           8.9786   -2.8587   32.3356 H       1  UNL1        0.1437
     27 C           4.5400   -3.3875   19.7241 C.3     1  UNL1        0.1553
     28 C           4.9155   -2.2552   18.8148 C.ar    1  UNL1        0.0213
     29 C           3.9152   -1.1828   18.4999 C.ar    1  UNL1        0.0008
     30 C           4.2907   -0.0504   17.5906 C.ar    1  UNL1        0.0204
     31 C           5.6667    0.0094   16.9962 C.ar    1  UNL1        0.0989
     32 N           6.6670   -1.0630   17.3110 N.ar    1  UNL1       -0.2426
     33 C           6.2915   -2.1953   18.2203 C.ar    1  UNL1        0.0965
@<TRIPOS>BOND
     1    15    16    1
     2    16    17   ar
     3    17    18   ar
     4    18    19   ar
     5    19    20   ar
     6    20    21   ar
     7    21    11    1
     8    11    12    2
     9    11    13   am
    10    13     1    1
    11     1     2   ar
    12     2     3   ar
    13     3     4   ar
    14     4     5   ar
    15     5     6   ar
    16     6     7   ar
    17     7     8    1
    18     7     9   ar
    19     9    10   ar
    20    10    27    1
    21    27    28    1
    22    28    29   ar
    23    29    30   ar
    24    30    31   ar
    25    31    32   ar
    26    32    33   ar
    27    21    22   ar
    28    22    23   ar
    29    23    24   ar
    30    24    16   ar
    31    24    20   ar
    32     6     1   ar
    33    33    28   ar
    34    10     5   ar
    35    15    25    1
    36    15    26    1
    37    13    14    1
@<TRIPOS>MOLECULE
*****
 33 37 0 0 0
SMALL
GASTEIGER

@<TRIPOS>ATOM
      1 C          -7.8180  -18.8780   20.1069 C.ar    1  UNL1        0.0540
      2 C          -8.2327  -19.9235   19.1145 C.ar    1  UNL1        0.0148
      3 C          -9.6817  -20.2802   18.9623 C.ar    1  UNL1        0.0028
      4 C         -10.7159  -19.5914   19.8025 C.ar    1  UNL1        0.0189
      5 C         -10.3011  -18.5459   20.7949 C.ar    1  UNL1        0.0814
      6 C          -8.8521  -18.1892   20.9471 C.ar    1  UNL1        0.0564
      7 C          -8.7445  -17.1267   22.0004 C.ar    1  UNL1        0.1375
      8 BR         -7.4770  -16.4780   22.4721 Br      1  UNL1       -0.0261
      9 N         -10.1270  -16.8266   22.4992 N.ar    1  UNL1       -0.1621
     10 N         -11.0890  -17.7038   21.7541 N.ar    1  UNL1       -0.2458
     11 C          -5.5158  -19.2560   21.2505 C.2     1  UNL1        0.2515
     12 O          -6.1118  -20.3472   22.0895 O.2     1  UNL1       -0.2697
     13 N          -6.3690  -18.5213   20.2591 N.am    1  UNL1       -0.2802
     14 H          -5.9778  -17.8051   19.7085 H       1  UNL1        0.1552
     15 N           0.7138  -17.5910   20.6176 N.pl3   1  UNL1       -0.3421
     16 C          -0.6298  -17.8745   20.0140 C.ar    1  UNL1        0.1346
     17 N          -0.8219  -17.7724   18.5299 N.ar    1  UNL1       -0.2089
     18 C          -2.1655  -18.0560   17.9262 C.ar    1  UNL1        0.2000
     19 N          -3.3169  -18.4417   18.8067 N.ar    1  UNL1       -0.2232
     20 C          -3.1248  -18.5438   20.2908 C.ar    1  UNL1        0.0966
     21 C          -4.0668  -18.8992   21.4027 C.ar    1  UNL1        0.0784
     22 C          -3.3055  -18.8354   22.6936 C.ar    1  UNL1        0.0416
     23 S          -1.8929  -18.4405   22.3794 S.2     1  UNL1       -0.0819
     24 C          -1.7813  -18.2602   20.8945 C.ar    1  UNL1        0.0784
     25 H           1.4696  -17.3379   20.0397 H       1  UNL1        0.1437
     26 H           0.8399  -17.6580   21.5917 H       1  UNL1        0.1437
     27 C         -12.5776  -17.7336   21.9363 C.3     1  UNL1        0.1553
     28 C         -13.1626  -18.0668   23.2767 C.ar    1  UNL1        0.0213
     29 C         -14.6500  -18.0529   23.4703 C.ar    1  UNL1        0.0008
     30 C         -15.2350  -18.3861   24.8107 C.ar    1  UNL1        0.0204
     31 C         -14.3326  -18.7333   25.9576 C.ar    1  UNL1        0.0989
     32 N         -12.8452  -18.7473   25.7640 N.ar    1  UNL1       -0.2426
     33 C         -12.2602  -18.4141   24.4236 C.ar    1  UNL1        0.0965
@<TRIPOS>BOND
     1    15    16    1
     2    16    17   ar
     3    17    18   ar
     4    18    19   ar
     5    19    20   ar
     6    20    21   ar
     7    21    11    1
     8    11    12    2
     9    11    13   am
    10    13     1    1
    11     1     2   ar
    12     2     3   ar
    13     3     4   ar
    14     4     5   ar
    15     5     6   ar
    16     6     7   ar
    17     7     8    1
    18     7     9   ar
    19     9    10   ar
    20    10    27    1
    21    27    28    1
    22    28    29   ar
    23    29    30   ar
    24    30    31   ar
    25    31    32   ar
    26    32    33   ar
    27    21    22   ar
    28    22    23   ar
    29    23    24   ar
    30    24    16   ar
    31    24    20   ar
    32     6     1   ar
    33    33    28   ar
    34    10     5   ar
    35    15    25    1
    36    15    26    1
    37    13    14    1
@<TRIPOS>MOLECULE
*****
 33 37 0 0 0
SMALL
GASTEIGER

@<TRIPOS>ATOM
      1 C           4.1750   -1.8435   24.2305 C.ar    1  UNL1        0.0540
      2 C           3.1437   -0.8259   23.8421 C.ar    1  UNL1        0.0148
      3 C           2.7976   -0.6228   22.3968 C.ar    1  UNL1        0.0028
      4 C           3.4827   -1.4373   21.3399 C.ar    1  UNL1        0.0189
      5 C           4.5140   -2.4550   21.7283 C.ar    1  UNL1        0.0814
      6 C           4.8602   -2.6581   23.1736 C.ar    1  UNL1        0.0564
      7 C           5.9096   -3.7268   23.2531 C.ar    1  UNL1        0.1375
      8 BR          6.5450   -4.2469   24.5084 Br      1  UNL1       -0.0261
      9 N           6.2121   -4.1844   21.8570 N.ar    1  UNL1       -0.1621
     10 N           5.3495   -3.3982   20.9146 N.ar    1  UNL1       -0.2458
     11 C           5.2902   -0.9940   26.4179 C.2     1  UNL1        0.2515
     12 O           5.7130    0.2616   25.7147 O.2     1  UNL1       -0.2697
     13 N           4.5212   -2.0466   25.6758 N.am    1  UNL1       -0.2802
     14 H           4.2437   -2.8708   26.1373 H       1  UNL1        0.1552
     15 N           5.5354   -1.5934   32.8648 N.pl3   1  UNL1       -0.3421
     16 C           4.7678   -1.3067   31.6083 C.ar    1  UNL1        0.1346
     17 N           3.3083   -0.9684   31.6817 N.ar    1  UNL1       -0.2089
     18 C           2.5408   -0.6817   30.4253 C.ar    1  UNL1        0.2000
     19 N           3.2327   -0.7333   29.0954 N.ar    1  UNL1       -0.2232
     20 C           4.6922   -1.0716   29.0220 C.ar    1  UNL1        0.0966
     21 C           5.6364   -1.1971   27.8632 C.ar    1  UNL1        0.0784
     22 C           6.9875   -1.5614   28.4035 C.ar    1  UNL1        0.0416
     23 S           6.8783   -1.6610   29.8962 S.2     1  UNL1       -0.0819
     24 C           5.4597   -1.3583   30.2785 C.ar    1  UNL1        0.0784
     25 H           5.0812   -1.5596   33.7376 H       1  UNL1        0.1437
     26 H           6.4933   -1.8155   32.8166 H       1  UNL1        0.1437
     27 C           5.3266   -3.5320   19.4207 C.3     1  UNL1        0.1553
     28 C           5.4686   -2.3143   18.5564 C.ar    1  UNL1        0.0213
     29 C           4.2605   -1.7168   17.8981 C.ar    1  UNL1        0.0008
     30 C           4.4025   -0.4991   17.0338 C.ar    1  UNL1        0.0204
     31 C           5.7527    0.1211   16.8278 C.ar    1  UNL1        0.0989
     32 N           6.9608   -0.4764   17.4861 N.ar    1  UNL1       -0.2426
     33 C           6.8188   -1.6941   18.3504 C.ar    1  UNL1        0.0965
@<TRIPOS>BOND
     1    15    16    1
     2    16    17   ar
     3    17    18   ar
     4    18    19   ar
     5    19    20   ar
     6    20    21   ar
     7    21    11    1
     8    11    12    2
     9    11    13   am
    10    13     1    1
    11     1     2   ar
    12     2     3   ar
    13     3     4   ar
    14     4     5   ar
    15     5     6   ar
    16     6     7   ar
    17     7     8    1
    18     7     9   ar
    19     9    10   ar
    20    10    27    1
    21    27    28    1
    22    28    29   ar
    23    29    30   ar
    24    30    31   ar
    25    31    32   ar
    26    32    33   ar
    27    21    22   ar
    28    22    23   ar
    29    23    24   ar
    30    24    16   ar
    31    24    20   ar
    32     6     1   ar
    33    33    28   ar
    34    10     5   ar
    35    15    25    1
    36    15    26    1
    37    13    14    1
@<TRIPOS>MOLECULE
*****
 33 37 0 0 0
SMALL
GASTEIGER

@<TRIPOS>ATOM
      1 C           7.6993   -3.2645   21.1319 C.ar    1  UNL1        0.0540
      2 C           8.9127   -3.0285   20.2822 C.ar    1  UNL1        0.0148
      3 C           8.7802   -2.3234   18.9649 C.ar    1  UNL1        0.0028
      4 C           7.4344   -1.8543   18.4974 C.ar    1  UNL1        0.0189
      5 C           6.2210   -2.0904   19.3471 C.ar    1  UNL1        0.0814
      6 C           6.3535   -2.7955   20.6644 C.ar    1  UNL1        0.0564
      7 C           4.9892   -2.8854   21.2813 C.ar    1  UNL1        0.1375
      8 BR          4.6586   -3.5144   22.6023 Br      1  UNL1       -0.0261
      9 N           4.0134   -2.2359   20.3453 N.ar    1  UNL1       -0.1621
     10 N           4.7748   -1.7445   19.1499 N.ar    1  UNL1       -0.2458
     11 C           8.1484   -5.4354   22.4868 C.2     1  UNL1        0.2515
     12 O           8.3324   -6.1959   21.2072 O.2     1  UNL1       -0.2697
     13 N           7.8318   -3.9696   22.4492 N.am    1  UNL1       -0.2802
     14 H           7.7110   -3.4704   23.2891 H       1  UNL1        0.1552
     15 N           8.0912   -7.4486   28.6452 N.pl3   1  UNL1       -0.3421
     16 C           7.7432   -6.4290   27.6015 C.ar    1  UNL1        0.1346
     17 N           7.0130   -5.1776   27.9896 N.ar    1  UNL1       -0.2089
     18 C           6.6650   -4.1580   26.9459 C.ar    1  UNL1        0.2000
     19 N           7.0472   -4.3898   25.5141 N.ar    1  UNL1       -0.2232
     20 C           7.7775   -5.6412   25.1260 C.ar    1  UNL1        0.0966
     21 C           8.2809   -6.1405   23.8041 C.ar    1  UNL1        0.0784
     22 C           8.9400   -7.4688   24.0309 C.ar    1  UNL1        0.0416
     23 S           8.8439   -7.7903   25.4928 S.2     1  UNL1       -0.0819
     24 C           8.1255   -6.6608   26.1697 C.ar    1  UNL1        0.0784
     25 H           7.8403   -7.2965   29.5849 H       1  UNL1        0.1437
     26 H           8.5705   -8.2700   28.3904 H       1  UNL1        0.1437
     27 C           4.1922   -1.0323   17.9653 C.3     1  UNL1        0.1553
     28 C           3.4707    0.2693   18.1529 C.ar    1  UNL1        0.0213
     29 C           1.9769    0.2862   18.2882 C.ar    1  UNL1        0.0008
     30 C           1.2555    1.5879   18.4759 C.ar    1  UNL1        0.0204
     31 C           2.0279    2.8727   18.5283 C.ar    1  UNL1        0.0989
     32 N           3.5217    2.8559   18.3930 N.ar    1  UNL1       -0.2426
     33 C           4.2431    1.5542   18.2053 C.ar    1  UNL1        0.0965
@<TRIPOS>BOND
     1    15    16    1
     2    16    17   ar
     3    17    18   ar
     4    18    19   ar
     5    19    20   ar
     6    20    21   ar
     7    21    11    1
     8    11    12    2
     9    11    13   am
    10    13     1    1
    11     1     2   ar
    12     2     3   ar
    13     3     4   ar
    14     4     5   ar
    15     5     6   ar
    16     6     7   ar
    17     7     8    1
    18     7     9   ar
    19     9    10   ar
    20    10    27    1
    21    27    28    1
    22    28    29   ar
    23    29    30   ar
    24    30    31   ar
    25    31    32   ar
    26    32    33   ar
    27    21    22   ar
    28    22    23   ar
    29    23    24   ar
    30    24    16   ar
    31    24    20   ar
    32     6     1   ar
    33    33    28   ar
    34    10     5   ar
    35    15    25    1
    36    15    26    1
    37    13    14    1
@<TRIPOS>MOLECULE
*****
 33 37 0 0 0
SMALL
GASTEIGER

@<TRIPOS>ATOM
      1 C           6.9153   -5.1612   26.9621 C.ar    1  UNL1        0.0540
      2 C           7.5243   -6.5088   27.2129 C.ar    1  UNL1        0.0148
      3 C           7.8846   -6.9209   28.6095 C.ar    1  UNL1        0.0028
      4 C           7.6359   -5.9852   29.7552 C.ar    1  UNL1        0.0189
      5 C           7.0269   -4.6375   29.5043 C.ar    1  UNL1        0.0814
      6 C           6.6666   -4.2255   28.1078 C.ar    1  UNL1        0.0564
      7 C           6.0843   -2.8445   28.1676 C.ar    1  UNL1        0.1375
      8 BR          5.5887   -2.0453   26.9991 Br      1  UNL1       -0.0261
      9 N           6.0847   -2.4029   29.6011 N.ar    1  UNL1       -0.1621
     10 N           6.6673   -3.5111   30.4273 N.ar    1  UNL1       -0.2458
     11 C           7.6264   -4.6079   24.5252 C.2     1  UNL1        0.2515
     12 O           9.0580   -4.8787   24.8815 O.2     1  UNL1       -0.2697
     13 N           6.5550   -4.7491   25.5655 N.am    1  UNL1       -0.2802
     14 H           5.6153   -4.5714   25.3317 H       1  UNL1        0.1552
     15 N           5.0517   -2.2620   19.0618 N.pl3   1  UNL1       -0.3421
     16 C           5.0173   -2.4377   20.5511 C.ar    1  UNL1        0.1346
     17 N           3.8986   -1.8392   21.3513 N.ar    1  UNL1       -0.2089
     18 C           3.8643   -2.0149   22.8406 C.ar    1  UNL1        0.2000
     19 N           4.9485   -2.7892   23.5296 N.ar    1  UNL1       -0.2232
     20 C           6.0671   -3.3877   22.7294 C.ar    1  UNL1        0.0966
     21 C           7.2661   -4.1959   23.1286 C.ar    1  UNL1        0.0784
     22 C           8.0416   -4.5196   21.8861 C.ar    1  UNL1        0.0416
     23 S           7.3218   -3.9115   20.7190 S.2     1  UNL1       -0.0819
     24 C           6.1015   -3.2120   21.2402 C.ar    1  UNL1        0.0784
     25 H           4.3400   -1.7538   18.6096 H       1  UNL1        0.1437
     26 H           5.7859   -2.6549   18.5366 H       1  UNL1        0.1437
     27 C           6.8569   -3.4956   31.9152 C.3     1  UNL1        0.1553
     28 C           6.0978   -2.5138   32.7578 C.ar    1  UNL1        0.0213
     29 C           6.7664   -1.2573   33.2313 C.ar    1  UNL1        0.0008
     30 C           6.0073   -0.2756   34.0739 C.ar    1  UNL1        0.0204
     31 C           4.5796   -0.5504   34.4430 C.ar    1  UNL1        0.0989
     32 N           3.9110   -1.8069   33.9695 N.ar    1  UNL1       -0.2426
     33 C           4.6701   -2.7886   33.1269 C.ar    1  UNL1        0.0965
@<TRIPOS>BOND
     1    15    16    1
     2    16    17   ar
     3    17    18   ar
     4    18    19   ar
     5    19    20   ar
     6    20    21   ar
     7    21    11    1
     8    11    12    2
     9    11    13   am
    10    13     1    1
    11     1     2   ar
    12     2     3   ar
    13     3     4   ar
    14     4     5   ar
    15     5     6   ar
    16     6     7   ar
    17     7     8    1
    18     7     9   ar
    19     9    10   ar
    20    10    27    1
    21    27    28    1
    22    28    29   ar
    23    29    30   ar
    24    30    31   ar
    25    31    32   ar
    26    32    33   ar
    27    21    22   ar
    28    22    23   ar
    29    23    24   ar
    30    24    16   ar
    31    24    20   ar
    32     6     1   ar
    33    33    28   ar
    34    10     5   ar
    35    15    25    1
    36    15    26    1
    37    13    14    1
@<TRIPOS>MOLECULE
*****
 33 37 0 0 0
SMALL
GASTEIGER

@<TRIPOS>ATOM
      1 C           3.3487   -0.9381   24.3454 C.ar    1  UNL1        0.0540
      2 C           4.3629   -2.0139   24.0922 C.ar    1  UNL1        0.0148
      3 C           4.6488   -2.4597   22.6888 C.ar    1  UNL1        0.0028
      4 C           3.9205   -1.8298   21.5387 C.ar    1  UNL1        0.0189
      5 C           2.9063   -0.7540   21.7920 C.ar    1  UNL1        0.0814
      6 C           2.6204   -0.3082   23.1953 C.ar    1  UNL1        0.0564
      7 C           1.5753    0.7661   23.1365 C.ar    1  UNL1        0.1375
      8 BR          0.9925    1.4944   24.3112 Br      1  UNL1       -0.0261
      9 N           1.2152    0.9843   21.6968 N.ar    1  UNL1       -0.1621
     10 N           2.0379    0.0448   20.8658 N.ar    1  UNL1       -0.2458
     11 C           3.9860    0.4726   26.4320 C.2     1  UNL1        0.2515
     12 O           5.1950    0.9915   25.7118 O.2     1  UNL1       -0.2697
     13 N           3.0627   -0.4923   25.7488 N.am    1  UNL1       -0.2802
     14 H           2.2691   -0.8329   26.2214 H       1  UNL1        0.1552
     15 N           1.5314    2.0565   32.2154 N.pl3   1  UNL1       -0.3421
     16 C           1.3564    1.5235   30.8243 C.ar    1  UNL1        0.1346
     17 N           0.0011    1.0857   30.3538 N.ar    1  UNL1       -0.2089
     18 C          -0.1739    0.5526   28.9627 C.ar    1  UNL1        0.2000
     19 N           1.0064    0.4574   28.0420 N.ar    1  UNL1       -0.2232
     20 C           2.3617    0.8951   28.5125 C.ar    1  UNL1        0.0966
     21 C           3.7000    0.9185   27.8354 C.ar    1  UNL1        0.0784
     22 C           4.7022    1.4660   28.8080 C.ar    1  UNL1        0.0416
     23 S           3.9832    1.7810   30.0862 S.2     1  UNL1       -0.0819
     24 C           2.5367    1.4282   29.9036 C.ar    1  UNL1        0.0784
     25 H           0.7567    2.1190   32.8197 H       1  UNL1        0.1437
     26 H           2.4210    2.3438   32.5242 H       1  UNL1        0.1437
     27 C           1.9989   -0.0749   19.3711 C.3     1  UNL1        0.1553
     28 C           3.2415    0.1676   18.5666 C.ar    1  UNL1        0.0213
     29 C           4.0902    1.3733   18.8424 C.ar    1  UNL1        0.0008
     30 C           5.3328    1.6157   18.0379 C.ar    1  UNL1        0.0204
     31 C           5.7267    0.6524   16.9576 C.ar    1  UNL1        0.0989
     32 N           4.8780   -0.5532   16.6818 N.ar    1  UNL1       -0.2426
     33 C           3.6354   -0.7957   17.4863 C.ar    1  UNL1        0.0965
@<TRIPOS>BOND
     1    15    16    1
     2    16    17   ar
     3    17    18   ar
     4    18    19   ar
     5    19    20   ar
     6    20    21   ar
     7    21    11    1
     8    11    12    2
     9    11    13   am
    10    13     1    1
    11     1     2   ar
    12     2     3   ar
    13     3     4   ar
    14     4     5   ar
    15     5     6   ar
    16     6     7   ar
    17     7     8    1
    18     7     9   ar
    19     9    10   ar
    20    10    27    1
    21    27    28    1
    22    28    29   ar
    23    29    30   ar
    24    30    31   ar
    25    31    32   ar
    26    32    33   ar
    27    21    22   ar
    28    22    23   ar
    29    23    24   ar
    30    24    16   ar
    31    24    20   ar
    32     6     1   ar
    33    33    28   ar
    34    10     5   ar
    35    15    25    1
    36    15    26    1
    37    13    14    1
@<TRIPOS>MOLECULE
*****
 33 37 0 0 0
SMALL
GASTEIGER

@<TRIPOS>ATOM
      1 C           1.7437    0.3419   23.5763 C.ar    1  UNL1        0.0540
      2 C           0.8267    0.9782   22.5743 C.ar    1  UNL1        0.0148
      3 C           0.9873    0.6774   21.1135 C.ar    1  UNL1        0.0028
      4 C           2.0651   -0.2596   20.6549 C.ar    1  UNL1        0.0189
      5 C           2.9821   -0.8959   21.6570 C.ar    1  UNL1        0.0814
      6 C           2.8215   -0.5951   23.1177 C.ar    1  UNL1        0.0564
      7 C           3.8672   -1.3661   23.8674 C.ar    1  UNL1        0.1375
      8 BR          4.0703   -1.3607   25.3536 Br      1  UNL1       -0.0261
      9 N           4.6742   -2.1434   22.8701 N.ar    1  UNL1       -0.1621
     10 N           4.1272   -1.8527   21.5040 N.ar    1  UNL1       -0.2458
     11 C           2.1919    1.8842   25.6186 C.2     1  UNL1        0.2515
     12 O           2.9612    2.8248   24.7393 O.2     1  UNL1       -0.2697
     13 N           1.5831    0.6427   25.0370 N.am    1  UNL1       -0.2802
     14 H           1.0781    0.0253   25.6141 H       1  UNL1        0.1552
     15 N           0.4979    2.3613   31.8542 N.pl3   1  UNL1       -0.3421
     16 C           0.2864    1.7892   30.4838 C.ar    1  UNL1        0.1346
     17 N          -0.8332    0.8214   30.2397 N.ar    1  UNL1       -0.2089
     18 C          -1.0447    0.2493   28.8693 C.ar    1  UNL1        0.2000
     19 N          -0.1365    0.6451   27.7430 N.ar    1  UNL1       -0.2232
     20 C           0.9831    1.6130   27.9871 C.ar    1  UNL1        0.0966
     21 C           2.0312    2.1850   27.0793 C.ar    1  UNL1        0.0784
     22 C           2.8905    3.1106   27.8886 C.ar    1  UNL1        0.0416
     23 S           2.3734    3.1106   29.2966 S.2     1  UNL1       -0.0819
     24 C           1.1946    2.1850   29.3576 C.ar    1  UNL1        0.0784
     25 H          -0.0982    2.1015   32.5935 H       1  UNL1        0.1437
     26 H           1.2327    2.9965   32.0145 H       1  UNL1        0.1437
     27 C           4.6359   -2.4195   20.2117 C.3     1  UNL1        0.1553
     28 C           5.0059   -1.5019   19.0843 C.ar    1  UNL1        0.0213
     29 C           6.1751   -0.5730   19.2262 C.ar    1  UNL1        0.0008
     30 C           6.5452    0.3446   18.0988 C.ar    1  UNL1        0.0204
     31 C           5.7459    0.3334   16.8294 C.ar    1  UNL1        0.0989
     32 N           4.5766   -0.5954   16.6875 N.ar    1  UNL1       -0.2426
     33 C           4.2066   -1.5131   17.8150 C.ar    1  UNL1        0.0965
@<TRIPOS>BOND
     1    15    16    1
     2    16    17   ar
     3    17    18   ar
     4    18    19   ar
     5    19    20   ar
     6    20    21   ar
     7    21    11    1
     8    11    12    2
     9    11    13   am
    10    13     1    1
    11     1     2   ar
    12     2     3   ar
    13     3     4   ar
    14     4     5   ar
    15     5     6   ar
    16     6     7   ar
    17     7     8    1
    18     7     9   ar
    19     9    10   ar
    20    10    27    1
    21    27    28    1
    22    28    29   ar
    23    29    30   ar
    24    30    31   ar
    25    31    32   ar
    26    32    33   ar
    27    21    22   ar
    28    22    23   ar
    29    23    24   ar
    30    24    16   ar
    31    24    20   ar
    32     6     1   ar
    33    33    28   ar
    34    10     5   ar
    35    15    25    1
    36    15    26    1
    37    13    14    1
@<TRIPOS>MOLECULE
*****
 33 37 0 0 0
SMALL
GASTEIGER

@<TRIPOS>ATOM
      1 C           7.3236   -5.6485   25.9219 C.ar    1  UNL1        0.0540
      2 C           7.8550   -7.0386   25.7344 C.ar    1  UNL1        0.0148
      3 C           8.3944   -7.4617   24.4003 C.ar    1  UNL1        0.0028
      4 C           8.4024   -6.4947   23.2537 C.ar    1  UNL1        0.0189
      5 C           7.8710   -5.1046   23.4412 C.ar    1  UNL1        0.0814
      6 C           7.3315   -4.6815   24.7753 C.ar    1  UNL1        0.0564
      7 C           6.8775   -3.2565   24.6609 C.ar    1  UNL1        0.1375
      8 BR          6.2710   -2.4336   25.7586 Br      1  UNL1       -0.0261
      9 N           7.1362   -2.7988   23.2560 N.ar    1  UNL1       -0.1621
     10 N           7.7502   -3.9411   22.5022 N.ar    1  UNL1       -0.2458
     11 C           7.7235   -4.7838   28.3391 C.2     1  UNL1        0.2515
     12 O           9.2021   -4.7655   28.0879 O.2     1  UNL1       -0.2697
     13 N           6.7841   -5.2254   27.2561 N.am    1  UNL1       -0.2802
     14 H           5.8136   -5.2374   27.4209 H       1  UNL1        0.1552
     15 N           5.0259   -1.8861   33.4682 N.pl3   1  UNL1       -0.3421
     16 C           5.3902   -1.8910   32.0131 C.ar    1  UNL1        0.1346
     17 N           5.0315   -0.7207   31.1462 N.ar    1  UNL1       -0.2089
     18 C           5.3957   -0.7256   29.6911 C.ar    1  UNL1        0.2000
     19 N           6.1187   -1.9009   29.1029 N.ar    1  UNL1       -0.2232
     20 C           6.4775   -3.0712   29.9699 C.ar    1  UNL1        0.0966
     21 C           7.1840   -4.3607   29.6733 C.ar    1  UNL1        0.0784
     22 C           7.2564   -5.1528   30.9450 C.ar    1  UNL1        0.0416
     23 S           6.5946   -4.3528   32.0276 S.2     1  UNL1       -0.0819
     24 C           6.1132   -3.0663   31.4249 C.ar    1  UNL1        0.0784
     25 H           4.5514   -1.1147   33.8543 H       1  UNL1        0.1437
     26 H           5.2614   -2.6543   34.0372 H       1  UNL1        0.1437
     27 C           8.1699   -3.9229   21.0622 C.3     1  UNL1        0.1553
     28 C           7.2228   -3.4243   20.0113 C.ar    1  UNL1        0.0213
     29 C           5.7781   -3.8254   20.0524 C.ar    1  UNL1        0.0008
     30 C           4.8310   -3.3268   19.0014 C.ar    1  UNL1        0.0204
     31 C           5.3288   -2.4270   17.9093 C.ar    1  UNL1        0.0989
     32 N           6.7736   -2.0259   17.8681 N.ar    1  UNL1       -0.2426
     33 C           7.7206   -2.5245   18.9191 C.ar    1  UNL1        0.0965
@<TRIPOS>BOND
     1    15    16    1
     2    16    17   ar
     3    17    18   ar
     4    18    19   ar
     5    19    20   ar
     6    20    21   ar
     7    21    11    1
     8    11    12    2
     9    11    13   am
    10    13     1    1
    11     1     2   ar
    12     2     3   ar
    13     3     4   ar
    14     4     5   ar
    15     5     6   ar
    16     6     7   ar
    17     7     8    1
    18     7     9   ar
    19     9    10   ar
    20    10    27    1
    21    27    28    1
    22    28    29   ar
    23    29    30   ar
    24    30    31   ar
    25    31    32   ar
    26    32    33   ar
    27    21    22   ar
    28    22    23   ar
    29    23    24   ar
    30    24    16   ar
    31    24    20   ar
    32     6     1   ar
    33    33    28   ar
    34    10     5   ar
    35    15    25    1
    36    15    26    1
    37    13    14    1
@<TRIPOS>MOLECULE
*****
 33 37 0 0 0
SMALL
GASTEIGER

@<TRIPOS>ATOM
      1 C           1.6898    1.3648   25.1844 C.ar    1  UNL1        0.0540
      2 C           0.6794    2.4051   24.8011 C.ar    1  UNL1        0.0148
      3 C           0.2048    2.5025   23.3815 C.ar    1  UNL1        0.0028
      4 C           0.7407    1.5597   22.3452 C.ar    1  UNL1        0.0189
      5 C           1.7511    0.5195   22.7285 C.ar    1  UNL1        0.0814
      6 C           2.2257    0.4220   24.1481 C.ar    1  UNL1        0.0564
      7 C           3.2213   -0.6969   24.2282 C.ar    1  UNL1        0.1375
      8 BR          3.9485   -1.1434   25.4618 Br      1  UNL1       -0.0261
      9 N           3.3622   -1.2912   22.8581 N.ar    1  UNL1       -0.1621
     10 N           2.4535   -0.5393   21.9313 N.ar    1  UNL1       -0.2458
     11 C           1.2064    0.8755   27.6898 C.2     1  UNL1        0.2515
     12 O          -0.2260    0.5811   27.3559 O.2     1  UNL1       -0.2697
     13 N           2.1643    1.2674   26.6040 N.am    1  UNL1       -0.2802
     14 H           3.1045    1.4606   26.8231 H       1  UNL1        0.1552
     15 N           2.6116    1.5690   33.9767 N.pl3   1  UNL1       -0.3421
     16 C           1.9435    2.0590   32.7263 C.ar    1  UNL1        0.1346
     17 N           1.1585    3.3370   32.7469 N.ar    1  UNL1       -0.2089
     18 C           0.4904    3.8270   31.4965 C.ar    1  UNL1        0.2000
     19 N           0.6072    3.0390   30.2256 N.ar    1  UNL1       -0.2232
     20 C           1.3922    1.7610   30.2050 C.ar    1  UNL1        0.0966
     21 C           1.6809    0.7780   29.1094 C.ar    1  UNL1        0.0784
     22 C           2.5275   -0.3196   29.6827 C.ar    1  UNL1        0.0416
     23 S           2.7620   -0.0149   31.1325 S.2     1  UNL1       -0.0819
     24 C           2.0603    1.2710   31.4554 C.ar    1  UNL1        0.0784
     25 H           2.5350    2.0862   34.8109 H       1  UNL1        0.1437
     26 H           3.1269    0.7302   33.9632 H       1  UNL1        0.1437
     27 C           2.2781   -0.8005   20.4646 C.3     1  UNL1        0.1553
     28 C           3.3491   -1.5174   19.6971 C.ar    1  UNL1        0.0213
     29 C           3.3495   -3.0159   19.6316 C.ar    1  UNL1        0.0008
     30 C           4.4205   -3.7328   18.8641 C.ar    1  UNL1        0.0204
     31 C           5.4911   -2.9511   18.1620 C.ar    1  UNL1        0.0989
     32 N           5.4907   -1.4525   18.2275 N.ar    1  UNL1       -0.2426
     33 C           4.4197   -0.7356   18.9950 C.ar    1  UNL1        0.0965
@<TRIPOS>BOND
     1    15    16    1
     2    16    17   ar
     3    17    18   ar
     4    18    19   ar
     5    19    20   ar
     6    20    21   ar
     7    21    11    1
     8    11    12    2
     9    11    13   am
    10    13     1    1
    11     1     2   ar
    12     2     3   ar
    13     3     4   ar
    14     4     5   ar
    15     5     6   ar
    16     6     7   ar
    17     7     8    1
    18     7     9   ar
    19     9    10   ar
    20    10    27    1
    21    27    28    1
    22    28    29   ar
    23    29    30   ar
    24    30    31   ar
    25    31    32   ar
    26    32    33   ar
    27    21    22   ar
    28    22    23   ar
    29    23    24   ar
    30    24    16   ar
    31    24    20   ar
    32     6     1   ar
    33    33    28   ar
    34    10     5   ar
    35    15    25    1
    36    15    26    1
    37    13    14    1
