@<TRIPOS>MOLECULE
*****
 30 33 0 0 0
SMALL
GASTEIGER

@<TRIPOS>ATOM
      1 N          -7.9078  -19.2158   20.7735 N.am    1  UNL1       -0.2723
      2 C          -9.0680  -19.2341   19.8230 C.2     1  UNL1        0.2685
      3 O          -8.9848  -20.0282   18.5531 O.2     1  UNL1       -0.2682
      4 C          -8.3305  -15.1840   27.2215 C.3     1  UNL1        0.0896
      5 N          -8.2473  -15.9780   25.9516 N.3     1  UNL1       -0.2715
      6 C          -8.8243  -17.3442   25.7266 C.3     1  UNL1        0.0722
      7 C          -8.5060  -17.7558   24.3197 C.3     1  UNL1        0.0190
      8 C          -8.6659  -18.8545   23.3111 C.3     1  UNL1        0.0213
      9 C          -7.9911  -18.4218   22.0434 C.3     1  UNL1        0.0761
     10 C          -7.4141  -17.0557   22.2684 C.3     1  UNL1        0.0213
     11 C          -7.7323  -16.6440   23.6752 C.3     1  UNL1        0.0190
     12 C          -7.5724  -15.5453   24.6838 C.3     1  UNL1        0.0722
     13 C         -10.3116  -18.4584   20.1423 C.ar    1  UNL1        0.1535
     14 C         -11.4050  -18.8899   21.0742 C.ar    1  UNL1        0.1012
     15 N         -12.4492  -17.8131   21.0936 N.ar    1  UNL1       -0.3057
     16 C         -13.7186  -17.8303   21.8926 C.3     1  UNL1        0.1321
     17 C         -12.0011  -16.7163   20.1738 C.ar    1  UNL1        0.1787
     18 N         -10.6800  -17.1151   19.5859 N.ar    1  UNL1       -0.2192
     19 C          -6.6644  -19.9915   20.4541 C.3     1  UNL1        0.1205
     20 C          -5.3295  -19.4966   20.9266 C.ar    1  UNL1        0.0007
     21 C          -4.9968  -19.5172   22.3891 C.ar    1  UNL1       -0.0024
     22 C          -3.6619  -19.0223   22.8616 C.ar    1  UNL1        0.0028
     23 C          -2.6599  -18.5067   21.8716 C.ar    1  UNL1        0.0372
     24 C          -2.9926  -18.4861   20.4092 C.ar    1  UNL1        0.1465
     25 C          -4.3275  -18.9810   19.9367 C.ar    1  UNL1        0.0346
     26 O          -1.9906  -17.9705   19.4192 O.3     1  UNL1       -0.4045
     27 C          -0.6064  -17.6105   19.8714 C.3     1  UNL1        0.5753
     28 F           0.7778  -17.2506   20.3236 F       1  UNL1       -0.1328
     29 F          -0.1384  -18.9972   19.5425 F       1  UNL1       -0.1328
     30 F          -1.0744  -16.2239   20.2002 F       1  UNL1       -0.1328
@<TRIPOS>BOND
     1     4     5    1
     2     5     6    1
     3     7     6    1
     4     7     8    1
     5     8     9    1
     6     9     1    1
     7     1    19    1
     8    19    20    1
     9    20    21   ar
    10    21    22   ar
    11    22    23   ar
    12    23    24   ar
    13    24    26    1
    14    26    27    1
    15    27    28    1
    16    27    29    1
    17    27    30    1
    18    24    25   ar
    19     1     2   am
    20     2     3    2
    21     2    13    1
    22    13    14   ar
    23    14    15   ar
    24    15    16    1
    25    15    17   ar
    26    17    18   ar
    27     9    10    1
    28    11    10    1
    29    11    12    1
    30    12     5    1
    31    11     7    1
    32    25    20   ar
    33    18    13   ar
@<TRIPOS>MOLECULE
*****
 30 33 0 0 0
SMALL
GASTEIGER

@<TRIPOS>ATOM
      1 N          -7.9374  -19.2714   20.9805 N.am    1  UNL1       -0.2723
      2 C          -9.0598  -19.2870   19.9856 C.2     1  UNL1        0.2685
      3 O          -8.9446  -20.1113   18.7377 O.2     1  UNL1       -0.2682
      4 C          -8.5224  -15.0856   27.3168 C.3     1  UNL1        0.0896
      5 N          -8.4072  -15.9100   26.0689 N.3     1  UNL1       -0.2715
      6 C          -8.8930  -17.3184   25.8946 C.3     1  UNL1        0.0722
      7 C          -8.5720  -17.7495   24.4942 C.3     1  UNL1        0.0190
      8 C          -8.6739  -18.8864   23.5210 C.3     1  UNL1        0.0213
      9 C          -8.0526  -18.4471   22.2284 C.3     1  UNL1        0.0761
     10 C          -7.5668  -17.0387   22.4026 C.3     1  UNL1        0.0213
     11 C          -7.8878  -16.6076   23.8030 C.3     1  UNL1        0.0190
     12 C          -7.7860  -15.4707   24.7762 C.3     1  UNL1        0.0722
     13 C         -10.2975  -18.4781   20.2385 C.ar    1  UNL1        0.1535
     14 C         -11.4174  -18.8466   21.1660 C.ar    1  UNL1        0.1012
     15 N         -12.4446  -17.7550   21.1090 N.ar    1  UNL1       -0.3057
     16 C         -13.7310  -17.7137   21.8795 C.3     1  UNL1        0.1321
     17 C         -11.9596  -16.7119   20.1464 C.ar    1  UNL1        0.1787
     18 N         -10.6326  -17.1589   19.6084 N.ar    1  UNL1       -0.2192
     19 C          -6.6998  -20.0803   20.7276 C.3     1  UNL1        0.1205
     20 C          -5.3501  -19.4307   20.8068 C.ar    1  UNL1        0.0007
     21 C          -4.5185  -19.2755   19.5680 C.ar    1  UNL1       -0.0024
     22 C          -3.1688  -18.6259   19.6472 C.ar    1  UNL1        0.0028
     23 C          -2.6506  -18.1315   20.9652 C.ar    1  UNL1        0.0372
     24 C          -3.4821  -18.2867   22.2039 C.ar    1  UNL1        0.1465
     25 C          -4.8319  -18.9363   22.1247 C.ar    1  UNL1        0.0346
     26 O          -2.9639  -17.7922   23.5218 O.3     1  UNL1       -0.4045
     27 C          -3.8746  -17.0515   24.4557 C.3     1  UNL1        0.5753
     28 F          -4.7853  -16.3108   25.3895 F       1  UNL1       -0.1328
     29 F          -4.2373  -16.1043   23.3505 F       1  UNL1       -0.1328
     30 F          -3.5118  -17.9987   25.5608 F       1  UNL1       -0.1328
@<TRIPOS>BOND
     1     4     5    1
     2     5     6    1
     3     7     6    1
     4     7     8    1
     5     8     9    1
     6     9     1    1
     7     1    19    1
     8    19    20    1
     9    20    21   ar
    10    21    22   ar
    11    22    23   ar
    12    23    24   ar
    13    24    26    1
    14    26    27    1
    15    27    28    1
    16    27    29    1
    17    27    30    1
    18    24    25   ar
    19     1     2   am
    20     2     3    2
    21     2    13    1
    22    13    14   ar
    23    14    15   ar
    24    15    16    1
    25    15    17   ar
    26    17    18   ar
    27     9    10    1
    28    11    10    1
    29    11    12    1
    30    12     5    1
    31    11     7    1
    32    25    20   ar
    33    18    13   ar
@<TRIPOS>MOLECULE
*****
 30 33 0 0 0
SMALL
GASTEIGER

@<TRIPOS>ATOM
      1 N          -8.4380  -19.0370   20.8020 N.am    1  UNL1       -0.2723
      2 C          -7.2001  -19.6530   20.2206 C.2     1  UNL1        0.2685
      3 O          -7.2806  -20.4359   18.9437 O.2     1  UNL1       -0.2682
      4 C          -8.0290  -15.0615   27.2858 C.3     1  UNL1        0.0896
      5 N          -8.1096  -15.8444   26.0088 N.3     1  UNL1       -0.2715
      6 C          -8.7815  -17.1736   25.8305 C.3     1  UNL1        0.0722
      7 C          -8.6195  -17.5863   24.3975 C.3     1  UNL1        0.0190
      8 C          -8.9346  -18.6629   23.4016 C.3     1  UNL1        0.0213
      9 C          -8.3574  -18.2541   22.0789 C.3     1  UNL1        0.0761
     10 C          -7.6856  -16.9249   22.2572 C.3     1  UNL1        0.0213
     11 C          -7.8475  -16.5122   23.6902 C.3     1  UNL1        0.0190
     12 C          -7.5324  -15.4357   24.6861 C.3     1  UNL1        0.0722
     13 C          -5.8815  -19.4860   20.9161 C.ar    1  UNL1        0.1535
     14 C          -4.6144  -18.9788   20.2937 C.ar    1  UNL1        0.1012
     15 N          -3.5484  -18.9763   21.3491 N.ar    1  UNL1       -0.3057
     16 C          -2.1242  -18.5440   21.1626 C.3     1  UNL1        0.1321
     17 C          -4.1567  -19.4819   22.6235 C.ar    1  UNL1        0.1787
     18 N          -5.5986  -19.7969   22.3559 N.ar    1  UNL1       -0.2192
     19 C          -9.7564  -19.2040   20.1065 C.3     1  UNL1        0.1205
     20 C         -10.9004  -18.2925   20.4388 C.ar    1  UNL1        0.0007
     21 C         -10.9801  -16.9308   19.8145 C.ar    1  UNL1       -0.0024
     22 C         -12.1241  -16.0192   20.1468 C.ar    1  UNL1        0.0028
     23 C         -13.1884  -16.4694   21.1032 C.ar    1  UNL1        0.0372
     24 C         -13.1086  -17.8309   21.7274 C.ar    1  UNL1        0.1465
     25 C         -11.9647  -18.7425   21.3952 C.ar    1  UNL1        0.0346
     26 O         -14.1729  -18.2810   22.6838 O.3     1  UNL1       -0.4045
     27 C         -13.9167  -18.2464   24.1614 C.3     1  UNL1        0.5753
     28 F         -13.6606  -18.2119   25.6390 F       1  UNL1       -0.1328
     29 F         -12.5209  -17.7591   23.9080 F       1  UNL1       -0.1328
     30 F         -15.3125  -18.7338   24.4148 F       1  UNL1       -0.1328
@<TRIPOS>BOND
     1     4     5    1
     2     5     6    1
     3     7     6    1
     4     7     8    1
     5     8     9    1
     6     9     1    1
     7     1    19    1
     8    19    20    1
     9    20    21   ar
    10    21    22   ar
    11    22    23   ar
    12    23    24   ar
    13    24    26    1
    14    26    27    1
    15    27    28    1
    16    27    29    1
    17    27    30    1
    18    24    25   ar
    19     1     2   am
    20     2     3    2
    21     2    13    1
    22    13    14   ar
    23    14    15   ar
    24    15    16    1
    25    15    17   ar
    26    17    18   ar
    27     9    10    1
    28    11    10    1
    29    11    12    1
    30    12     5    1
    31    11     7    1
    32    25    20   ar
    33    18    13   ar
@<TRIPOS>MOLECULE
*****
 30 33 0 0 0
SMALL
GASTEIGER

@<TRIPOS>ATOM
      1 N          -7.0549  -19.5262   21.2047 N.am    1  UNL1       -0.2723
      2 C          -6.0372  -20.1798   20.3176 C.2     1  UNL1        0.2685
      3 O          -6.4545  -21.2658   19.3708 O.2     1  UNL1       -0.2682
      4 C          -4.9359  -14.0121   26.0125 C.3     1  UNL1        0.0896
      5 N          -5.3532  -15.0981   25.0657 N.3     1  UNL1       -0.2715
      6 C          -4.5343  -16.2940   24.6796 C.3     1  UNL1        0.0722
      7 C          -5.3377  -17.1138   23.7140 C.3     1  UNL1        0.0190
      8 C          -5.3281  -18.3596   22.8785 C.3     1  UNL1        0.0213
      9 C          -6.6376  -18.4403   22.1516 C.3     1  UNL1        0.0761
     10 C          -7.4566  -17.2444   22.5376 C.3     1  UNL1        0.0213
     11 C          -6.6532  -16.4246   23.5033 C.3     1  UNL1        0.0190
     12 C          -6.6628  -15.1788   24.3387 C.3     1  UNL1        0.0722
     13 C          -4.6020  -19.7474   20.3773 C.ar    1  UNL1        0.1535
     14 C          -3.9714  -18.6676   19.5488 C.ar    1  UNL1        0.1012
     15 N          -2.5252  -18.5718   19.9355 N.ar    1  UNL1       -0.3057
     16 C          -1.5188  -17.6222   19.3564 C.3     1  UNL1        0.1321
     17 C          -2.2622  -19.5923   21.0029 C.ar    1  UNL1        0.1787
     18 N          -3.5458  -20.3189   21.2759 N.ar    1  UNL1       -0.2192
     19 C          -8.4900  -19.9586   21.1450 C.3     1  UNL1        0.1205
     20 C          -9.4002  -19.7002   22.3089 C.ar    1  UNL1        0.0007
     21 C          -9.1686  -20.4044   23.6130 C.ar    1  UNL1       -0.0024
     22 C         -10.0788  -20.1459   24.7769 C.ar    1  UNL1        0.0028
     23 C         -11.2207  -19.1833   24.6367 C.ar    1  UNL1        0.0372
     24 C         -11.4523  -18.4793   23.3326 C.ar    1  UNL1        0.1465
     25 C         -10.5421  -18.7377   22.1687 C.ar    1  UNL1        0.0346
     26 O         -12.5942  -17.5167   23.1925 O.3     1  UNL1       -0.4045
     27 C         -12.7636  -16.7336   21.9244 C.3     1  UNL1        0.5753
     28 F         -12.9331  -15.9505   20.6563 F       1  UNL1       -0.1328
     29 F         -13.4078  -17.9230   21.2760 F       1  UNL1       -0.1328
     30 F         -12.1195  -15.5442   22.5729 F       1  UNL1       -0.1328
@<TRIPOS>BOND
     1     4     5    1
     2     5     6    1
     3     7     6    1
     4     7     8    1
     5     8     9    1
     6     9     1    1
     7     1    19    1
     8    19    20    1
     9    20    21   ar
    10    21    22   ar
    11    22    23   ar
    12    23    24   ar
    13    24    26    1
    14    26    27    1
    15    27    28    1
    16    27    29    1
    17    27    30    1
    18    24    25   ar
    19     1     2   am
    20     2     3    2
    21     2    13    1
    22    13    14   ar
    23    14    15   ar
    24    15    16    1
    25    15    17   ar
    26    17    18   ar
    27     9    10    1
    28    11    10    1
    29    11    12    1
    30    12     5    1
    31    11     7    1
    32    25    20   ar
    33    18    13   ar
@<TRIPOS>MOLECULE
*****
 30 33 0 0 0
SMALL
GASTEIGER

@<TRIPOS>ATOM
      1 N           4.3866   -1.3415   18.7489 N.am    1  UNL1       -0.2723
      2 C           3.6131   -0.6236   17.6830 C.2     1  UNL1        0.2685
      3 O           3.7461   -1.0426   16.2489 O.2     1  UNL1       -0.2682
      4 C           3.7113    0.7860   26.0310 C.3     1  UNL1        0.0896
      5 N           3.8443    0.3670   24.5969 N.3     1  UNL1       -0.2715
      6 C           2.9926   -0.6468   23.8919 C.3     1  UNL1        0.0722
      7 C           3.4743   -0.7521   22.4752 C.3     1  UNL1        0.0190
      8 C           3.2456   -1.4437   21.1640 C.3     1  UNL1        0.0213
      9 C           4.2536   -0.9225   20.1831 C.3     1  UNL1        0.0761
     10 C           5.1053    0.0912   20.8880 C.3     1  UNL1        0.0213
     11 C           4.6236    0.1965   22.3047 C.3     1  UNL1        0.0190
     12 C           4.8523    0.8881   23.6159 C.3     1  UNL1        0.0722
     13 C           2.7065    0.5133   18.0512 C.ar    1  UNL1        0.1535
     14 C           3.1277    1.9307   18.3034 C.ar    1  UNL1        0.1012
     15 N           1.9010    2.7258   18.6399 N.ar    1  UNL1       -0.3057
     16 C           1.8607    4.1899   18.9637 C.3     1  UNL1        0.1321
     17 C           0.7218    1.7998   18.5957 C.ar    1  UNL1        0.1787
     18 N           1.2197    0.4324   18.2319 N.ar    1  UNL1       -0.2192
     19 C           5.2932   -2.4784   18.3807 C.3     1  UNL1        0.1205
     20 C           6.4416   -2.8418   19.2747 C.ar    1  UNL1        0.0007
     21 C           7.8155   -2.3155   18.9820 C.ar    1  UNL1       -0.0024
     22 C           8.9639   -2.6788   19.8760 C.ar    1  UNL1        0.0028
     23 C           8.7385   -3.5684   21.0625 C.ar    1  UNL1        0.0372
     24 C           7.3646   -4.0947   21.3551 C.ar    1  UNL1        0.1465
     25 C           6.2162   -3.7313   20.4611 C.ar    1  UNL1        0.0346
     26 O           7.1393   -4.9843   22.5415 O.3     1  UNL1       -0.4045
     27 C           6.9679   -4.3855   23.9061 C.3     1  UNL1        0.5753
     28 F           6.7966   -3.7867   25.2707 F       1  UNL1       -0.1328
     29 F           8.3793   -4.7611   24.2482 F       1  UNL1       -0.1328
     30 F           5.5566   -4.0098   23.5641 F       1  UNL1       -0.1328
@<TRIPOS>BOND
     1     4     5    1
     2     5     6    1
     3     7     6    1
     4     7     8    1
     5     8     9    1
     6     9     1    1
     7     1    19    1
     8    19    20    1
     9    20    21   ar
    10    21    22   ar
    11    22    23   ar
    12    23    24   ar
    13    24    26    1
    14    26    27    1
    15    27    28    1
    16    27    29    1
    17    27    30    1
    18    24    25   ar
    19     1     2   am
    20     2     3    2
    21     2    13    1
    22    13    14   ar
    23    14    15   ar
    24    15    16    1
    25    15    17   ar
    26    17    18   ar
    27     9    10    1
    28    11    10    1
    29    11    12    1
    30    12     5    1
    31    11     7    1
    32    25    20   ar
    33    18    13   ar
@<TRIPOS>MOLECULE
*****
 30 33 0 0 0
SMALL
GASTEIGER

@<TRIPOS>ATOM
      1 N           3.9466    2.5081   33.4267 N.am    1  UNL1       -0.2723
      2 C           2.9136    3.1194   32.5272 C.2     1  UNL1        0.2685
      3 O           2.3469    4.4711   32.8460 O.2     1  UNL1       -0.2682
      4 C           6.8239   -4.3558   31.8080 C.3     1  UNL1        0.0896
      5 N           6.2572   -3.0040   32.1268 N.3     1  UNL1       -0.2715
      6 C           5.0432   -2.7322   32.9648 C.3     1  UNL1        0.0722
      7 C           4.8408   -1.2469   33.0195 C.3     1  UNL1        0.0190
      8 C           3.9654   -0.1609   33.5712 C.3     1  UNL1        0.0213
      9 C           4.5133    1.1563   33.1079 C.3     1  UNL1        0.0761
     10 C           5.7272    0.8845   32.2699 C.3     1  UNL1        0.0213
     11 C           5.9297   -0.6008   32.2152 C.3     1  UNL1        0.0190
     12 C           6.8051   -1.6867   31.6635 C.3     1  UNL1        0.0722
     13 C           2.4471    2.3789   31.3089 C.ar    1  UNL1        0.1535
     14 C           2.8923    2.6321   29.8990 C.ar    1  UNL1        0.1012
     15 N           2.1739    1.6649   29.0054 N.ar    1  UNL1       -0.3057
     16 C           2.3192    1.5659   27.5158 C.3     1  UNL1        0.1321
     17 C           1.2848    0.8141   29.8630 C.ar    1  UNL1        0.1787
     18 N           1.4537    1.2554   31.2866 N.ar    1  UNL1       -0.2192
     19 C           4.4130    3.2485   34.6449 C.3     1  UNL1        0.1205
     20 C           4.2069    2.6560   36.0074 C.ar    1  UNL1        0.0007
     21 C           5.3645    2.5291   36.9530 C.ar    1  UNL1       -0.0024
     22 C           5.1584    1.9366   38.3155 C.ar    1  UNL1        0.0028
     23 C           3.7947    1.4710   38.7325 C.ar    1  UNL1        0.0372
     24 C           2.6373    1.5979   37.7869 C.ar    1  UNL1        0.1465
     25 C           2.8434    2.1904   36.4244 C.ar    1  UNL1        0.0346
     26 O           1.2737    1.1323   38.2038 O.3     1  UNL1       -0.4045
     27 C           0.9022    1.1053   39.6568 C.3     1  UNL1        0.5753
     28 F           0.5307    1.0783   41.1098 F       1  UNL1       -0.1328
     29 F           0.7396    2.5964   39.6430 F       1  UNL1       -0.1328
     30 F           1.0648   -0.3858   39.6707 F       1  UNL1       -0.1328
@<TRIPOS>BOND
     1     4     5    1
     2     5     6    1
     3     7     6    1
     4     7     8    1
     5     8     9    1
     6     9     1    1
     7     1    19    1
     8    19    20    1
     9    20    21   ar
    10    21    22   ar
    11    22    23   ar
    12    23    24   ar
    13    24    26    1
    14    26    27    1
    15    27    28    1
    16    27    29    1
    17    27    30    1
    18    24    25   ar
    19     1     2   am
    20     2     3    2
    21     2    13    1
    22    13    14   ar
    23    14    15   ar
    24    15    16    1
    25    15    17   ar
    26    17    18   ar
    27     9    10    1
    28    11    10    1
    29    11    12    1
    30    12     5    1
    31    11     7    1
    32    25    20   ar
    33    18    13   ar
@<TRIPOS>MOLECULE
*****
 30 33 0 0 0
SMALL
GASTEIGER

@<TRIPOS>ATOM
      1 N           4.2875   -0.3018   34.1681 N.am    1  UNL1       -0.2723
      2 C           4.2062   -1.3115   33.0619 C.2     1  UNL1        0.2685
      3 O           4.5190   -2.7525   33.3372 O.2     1  UNL1       -0.2682
      4 C           2.6994    7.0149   32.7702 C.3     1  UNL1        0.0896
      5 N           3.0122    5.5740   33.0455 N.3     1  UNL1       -0.2715
      6 C           4.3591    4.9252   32.9236 C.3     1  UNL1        0.0722
      7 C           4.2123    3.4790   33.2938 C.3     1  UNL1        0.0190
      8 C           4.9540    2.1843   33.4473 C.3     1  UNL1        0.0213
      9 C           3.9747    1.1391   33.8928 C.3     1  UNL1        0.0761
     10 C           2.6278    1.7878   34.0147 C.3     1  UNL1        0.0213
     11 C           2.7746    3.2340   33.6445 C.3     1  UNL1        0.0190
     12 C           2.0329    4.5287   33.4911 C.3     1  UNL1        0.0722
     13 C           3.8122   -0.8803   31.6802 C.ar    1  UNL1        0.1535
     14 C           4.7460   -0.4195   30.6005 C.ar    1  UNL1        0.1012
     15 N           3.9261   -0.0886   29.3888 N.ar    1  UNL1       -0.3057
     16 C           4.4539    0.4109   28.0766 C.3     1  UNL1        0.1321
     17 C           2.4856   -0.3449   29.7196 C.ar    1  UNL1        0.1787
     18 N           2.4153   -0.8342   31.1358 N.ar    1  UNL1       -0.2192
     19 C           4.6815   -0.7331   35.5497 C.3     1  UNL1        0.1205
     20 C           4.8563    0.2893   36.6333 C.ar    1  UNL1        0.0007
     21 C           6.1778    0.9768   36.8096 C.ar    1  UNL1       -0.0024
     22 C           6.3526    1.9992   37.8932 C.ar    1  UNL1        0.0028
     23 C           5.2059    2.3341   38.8005 C.ar    1  UNL1        0.0372
     24 C           3.8845    1.6466   38.6241 C.ar    1  UNL1        0.1465
     25 C           3.7097    0.6242   37.5405 C.ar    1  UNL1        0.0346
     26 O           2.7378    1.9815   39.5313 O.3     1  UNL1       -0.4045
     27 C           1.3711    1.4328   39.2465 C.3     1  UNL1        0.5753
     28 F           0.0045    0.8840   38.9618 F       1  UNL1       -0.1328
     29 F           1.0190    2.6916   38.5109 F       1  UNL1       -0.1328
     30 F           1.7233    0.1739   39.9822 F       1  UNL1       -0.1328
@<TRIPOS>BOND
     1     4     5    1
     2     5     6    1
     3     7     6    1
     4     7     8    1
     5     8     9    1
     6     9     1    1
     7     1    19    1
     8    19    20    1
     9    20    21   ar
    10    21    22   ar
    11    22    23   ar
    12    23    24   ar
    13    24    26    1
    14    26    27    1
    15    27    28    1
    16    27    29    1
    17    27    30    1
    18    24    25   ar
    19     1     2   am
    20     2     3    2
    21     2    13    1
    22    13    14   ar
    23    14    15   ar
    24    15    16    1
    25    15    17   ar
    26    17    18   ar
    27     9    10    1
    28    11    10    1
    29    11    12    1
    30    12     5    1
    31    11     7    1
    32    25    20   ar
    33    18    13   ar
@<TRIPOS>MOLECULE
*****
 30 33 0 0 0
SMALL
GASTEIGER

@<TRIPOS>ATOM
      1 N           6.9986   -3.5132   22.6146 N.am    1  UNL1       -0.2723
      2 C           6.8751   -4.1684   21.2709 C.2     1  UNL1        0.2685
      3 O           7.8095   -5.2778   20.8888 O.2     1  UNL1       -0.2682
      4 C           2.2537    2.1200   24.5550 C.3     1  UNL1        0.0896
      5 N           3.1882    1.0106   24.1729 N.3     1  UNL1       -0.2715
      6 C           2.9026   -0.4583   24.2777 C.3     1  UNL1        0.0722
      7 C           4.1102   -1.2014   23.7884 C.3     1  UNL1        0.0190
      8 C           4.6800   -2.5685   23.5508 C.3     1  UNL1        0.0213
      9 C           6.0641   -2.4038   22.9967 C.3     1  UNL1        0.0761
     10 C           6.3498   -0.9350   22.8919 C.3     1  UNL1        0.0213
     11 C           5.1422   -0.1919   23.3812 C.3     1  UNL1        0.0190
     12 C           4.5723    1.1752   23.6188 C.3     1  UNL1        0.0722
     13 C           5.8171   -3.7143   20.3094 C.ar    1  UNL1        0.1535
     14 C           5.9102   -2.5332   19.3894 C.ar    1  UNL1        0.1012
     15 N           4.6309   -2.4505   18.6105 N.ar    1  UNL1       -0.3057
     16 C           4.2944   -1.4189   17.5748 C.3     1  UNL1        0.1321
     17 C           3.7473   -3.5804   19.0491 C.ar    1  UNL1        0.1787
     18 N           4.4804   -4.3614   20.0991 N.ar    1  UNL1       -0.2192
     19 C           8.0565   -3.9673   23.5760 C.3     1  UNL1        0.1205
     20 C           7.7710   -5.0885   24.5307 C.ar    1  UNL1        0.0007
     21 C           8.2393   -6.4786   24.2167 C.ar    1  UNL1       -0.0024
     22 C           7.9537   -7.5998   25.1714 C.ar    1  UNL1        0.0028
     23 C           7.1999   -7.3309   26.4401 C.ar    1  UNL1        0.0372
     24 C           6.7316   -5.9409   26.7540 C.ar    1  UNL1        0.1465
     25 C           7.0171   -4.8197   25.7993 C.ar    1  UNL1        0.0346
     26 O           5.9778   -5.6721   28.0226 O.3     1  UNL1       -0.4045
     27 C           6.6765   -5.0426   29.1912 C.3     1  UNL1        0.5753
     28 F           7.3752   -4.4131   30.3598 F       1  UNL1       -0.1328
     29 F           7.2238   -6.3823   29.5857 F       1  UNL1       -0.1328
     30 F           6.1291   -3.7029   28.7967 F       1  UNL1       -0.1328
@<TRIPOS>BOND
     1     4     5    1
     2     5     6    1
     3     7     6    1
     4     7     8    1
     5     8     9    1
     6     9     1    1
     7     1    19    1
     8    19    20    1
     9    20    21   ar
    10    21    22   ar
    11    22    23   ar
    12    23    24   ar
    13    24    26    1
    14    26    27    1
    15    27    28    1
    16    27    29    1
    17    27    30    1
    18    24    25   ar
    19     1     2   am
    20     2     3    2
    21     2    13    1
    22    13    14   ar
    23    14    15   ar
    24    15    16    1
    25    15    17   ar
    26    17    18   ar
    27     9    10    1
    28    11    10    1
    29    11    12    1
    30    12     5    1
    31    11     7    1
    32    25    20   ar
    33    18    13   ar
@<TRIPOS>MOLECULE
*****
 30 33 0 0 0
SMALL
GASTEIGER

@<TRIPOS>ATOM
      1 N          -5.2063  -19.4804   21.2610 N.am    1  UNL1       -0.2723
      2 C          -4.0375  -19.5554   20.3238 C.2     1  UNL1        0.2685
      3 O          -3.9955  -20.6124   19.2604 O.2     1  UNL1       -0.2682
      4 C          -5.4199  -14.1132   26.6608 C.3     1  UNL1        0.0896
      5 N          -5.3778  -15.1702   25.5974 N.3     1  UNL1       -0.2715
      6 C          -4.3523  -16.2580   25.4756 C.3     1  UNL1        0.0722
      7 C          -4.6945  -17.0852   24.2719 C.3     1  UNL1        0.0190
      8 C          -4.2722  -18.2686   23.4528 C.3     1  UNL1        0.0213
      9 C          -5.2484  -18.4234   22.3245 C.3     1  UNL1        0.0761
     10 C          -6.2739  -17.3356   22.4462 C.3     1  UNL1        0.0213
     11 C          -5.9316  -16.5085   23.6498 C.3     1  UNL1        0.0190
     12 C          -6.3539  -15.3250   24.4690 C.3     1  UNL1        0.0722
     13 C          -2.9107  -18.5732   20.4501 C.ar    1  UNL1        0.1535
     14 C          -1.4683  -18.8414   20.1376 C.ar    1  UNL1        0.1012
     15 N          -0.6947  -17.5844   20.4054 N.ar    1  UNL1       -0.3057
     16 C           0.7836  -17.4040   20.2266 C.3     1  UNL1        0.1321
     17 C          -1.6590  -16.5396   20.8834 C.ar    1  UNL1        0.1787
     18 N          -3.0285  -17.1508   20.9110 N.ar    1  UNL1       -0.2192
     19 C          -6.3330  -20.4625   21.1347 C.3     1  UNL1        0.1205
     20 C          -7.7507  -19.9751   21.0843 C.ar    1  UNL1        0.0007
     21 C          -8.3642  -19.5871   19.7715 C.ar    1  UNL1       -0.0024
     22 C          -9.7818  -19.0997   19.7211 C.ar    1  UNL1        0.0028
     23 C         -10.5861  -19.0002   20.9834 C.ar    1  UNL1        0.0372
     24 C          -9.9726  -19.3881   22.2960 C.ar    1  UNL1        0.1465
     25 C          -8.5549  -19.8756   22.3465 C.ar    1  UNL1        0.0346
     26 O         -10.7769  -19.2886   23.5583 O.3     1  UNL1       -0.4045
     27 C         -10.1441  -18.7592   24.8110 C.3     1  UNL1        0.5753
     28 F          -9.5113  -18.2298   26.0637 F       1  UNL1       -0.1328
     29 F         -10.1807  -20.1338   25.4103 F       1  UNL1       -0.1328
     30 F         -10.1075  -17.3847   24.2117 F       1  UNL1       -0.1328
@<TRIPOS>BOND
     1     4     5    1
     2     5     6    1
     3     7     6    1
     4     7     8    1
     5     8     9    1
     6     9     1    1
     7     1    19    1
     8    19    20    1
     9    20    21   ar
    10    21    22   ar
    11    22    23   ar
    12    23    24   ar
    13    24    26    1
    14    26    27    1
    15    27    28    1
    16    27    29    1
    17    27    30    1
    18    24    25   ar
    19     1     2   am
    20     2     3    2
    21     2    13    1
    22    13    14   ar
    23    14    15   ar
    24    15    16    1
    25    15    17   ar
    26    17    18   ar
    27     9    10    1
    28    11    10    1
    29    11    12    1
    30    12     5    1
    31    11     7    1
    32    25    20   ar
    33    18    13   ar
