@<TRIPOS>MOLECULE
*****
 44 47 0 0 0
SMALL
GASTEIGER

@<TRIPOS>ATOM
      1 C           0.0787    2.2316   19.6514 C.2     1  UNL1        0.2248
      2 O          -0.4241    2.1948   18.2386 O.2     1  UNL1       -0.2749
      3 N          -0.8012    2.7559   20.7472 N.am    1  UNL1       -0.2774
      4 C          -0.4377    2.8536   22.1991 C.3     1  UNL1        0.0956
      5 C          -1.6110    3.4327   22.9327 C.3     1  UNL1        0.0497
      6 C          -2.6996    3.6929   21.9341 C.3     1  UNL1        0.1533
      7 C          -2.1991    3.2746   20.5834 C.3     1  UNL1        0.1198
      8 C           1.4615    1.7441   19.9683 C.3     1  UNL1        0.0691
      9 C           0.7208    0.4398   19.9608 C.3     1  UNL1        0.0090
     10 C           1.4533   -0.8402   20.2346 C.3     1  UNL1        0.0060
     11 C           2.9265   -0.8159   20.5159 C.3     1  UNL1        0.0366
     12 C           3.6671    0.4885   20.5234 C.3     1  UNL1        0.0060
     13 C           2.9346    1.7684   20.2495 C.3     1  UNL1        0.0090
     14 C           3.6590   -2.0959   20.7897 C.2     1  UNL1        0.0500
     15 O           3.5726   -3.2328   19.8150 O.co2   1  UNL1       -0.5492
     16 O           4.4780   -2.2391   22.0382 O.co2   1  UNL1       -0.5492
     17 C           2.6627    3.7423   18.8218 C.3     1  UNL1        0.0005
     18 C           1.7219    3.2178   19.8657 C.3     1  UNL1        0.0086
     19 C          -3.4609    4.1871   23.1283 C.ar    1  UNL1       -0.0005
     20 C          -4.3976    3.2673   23.8539 C.ar    1  UNL1       -0.0029
     21 C          -5.1589    3.7616   25.0481 C.ar    1  UNL1       -0.0015
     22 C          -4.9835    5.1757   25.5166 C.ar    1  UNL1        0.0235
     23 C          -4.0469    6.0956   24.7910 C.ar    1  UNL1       -0.0015
     24 C          -3.2856    5.6013   23.5969 C.ar    1  UNL1       -0.0029
     25 C          -5.7449    5.6700   26.7109 C.3     1  UNL1        0.3242
     26 F          -4.9420    4.7648   27.5973 F       1  UNL1       -0.2176
     27 C          -6.5062    6.1643   27.9050 C.3     1  UNL1        0.4363
     28 F          -7.2676    6.6585   29.0993 F       1  UNL1       -0.1666
     29 F          -5.2718    6.8530   28.4069 F       1  UNL1       -0.1666
     30 F          -7.2845    5.7962   27.6968 F       1  UNL1       -0.1666
     31 C          -6.5478    6.5752   25.8244 C.3     1  UNL1        0.4363
     32 F          -7.3508    7.4804   24.9378 F       1  UNL1       -0.1666
     33 F          -6.1920    7.3385   26.0987 F       1  UNL1       -0.1666
     34 F          -7.4270    5.6385   25.0500 F       1  UNL1       -0.1666
     35 S          -3.9473    4.0564   21.1852 S.O2    1  UNL1        0.0106
     36 O          -3.8341    5.3870   20.9880 O.2     1  UNL1       -0.1684
     37 O          -4.3883    2.6232   21.2242 O.2     1  UNL1       -0.1684
     38 C          -5.1952    4.4198   20.4362 C.ar    1  UNL1        0.1061
     39 C          -5.6960    3.5306   19.3369 C.ar    1  UNL1        0.0207
     40 C          -6.9438    3.8941   18.5880 C.ar    1  UNL1        0.0310
     41 C          -7.6907    5.1468   18.9384 C.ar    1  UNL1        0.1402
     42 F          -8.9385    5.5103   18.1895 F       1  UNL1       -0.2042
     43 C          -7.1899    6.0359   20.0377 C.ar    1  UNL1        0.0310
     44 C          -5.9422    5.6725   20.7866 C.ar    1  UNL1        0.0207
@<TRIPOS>UNITY_ATOM_ATTR
15 1
charge -1
@<TRIPOS>BOND
     1    17    18    1
     2     8    18    1
     3     8     1    1
     4     1     2    2
     5     1     3   am
     6     3     4    1
     7     4     5    1
     8     5     6    1
     9     6    19    1
    10    19    20   ar
    11    20    21   ar
    12    21    22   ar
    13    22    25    1
    14    25    26    1
    15    25    27    1
    16    27    28    1
    17    27    29    1
    18    27    30    1
    19    25    31    1
    20    31    32    1
    21    31    33    1
    22    31    34    1
    23    22    23   ar
    24    23    24   ar
    25     6    35    1
    26    35    36    2
    27    35    37    2
    28    35    38    1
    29    38    39   ar
    30    39    40   ar
    31    40    41   ar
    32    41    42    1
    33    41    43   ar
    34    43    44   ar
    35     6     7    1
    36     8     9    1
    37     9    10    1
    38    10    11    1
    39    11    14    1
    40    14    15   ar
    41    14    16   ar
    42    11    12    1
    43    12    13    1
    44    13     8    1
    45     7     3    1
    46    24    19   ar
    47    44    38   ar
@<TRIPOS>MOLECULE
*****
 44 47 0 0 0
SMALL
GASTEIGER

@<TRIPOS>ATOM
      1 C           5.0661    0.5277   36.4253 C.2     1  UNL1        0.2248
      2 O           6.0598   -0.5236   36.8221 O.2     1  UNL1       -0.2749
      3 N           4.5741    0.5986   35.0100 N.am    1  UNL1       -0.2774
      4 C           3.5865    1.5892   34.4686 C.3     1  UNL1        0.0956
      5 C           3.3854    1.2941   33.0117 C.3     1  UNL1        0.0497
      6 C           4.2488    0.1212   32.6528 C.3     1  UNL1        0.1533
      7 C           4.9835   -0.3087   33.8879 C.3     1  UNL1        0.1198
      8 C           4.5643    1.5080   37.4438 C.3     1  UNL1        0.0691
      9 C           3.3506    0.6386   37.2990 C.3     1  UNL1        0.0090
     10 C           2.1172    0.9333   38.1002 C.3     1  UNL1        0.0060
     11 C           2.0974    2.0973   39.0461 C.3     1  UNL1        0.0366
     12 C           3.3112    2.9667   39.1908 C.3     1  UNL1        0.0060
     13 C           4.5446    2.6720   38.3896 C.3     1  UNL1        0.0090
     14 C           0.8641    2.3919   39.8472 C.2     1  UNL1        0.0500
     15 O          -0.4843    2.3484   39.1916 O.co2   1  UNL1       -0.5492
     16 O           0.9790    2.7301   41.3041 O.co2   1  UNL1       -0.5492
     17 C           6.1540    3.4316   36.7208 C.3     1  UNL1        0.0005
     18 C           5.9523    2.0370   37.2348 C.3     1  UNL1        0.0086
     19 C           3.6693    0.3143   31.2827 C.ar    1  UNL1       -0.0005
     20 C           2.6270   -0.6340   30.7688 C.ar    1  UNL1       -0.0029
     21 C           2.0475   -0.4409   29.3988 C.ar    1  UNL1       -0.0015
     22 C           2.5104    0.7006   28.5428 C.ar    1  UNL1        0.0235
     23 C           3.5527    1.6489   29.0567 C.ar    1  UNL1       -0.0015
     24 C           4.1322    1.4558   30.4267 C.ar    1  UNL1       -0.0029
     25 C           1.9309    0.8937   27.1727 C.3     1  UNL1        0.3242
     26 F           2.7965   -0.2144   26.6505 F       1  UNL1       -0.2176
     27 C           1.3515    1.0868   25.8027 C.3     1  UNL1        0.4363
     28 F           0.7719    1.2798   24.4327 F       1  UNL1       -0.1666
     29 F           2.7101    1.4465   25.2788 F       1  UNL1       -0.1666
     30 F           0.5134    0.8898   26.0112 F       1  UNL1       -0.1666
     31 C           1.0653    2.0018   27.6950 C.3     1  UNL1        0.4363
     32 F           0.1997    3.1100   28.2172 F       1  UNL1       -0.1666
     33 F           0.5136    1.4946   28.1670 F       1  UNL1       -0.1666
     34 F           1.6661    3.2419   27.1021 F       1  UNL1       -0.1666
     35 S           4.9910   -1.0113   32.0075 S.O2    1  UNL1        0.0106
     36 O           6.0010   -0.4059   31.3473 O.2     1  UNL1       -0.1684
     37 O           4.0196   -1.9871   32.6026 O.2     1  UNL1       -0.1684
     38 C           5.7333   -2.1439   31.3621 C.ar    1  UNL1        0.1061
     39 C           6.2031   -3.3020   32.1917 C.ar    1  UNL1        0.0207
     40 C           6.9453   -4.4345   31.5463 C.ar    1  UNL1        0.0310
     41 C           7.2176   -4.4090   30.0716 C.ar    1  UNL1        0.1402
     42 F           7.9598   -5.5416   29.4262 F       1  UNL1       -0.2042
     43 C           6.7478   -3.2510   29.2420 C.ar    1  UNL1        0.0310
     44 C           6.0056   -2.1184   29.8873 C.ar    1  UNL1        0.0207
@<TRIPOS>UNITY_ATOM_ATTR
15 1
charge -1
@<TRIPOS>BOND
     1    17    18    1
     2     8    18    1
     3     8     1    1
     4     1     2    2
     5     1     3   am
     6     3     4    1
     7     4     5    1
     8     5     6    1
     9     6    19    1
    10    19    20   ar
    11    20    21   ar
    12    21    22   ar
    13    22    25    1
    14    25    26    1
    15    25    27    1
    16    27    28    1
    17    27    29    1
    18    27    30    1
    19    25    31    1
    20    31    32    1
    21    31    33    1
    22    31    34    1
    23    22    23   ar
    24    23    24   ar
    25     6    35    1
    26    35    36    2
    27    35    37    2
    28    35    38    1
    29    38    39   ar
    30    39    40   ar
    31    40    41   ar
    32    41    42    1
    33    41    43   ar
    34    43    44   ar
    35     6     7    1
    36     8     9    1
    37     9    10    1
    38    10    11    1
    39    11    14    1
    40    14    15   ar
    41    14    16   ar
    42    11    12    1
    43    12    13    1
    44    13     8    1
    45     7     3    1
    46    24    19   ar
    47    44    38   ar
@<TRIPOS>MOLECULE
*****
 44 47 0 0 0
SMALL
GASTEIGER

@<TRIPOS>ATOM
      1 C          -0.3955    2.3819   26.6009 C.2     1  UNL1        0.2248
      2 O          -1.5564    3.2659   26.2530 O.2     1  UNL1       -0.2749
      3 N           0.4772    1.8277   25.5140 N.am    1  UNL1       -0.2774
      4 C           1.6670    0.9351   25.7078 C.3     1  UNL1        0.0956
      5 C           2.2384    0.6244   24.3562 C.3     1  UNL1        0.0497
      6 C           1.4017    1.3250   23.3271 C.3     1  UNL1        0.1533
      7 C           0.3132    2.0687   24.0427 C.3     1  UNL1        0.1198
      8 C          -0.1072    2.0523   28.0356 C.3     1  UNL1        0.0691
      9 C           0.4642    3.4375   27.9667 C.3     1  UNL1        0.0090
     10 C           1.0906    4.0518   29.1834 C.3     1  UNL1        0.0060
     11 C           1.1457    3.2809   30.4689 C.3     1  UNL1        0.0366
     12 C           0.5742    1.8957   30.5378 C.3     1  UNL1        0.0060
     13 C          -0.0522    1.2815   29.3211 C.3     1  UNL1        0.0090
     14 C           1.7721    3.8951   31.6856 C.2     1  UNL1        0.0500
     15 O           1.1904    3.6315   33.0428 O.co2   1  UNL1       -0.5492
     16 O           2.9802    4.7729   31.5451 O.co2   1  UNL1       -0.5492
     17 C          -1.1569   -0.2492   28.6281 C.3     1  UNL1        0.0005
     18 C          -0.7787    0.7816   27.6063 C.3     1  UNL1        0.0086
     19 C           2.3571    0.7005   22.3537 C.ar    1  UNL1       -0.0005
     20 C           2.0095   -0.5994   21.6907 C.ar    1  UNL1       -0.0029
     21 C           2.9649   -1.2238   20.7174 C.ar    1  UNL1       -0.0015
     22 C           4.2677   -0.5483   20.4071 C.ar    1  UNL1        0.0235
     23 C           4.6153    0.7515   21.0700 C.ar    1  UNL1       -0.0015
     24 C           3.6599    1.3759   22.0433 C.ar    1  UNL1       -0.0029
     25 C           5.2231   -1.1728   19.4337 C.3     1  UNL1        0.3242
     26 F           6.2119   -1.3863   20.5412 F       1  UNL1       -0.2176
     27 C           6.1784   -1.7973   18.4604 C.3     1  UNL1        0.4363
     28 F           7.1338   -2.4218   17.4871 F       1  UNL1       -0.1666
     29 F           5.9846   -3.1284   19.1242 F       1  UNL1       -0.1666
     30 F           6.3608   -1.0621   18.0013 F       1  UNL1       -0.1666
     31 C           4.2343   -0.9594   18.3262 C.3     1  UNL1        0.4363
     32 F           3.2455   -0.7459   17.2186 F       1  UNL1       -0.1666
     33 F           4.0296   -1.8115   18.1984 F       1  UNL1       -0.1666
     34 F           4.2162    0.5287   18.1376 F       1  UNL1       -0.1666
     35 S           0.7648    1.8950   22.0944 S.O2    1  UNL1        0.0106
     36 O           0.0220    0.8772   21.6099 O.2     1  UNL1       -0.1684
     37 O           1.4565    3.2028   22.3418 O.2     1  UNL1       -0.1684
     38 C           0.1278    2.4652   20.8618 C.ar    1  UNL1        0.1061
     39 C           0.8396    2.3843   19.5439 C.ar    1  UNL1        0.0207
     40 C           0.2026    2.9544   18.3113 C.ar    1  UNL1        0.0310
     41 C          -1.1460    3.6053   18.3966 C.ar    1  UNL1        0.1402
     42 F          -1.7830    4.1754   17.1641 F       1  UNL1       -0.2042
     43 C          -1.8577    3.6862   19.7145 C.ar    1  UNL1        0.0310
     44 C          -1.2209    3.1162   20.9471 C.ar    1  UNL1        0.0207
@<TRIPOS>UNITY_ATOM_ATTR
15 1
charge -1
@<TRIPOS>BOND
     1    17    18    1
     2     8    18    1
     3     8     1    1
     4     1     2    2
     5     1     3   am
     6     3     4    1
     7     4     5    1
     8     5     6    1
     9     6    19    1
    10    19    20   ar
    11    20    21   ar
    12    21    22   ar
    13    22    25    1
    14    25    26    1
    15    25    27    1
    16    27    28    1
    17    27    29    1
    18    27    30    1
    19    25    31    1
    20    31    32    1
    21    31    33    1
    22    31    34    1
    23    22    23   ar
    24    23    24   ar
    25     6    35    1
    26    35    36    2
    27    35    37    2
    28    35    38    1
    29    38    39   ar
    30    39    40   ar
    31    40    41   ar
    32    41    42    1
    33    41    43   ar
    34    43    44   ar
    35     6     7    1
    36     8     9    1
    37     9    10    1
    38    10    11    1
    39    11    14    1
    40    14    15   ar
    41    14    16   ar
    42    11    12    1
    43    12    13    1
    44    13     8    1
    45     7     3    1
    46    24    19   ar
    47    44    38   ar
@<TRIPOS>MOLECULE
*****
 44 47 0 0 0
SMALL
GASTEIGER

@<TRIPOS>ATOM
      1 C           4.5743    0.9969   36.5886 C.2     1  UNL1        0.2248
      2 O           5.6138   -0.0130   36.9754 O.2     1  UNL1       -0.2749
      3 N           4.0694    1.0506   35.1772 N.am    1  UNL1       -0.2774
      4 C           3.0373    2.0005   34.6456 C.3     1  UNL1        0.0956
      5 C           2.8380    1.7009   33.1894 C.3     1  UNL1        0.0497
      6 C           3.7469    0.5658   32.8211 C.3     1  UNL1        0.1533
      7 C           4.5079    0.1640   34.0496 C.3     1  UNL1        0.1198
      8 C           4.0396    1.9530   37.6134 C.3     1  UNL1        0.0691
      9 C           5.2152    2.7385   37.1126 C.3     1  UNL1        0.0090
     10 C           5.5124    4.0920   37.6869 C.3     1  UNL1        0.0060
     11 C           4.6340    4.6599   38.7620 C.3     1  UNL1        0.0366
     12 C           3.4583    3.8744   39.2627 C.3     1  UNL1        0.0060
     13 C           3.1611    2.5210   38.6884 C.3     1  UNL1        0.0090
     14 C           4.9311    6.0134   39.3363 C.2     1  UNL1        0.0500
     15 O           6.3102    6.5916   39.2190 O.co2   1  UNL1       -0.5492
     16 O           3.8492    6.7887   40.0279 O.co2   1  UNL1       -0.5492
     17 C           2.0885    0.8294   38.9098 C.3     1  UNL1        0.0005
     18 C           3.0496    0.8354   37.7583 C.3     1  UNL1        0.0086
     19 C           3.1498    0.7379   31.4558 C.ar    1  UNL1       -0.0005
     20 C           2.3375   -0.3668   30.8477 C.ar    1  UNL1       -0.0029
     21 C           1.7405   -0.1947   29.4825 C.ar    1  UNL1       -0.0015
     22 C           1.9556    1.0822   28.7254 C.ar    1  UNL1        0.0235
     23 C           2.7679    2.1869   29.3334 C.ar    1  UNL1       -0.0015
     24 C           3.3649    2.0148   30.6986 C.ar    1  UNL1       -0.0029
     25 C           1.3585    1.2542   27.3601 C.3     1  UNL1        0.3242
     26 F           2.7282    1.4711   26.7884 F       1  UNL1       -0.2176
     27 C           0.7615    1.4263   25.9949 C.3     1  UNL1        0.4363
     28 F           0.1644    1.5984   24.6296 F       1  UNL1       -0.1666
     29 F           1.6630    0.3509   25.4651 F       1  UNL1       -0.1666
     30 F           0.1901    2.0691   26.2071 F       1  UNL1       -0.1666
     31 C          -0.0112    1.0374   27.9317 C.3     1  UNL1        0.4363
     32 F          -1.3809    0.8205   28.5034 F       1  UNL1       -0.1666
     33 F          -0.1660    0.2547   27.5472 F       1  UNL1       -0.1666
     34 F          -0.2495    2.2549   28.7749 F       1  UNL1       -0.1666
     35 S           4.5309   -0.5332   32.1673 S.O2    1  UNL1        0.0106
     36 O           5.4128    0.1184   31.3798 O.2     1  UNL1       -0.1684
     37 O           3.7166   -1.5535   32.9060 O.2     1  UNL1       -0.1684
     38 C           5.3149   -1.6323   31.5135 C.ar    1  UNL1        0.1061
     39 C           5.6424   -1.5530   30.0519 C.ar    1  UNL1        0.0207
     40 C           6.4264   -2.6521   29.3982 C.ar    1  UNL1        0.0310
     41 C           6.8829   -3.8305   30.2061 C.ar    1  UNL1        0.1402
     42 F           7.6669   -4.9296   29.5524 F       1  UNL1       -0.2042
     43 C           6.5555   -3.9098   31.6678 C.ar    1  UNL1        0.0310
     44 C           5.7715   -2.8108   32.3215 C.ar    1  UNL1        0.0207
@<TRIPOS>UNITY_ATOM_ATTR
15 1
charge -1
@<TRIPOS>BOND
     1    17    18    1
     2     8    18    1
     3     8     1    1
     4     1     2    2
     5     1     3   am
     6     3     4    1
     7     4     5    1
     8     5     6    1
     9     6    19    1
    10    19    20   ar
    11    20    21   ar
    12    21    22   ar
    13    22    25    1
    14    25    26    1
    15    25    27    1
    16    27    28    1
    17    27    29    1
    18    27    30    1
    19    25    31    1
    20    31    32    1
    21    31    33    1
    22    31    34    1
    23    22    23   ar
    24    23    24   ar
    25     6    35    1
    26    35    36    2
    27    35    37    2
    28    35    38    1
    29    38    39   ar
    30    39    40   ar
    31    40    41   ar
    32    41    42    1
    33    41    43   ar
    34    43    44   ar
    35     6     7    1
    36     8     9    1
    37     9    10    1
    38    10    11    1
    39    11    14    1
    40    14    15   ar
    41    14    16   ar
    42    11    12    1
    43    12    13    1
    44    13     8    1
    45     7     3    1
    46    24    19   ar
    47    44    38   ar
@<TRIPOS>MOLECULE
*****
 44 47 0 0 0
SMALL
GASTEIGER

@<TRIPOS>ATOM
      1 C           2.8315    2.8239   36.2816 C.2     1  UNL1        0.2248
      2 O           1.6306    3.5216   35.7150 O.2     1  UNL1       -0.2749
      3 N           3.5791    1.8236   35.4507 N.am    1  UNL1       -0.2774
      4 C           4.7912    1.0511   35.8798 C.3     1  UNL1        0.0956
      5 C           5.2071    0.1702   34.7391 C.3     1  UNL1        0.0497
      6 C           4.2521    0.3982   33.6052 C.3     1  UNL1        0.1533
      7 C           3.2459    1.4201   34.0450 C.3     1  UNL1        0.1198
      8 C           3.2849    3.1267   37.6791 C.3     1  UNL1        0.0691
      9 C           3.9411    4.2562   36.9419 C.3     1  UNL1        0.0090
     10 C           4.7681    5.2597   37.6897 C.3     1  UNL1        0.0060
     11 C           4.9388    5.1336   39.1746 C.3     1  UNL1        0.0366
     12 C           4.2825    4.0040   39.9117 C.3     1  UNL1        0.0060
     13 C           3.4556    3.0006   39.1640 C.3     1  UNL1        0.0090
     14 C           5.7658    6.1370   39.9224 C.2     1  UNL1        0.0500
     15 O           5.3926    6.5217   41.3234 O.co2   1  UNL1       -0.5492
     16 O           6.9659    6.7559   39.2693 O.co2   1  UNL1       -0.5492
     17 C           1.4296    1.8873   39.0102 C.3     1  UNL1        0.0005
     18 C           2.4712    1.8920   37.9309 C.3     1  UNL1        0.0086
     19 C           5.0954   -0.6206   32.8974 C.ar    1  UNL1       -0.0005
     20 C           4.9196   -2.0795   33.1982 C.ar    1  UNL1       -0.0029
     21 C           5.7629   -3.0981   32.4904 C.ar    1  UNL1       -0.0015
     22 C           6.7821   -2.6579   31.4818 C.ar    1  UNL1        0.0235
     23 C           6.9580   -1.1990   31.1809 C.ar    1  UNL1       -0.0015
     24 C           6.1146   -0.1803   31.8887 C.ar    1  UNL1       -0.0029
     25 C           7.6255   -3.6767   30.7739 C.3     1  UNL1        0.3242
     26 F           8.4819   -3.8175   31.9972 F       1  UNL1       -0.2176
     27 C           8.4688   -4.6954   30.0662 C.3     1  UNL1        0.4363
     28 F           9.3122   -5.7141   29.3584 F       1  UNL1       -0.1666
     29 F           7.6696   -5.7961   30.6982 F       1  UNL1       -0.1666
     30 F           8.9979   -4.1235   29.6448 F       1  UNL1       -0.1666
     31 C           6.7690   -3.5358   29.5506 C.3     1  UNL1        0.4363
     32 F           5.9125   -3.3949   28.3272 F       1  UNL1       -0.1666
     33 F           6.1373   -4.1066   29.7947 F       1  UNL1       -0.1666
     34 F           7.5055   -2.5398   28.7046 F       1  UNL1       -0.1666
     35 S           3.4733    0.4132   32.3233 S.O2    1  UNL1        0.0106
     36 O           2.9051   -0.8102   32.2718 O.2     1  UNL1       -0.1684
     37 O           3.9298    1.8181   32.0625 O.2     1  UNL1       -0.1684
     38 C           2.6945    0.4283   31.0413 C.ar    1  UNL1        0.1061
     39 C           1.6226    1.4555   30.8270 C.ar    1  UNL1        0.0207
     40 C           0.8439    1.4705   29.5450 C.ar    1  UNL1        0.0310
     41 C           1.1371    0.4585   28.4775 C.ar    1  UNL1        0.1402
     42 F           0.3584    0.4735   27.1956 F       1  UNL1       -0.2042
     43 C           2.2090   -0.5686   28.6918 C.ar    1  UNL1        0.0310
     44 C           2.9878   -0.5837   29.9737 C.ar    1  UNL1        0.0207
@<TRIPOS>UNITY_ATOM_ATTR
15 1
charge -1
@<TRIPOS>BOND
     1    17    18    1
     2     8    18    1
     3     8     1    1
     4     1     2    2
     5     1     3   am
     6     3     4    1
     7     4     5    1
     8     5     6    1
     9     6    19    1
    10    19    20   ar
    11    20    21   ar
    12    21    22   ar
    13    22    25    1
    14    25    26    1
    15    25    27    1
    16    27    28    1
    17    27    29    1
    18    27    30    1
    19    25    31    1
    20    31    32    1
    21    31    33    1
    22    31    34    1
    23    22    23   ar
    24    23    24   ar
    25     6    35    1
    26    35    36    2
    27    35    37    2
    28    35    38    1
    29    38    39   ar
    30    39    40   ar
    31    40    41   ar
    32    41    42    1
    33    41    43   ar
    34    43    44   ar
    35     6     7    1
    36     8     9    1
    37     9    10    1
    38    10    11    1
    39    11    14    1
    40    14    15   ar
    41    14    16   ar
    42    11    12    1
    43    12    13    1
    44    13     8    1
    45     7     3    1
    46    24    19   ar
    47    44    38   ar
@<TRIPOS>MOLECULE
*****
 44 47 0 0 0
SMALL
GASTEIGER

@<TRIPOS>ATOM
      1 C          -2.2200    4.4956   25.8564 C.2     1  UNL1        0.2248
      2 O          -1.8772    4.1832   27.2829 O.2     1  UNL1       -0.2749
      3 N          -1.4378    3.8662   24.7419 N.am    1  UNL1       -0.2774
      4 C          -1.6636    4.0822   23.2748 C.3     1  UNL1        0.0956
      5 C          -0.6578    3.2598   22.5251 C.3     1  UNL1        0.0497
      6 C           0.1896    2.5357   23.5288 C.3     1  UNL1        0.1533
      7 C          -0.2925    2.9105   24.8989 C.3     1  UNL1        0.1198
      8 C          -3.3451    5.4374   25.5443 C.3     1  UNL1        0.0691
      9 C          -4.0685    4.1269   25.4493 C.3     1  UNL1        0.0090
     10 C          -5.5301    4.0997   25.1129 C.3     1  UNL1        0.0060
     11 C          -6.2682    5.3831   24.8715 C.3     1  UNL1        0.0366
     12 C          -5.5446    6.6936   24.9666 C.3     1  UNL1        0.0060
     13 C          -4.0831    6.7208   25.3029 C.3     1  UNL1        0.0090
     14 C          -7.7297    5.3559   24.5351 C.2     1  UNL1        0.0500
     15 O          -8.7141    6.0739   25.4100 O.co2   1  UNL1       -0.5492
     16 O          -8.2068    4.6108   23.3239 O.co2   1  UNL1       -0.5492
     17 C          -1.9719    7.4837   24.7214 C.3     1  UNL1        0.0005
     18 C          -2.2309    6.4209   25.7477 C.3     1  UNL1        0.0086
     19 C           0.8790    1.9854   22.3155 C.ar    1  UNL1       -0.0005
     20 C           0.4644    0.6574   21.7550 C.ar    1  UNL1       -0.0029
     21 C           1.1538    0.1072   20.5418 C.ar    1  UNL1       -0.0015
     22 C           2.2578    0.8851   19.8891 C.ar    1  UNL1        0.0235
     23 C           2.6724    2.2131   20.4496 C.ar    1  UNL1       -0.0015
     24 C           1.9830    2.7633   21.6628 C.ar    1  UNL1       -0.0029
     25 C           2.9472    0.3348   18.6758 C.3     1  UNL1        0.3242
     26 F           2.5091    1.5313   17.8843 F       1  UNL1       -0.2176
     27 C           3.6365   -0.2154   17.4625 C.3     1  UNL1        0.4363
     28 F           4.3259   -0.7656   16.2492 F       1  UNL1       -0.1666
     29 F           4.9612    0.2124   18.0212 F       1  UNL1       -0.1666
     30 F           2.9097   -0.5058   17.0477 F       1  UNL1       -0.1666
     31 C           3.3853   -0.8617   19.4673 C.3     1  UNL1        0.4363
     32 F           3.8234   -2.0582   20.2588 F       1  UNL1       -0.1666
     33 F           2.9158   -1.4649   19.0199 F       1  UNL1       -0.1666
     34 F           4.3209   -0.2950   20.4938 F       1  UNL1       -0.1666
     35 S           1.1812    1.6966   24.2789 S.O2    1  UNL1        0.0106
     36 O           2.3593    2.3239   24.0767 O.2     1  UNL1       -0.1684
     37 O           0.0793    0.7688   24.6975 O.2     1  UNL1       -0.1684
     38 C           2.1727    0.8573   25.0290 C.ar    1  UNL1        0.1061
     39 C           2.4735    1.1578   26.4675 C.ar    1  UNL1        0.0207
     40 C           3.4651    0.3186   27.2175 C.ar    1  UNL1        0.0310
     41 C           4.1557   -0.8211   26.5291 C.ar    1  UNL1        0.1402
     42 F           5.1473   -1.6603   27.2791 F       1  UNL1       -0.2042
     43 C           3.8549   -1.1216   25.0907 C.ar    1  UNL1        0.0310
     44 C           2.8635   -0.2824   24.3406 C.ar    1  UNL1        0.0207
@<TRIPOS>UNITY_ATOM_ATTR
15 1
charge -1
@<TRIPOS>BOND
     1    17    18    1
     2     8    18    1
     3     8     1    1
     4     1     2    2
     5     1     3   am
     6     3     4    1
     7     4     5    1
     8     5     6    1
     9     6    19    1
    10    19    20   ar
    11    20    21   ar
    12    21    22   ar
    13    22    25    1
    14    25    26    1
    15    25    27    1
    16    27    28    1
    17    27    29    1
    18    27    30    1
    19    25    31    1
    20    31    32    1
    21    31    33    1
    22    31    34    1
    23    22    23   ar
    24    23    24   ar
    25     6    35    1
    26    35    36    2
    27    35    37    2
    28    35    38    1
    29    38    39   ar
    30    39    40   ar
    31    40    41   ar
    32    41    42    1
    33    41    43   ar
    34    43    44   ar
    35     6     7    1
    36     8     9    1
    37     9    10    1
    38    10    11    1
    39    11    14    1
    40    14    15   ar
    41    14    16   ar
    42    11    12    1
    43    12    13    1
    44    13     8    1
    45     7     3    1
    46    24    19   ar
    47    44    38   ar
@<TRIPOS>MOLECULE
*****
 44 47 0 0 0
SMALL
GASTEIGER

@<TRIPOS>ATOM
      1 C           2.8028    1.6434   28.8860 C.2     1  UNL1        0.2248
      2 O           1.6179    2.3963   29.4144 O.2     1  UNL1       -0.2749
      3 N           2.9191    1.3632   27.4170 N.am    1  UNL1       -0.2774
      4 C           4.0400    0.6261   26.7461 C.3     1  UNL1        0.0956
      5 C           3.7485    0.5782   25.2755 C.3     1  UNL1        0.0497
      6 C           2.4475    1.2858   25.0375 C.3     1  UNL1        0.1533
      7 C           1.9349    1.7709   26.3611 C.3     1  UNL1        0.1198
      8 C           3.8715    1.1707   29.8266 C.3     1  UNL1        0.0691
      9 C           2.8540    0.0861   30.0221 C.3     1  UNL1        0.0090
     10 C           3.1296   -1.0375   30.9769 C.3     1  UNL1        0.0060
     11 C           4.4227   -1.0765   31.7361 C.3     1  UNL1        0.0366
     12 C           5.4401    0.0082   31.5406 C.3     1  UNL1        0.0060
     13 C           5.1645    1.1318   30.5858 C.3     1  UNL1        0.0090
     14 C           4.6983   -2.2000   32.6909 C.2     1  UNL1        0.0500
     15 O           5.7914   -3.1839   32.3958 O.co2   1  UNL1       -0.5492
     16 O           3.8809   -2.3398   33.9407 O.co2   1  UNL1       -0.5492
     17 C           4.9254    3.5066   30.2541 C.3     1  UNL1        0.0005
     18 C           4.5178    2.4195   29.3044 C.3     1  UNL1        0.0086
     19 C           2.6991    0.9331   23.6014 C.ar    1  UNL1       -0.0005
     20 C           3.1243    1.9955   22.6316 C.ar    1  UNL1       -0.0029
     21 C           3.3759    1.6429   21.1956 C.ar    1  UNL1       -0.0015
     22 C           3.2023    0.2278   20.7293 C.ar    1  UNL1        0.0235
     23 C           2.7771   -0.8346   21.6990 C.ar    1  UNL1       -0.0015
     24 C           2.5255   -0.4819   23.1351 C.ar    1  UNL1       -0.0029
     25 C           3.4539   -0.1248   19.2931 C.3     1  UNL1        0.3242
     26 F           4.8553   -0.5328   19.6389 F       1  UNL1       -0.2176
     27 C           3.7056   -0.4775   17.8571 C.3     1  UNL1        0.4363
     28 F           3.9572   -0.8301   16.4210 F       1  UNL1       -0.1666
     29 F           3.6198   -1.9352   18.2000 F       1  UNL1       -0.1666
     30 F           3.7740    0.3516   17.5527 F       1  UNL1       -0.1666
     31 C           2.0525    0.2831   18.9474 C.3     1  UNL1        0.4363
     32 F           0.6510    0.6911   18.6016 F       1  UNL1       -0.1666
     33 F           1.6575   -0.4718   19.1894 F       1  UNL1       -0.1666
     34 F           2.2004    1.6803   18.4218 F       1  UNL1       -0.1666
     35 S           1.1991    1.9196   24.4993 S.O2    1  UNL1        0.0106
     36 O           0.4153    0.8705   24.1713 O.2     1  UNL1       -0.1684
     37 O           1.7852    3.2791   24.7407 O.2     1  UNL1       -0.1684
     38 C          -0.0494    2.5535   23.9611 C.ar    1  UNL1        0.1061
     39 C          -1.1414    2.9743   24.8994 C.ar    1  UNL1        0.0207
     40 C          -2.3898    3.6082   24.3612 C.ar    1  UNL1        0.0310
     41 C          -2.5461    3.8213   22.8847 C.ar    1  UNL1        0.1402
     42 F          -3.7945    4.4551   22.3465 F       1  UNL1       -0.2042
     43 C          -1.4542    3.4004   21.9464 C.ar    1  UNL1        0.0310
     44 C          -0.2058    2.7666   22.4845 C.ar    1  UNL1        0.0207
@<TRIPOS>UNITY_ATOM_ATTR
15 1
charge -1
@<TRIPOS>BOND
     1    17    18    1
     2     8    18    1
     3     8     1    1
     4     1     2    2
     5     1     3   am
     6     3     4    1
     7     4     5    1
     8     5     6    1
     9     6    19    1
    10    19    20   ar
    11    20    21   ar
    12    21    22   ar
    13    22    25    1
    14    25    26    1
    15    25    27    1
    16    27    28    1
    17    27    29    1
    18    27    30    1
    19    25    31    1
    20    31    32    1
    21    31    33    1
    22    31    34    1
    23    22    23   ar
    24    23    24   ar
    25     6    35    1
    26    35    36    2
    27    35    37    2
    28    35    38    1
    29    38    39   ar
    30    39    40   ar
    31    40    41   ar
    32    41    42    1
    33    41    43   ar
    34    43    44   ar
    35     6     7    1
    36     8     9    1
    37     9    10    1
    38    10    11    1
    39    11    14    1
    40    14    15   ar
    41    14    16   ar
    42    11    12    1
    43    12    13    1
    44    13     8    1
    45     7     3    1
    46    24    19   ar
    47    44    38   ar
@<TRIPOS>MOLECULE
*****
 44 47 0 0 0
SMALL
GASTEIGER

@<TRIPOS>ATOM
      1 C           1.2573    1.8530   20.8284 C.2     1  UNL1        0.2248
      2 O           0.0656    2.3474   20.0631 O.2     1  UNL1       -0.2749
      3 N           1.2587    1.9015   22.3276 N.am    1  UNL1       -0.2774
      4 C           2.3722    1.4455   23.2233 C.3     1  UNL1        0.0956
      5 C           1.9486    1.6766   24.6436 C.3     1  UNL1        0.0497
      6 C           0.5734    2.2754   24.6256 C.3     1  UNL1        0.1533
      7 C           0.1471    2.4144   23.1942 C.3     1  UNL1        0.1198
      8 C           2.4475    1.3102   20.0943 C.3     1  UNL1        0.0691
      9 C           1.7112    0.0342   20.3762 C.3     1  UNL1        0.0090
     10 C           2.2773   -1.2760   19.9147 C.3     1  UNL1        0.0060
     11 C           3.5796   -1.3102   19.1713 C.3     1  UNL1        0.0366
     12 C           4.3159   -0.0341   18.8894 C.3     1  UNL1        0.0060
     13 C           3.7499    1.2760   19.3509 C.3     1  UNL1        0.0090
     14 C           4.1457   -2.6203   18.7098 C.2     1  UNL1        0.0500
     15 O           5.3455   -2.6436   17.8099 O.co2   1  UNL1       -0.5492
     16 O           3.5120   -3.9073   19.1482 O.co2   1  UNL1       -0.5492
     17 C           4.1198    3.2537   20.5144 C.3     1  UNL1        0.0005
     18 C           2.7705    2.7748   20.0673 C.3     1  UNL1        0.0086
     19 C           0.7186    2.2609   26.1185 C.ar    1  UNL1       -0.0005
     20 C           1.0213    3.5321   26.8549 C.ar    1  UNL1       -0.0029
     21 C           1.1665    3.5177   28.3478 C.ar    1  UNL1       -0.0015
     22 C           1.0089    2.2320   29.1042 C.ar    1  UNL1        0.0235
     23 C           0.7062    0.9608   28.3678 C.ar    1  UNL1       -0.0015
     24 C           0.5610    0.9753   26.8749 C.ar    1  UNL1       -0.0029
     25 C           1.1541    2.2176   30.5972 C.3     1  UNL1        0.3242
     26 F          -0.2363    1.6700   30.7270 F       1  UNL1       -0.2176
     27 C           1.2992    2.2031   32.0900 C.3     1  UNL1        0.4363
     28 F           1.4443    2.1887   33.5830 F       1  UNL1       -0.1666
     29 F           0.2739    3.2924   32.2002 F       1  UNL1       -0.1666
     30 F           1.9106    1.5637   32.1329 F       1  UNL1       -0.1666
     31 C           2.5445    2.7651   30.4673 C.3     1  UNL1        0.4363
     32 F           3.9350    3.3127   30.3374 F       1  UNL1       -0.1666
     33 F           2.3741    3.5709   30.7930 F       1  UNL1       -0.1666
     34 F           3.3288    1.6287   29.8812 F       1  UNL1       -0.1666
     35 S          -0.7714    2.8712   24.9197 S.O2    1  UNL1        0.0106
     36 O          -1.3964    1.9228   25.6493 O.2     1  UNL1       -0.1684
     37 O          -0.3911    4.1058   24.1575 O.2     1  UNL1       -0.1684
     38 C          -2.1162    3.4670   25.2138 C.ar    1  UNL1        0.1061
     39 C          -2.6193    3.5228   26.6258 C.ar    1  UNL1        0.0207
     40 C          -3.9641    4.1186   26.9198 C.ar    1  UNL1        0.0310
     41 C          -4.8058    4.6587   25.8019 C.ar    1  UNL1        0.1402
     42 F          -6.1506    5.2545   26.0960 F       1  UNL1       -0.2042
     43 C          -4.3027    4.6029   24.3899 C.ar    1  UNL1        0.0310
     44 C          -2.9580    4.0071   24.0958 C.ar    1  UNL1        0.0207
@<TRIPOS>UNITY_ATOM_ATTR
15 1
charge -1
@<TRIPOS>BOND
     1    17    18    1
     2     8    18    1
     3     8     1    1
     4     1     2    2
     5     1     3   am
     6     3     4    1
     7     4     5    1
     8     5     6    1
     9     6    19    1
    10    19    20   ar
    11    20    21   ar
    12    21    22   ar
    13    22    25    1
    14    25    26    1
    15    25    27    1
    16    27    28    1
    17    27    29    1
    18    27    30    1
    19    25    31    1
    20    31    32    1
    21    31    33    1
    22    31    34    1
    23    22    23   ar
    24    23    24   ar
    25     6    35    1
    26    35    36    2
    27    35    37    2
    28    35    38    1
    29    38    39   ar
    30    39    40   ar
    31    40    41   ar
    32    41    42    1
    33    41    43   ar
    34    43    44   ar
    35     6     7    1
    36     8     9    1
    37     9    10    1
    38    10    11    1
    39    11    14    1
    40    14    15   ar
    41    14    16   ar
    42    11    12    1
    43    12    13    1
    44    13     8    1
    45     7     3    1
    46    24    19   ar
    47    44    38   ar
@<TRIPOS>MOLECULE
*****
 44 47 0 0 0
SMALL
GASTEIGER

@<TRIPOS>ATOM
      1 C           7.5499   -2.9904   30.2565 C.2     1  UNL1        0.2248
      2 O           7.9846   -2.9390   31.6912 O.2     1  UNL1       -0.2749
      3 N           6.3691   -2.1852   29.8012 N.am    1  UNL1       -0.2774
      4 C           5.8206   -2.1361   28.4060 C.3     1  UNL1        0.0956
      5 C           4.6419   -1.2084   28.4038 C.3     1  UNL1        0.0497
      6 C           4.4619   -0.6842   29.7976 C.3     1  UNL1        0.1533
      7 C           5.5294   -1.2879   30.6613 C.3     1  UNL1        0.1198
      8 C           8.2962   -3.8470   29.2770 C.3     1  UNL1        0.0691
      9 C           7.1807   -4.7807   29.6425 C.3     1  UNL1        0.0090
     10 C           7.1089   -6.1435   29.0197 C.3     1  UNL1        0.0060
     11 C           8.1525   -6.5725   28.0315 C.3     1  UNL1        0.0366
     12 C           9.2681   -5.6386   27.6660 C.3     1  UNL1        0.0060
     13 C           9.3399   -4.2760   28.2887 C.3     1  UNL1        0.0090
     14 C           8.0807   -7.9351   27.4087 C.2     1  UNL1        0.0500
     15 O           8.9886   -9.0282   27.8894 O.co2   1  UNL1       -0.5492
     16 O           7.1011   -8.2049   26.3054 O.co2   1  UNL1       -0.5492
     17 C           9.5163   -1.9819   27.9417 C.3     1  UNL1        0.0005
     18 C           9.1526   -2.6157   29.2516 C.3     1  UNL1        0.0086
     19 C           3.3063    0.0618   29.1992 C.ar    1  UNL1       -0.0005
     20 C           3.5291    1.3974   28.5538 C.ar    1  UNL1       -0.0029
     21 C           2.3735    2.1433   27.9554 C.ar    1  UNL1       -0.0015
     22 C           0.9950    1.5536   28.0024 C.ar    1  UNL1        0.0235
     23 C           0.7722    0.2180   28.6477 C.ar    1  UNL1       -0.0015
     24 C           1.9279   -0.5279   29.2461 C.ar    1  UNL1       -0.0029
     25 C          -0.1606    2.2996   27.4039 C.3     1  UNL1        0.3242
     26 F          -0.3114    3.0843   28.6733 F       1  UNL1       -0.2176
     27 C          -1.3162    3.0455   26.8056 C.3     1  UNL1        0.4363
     28 F          -2.4719    3.7915   26.2072 F       1  UNL1       -0.1666
     29 F          -0.5029    4.3059   26.8060 F       1  UNL1       -0.1666
     30 F          -1.8761    2.3605   26.7622 F       1  UNL1       -0.1666
     31 C          -0.0098    1.5149   26.1345 C.3     1  UNL1        0.4363
     32 F           0.1409    0.7302   24.8650 F       1  UNL1       -0.1666
     33 F          -0.4047    0.7744   26.4177 F       1  UNL1       -0.1666
     34 F           0.6984    2.4575   25.2071 F       1  UNL1       -0.1666
     35 S           4.0404   -0.0040   31.0663 S.O2    1  UNL1        0.0106
     36 O           3.0498   -0.7872   31.5434 O.2     1  UNL1       -0.1684
     37 O           5.0697    1.0627   30.8364 O.2     1  UNL1       -0.1684
     38 C           3.6189    0.6763   32.3351 C.ar    1  UNL1        0.1061
     39 C           2.3906    1.5371   32.3522 C.ar    1  UNL1        0.0207
     40 C           1.9692    2.2173   33.6210 C.ar    1  UNL1        0.0310
     41 C           2.7760    2.0367   34.8725 C.ar    1  UNL1        0.1402
     42 F           2.3545    2.7169   36.1412 F       1  UNL1       -0.2042
     43 C           4.0043    1.1759   34.8553 C.ar    1  UNL1        0.0310
     44 C           4.4258    0.4957   33.5867 C.ar    1  UNL1        0.0207
@<TRIPOS>UNITY_ATOM_ATTR
15 1
charge -1
@<TRIPOS>BOND
     1    17    18    1
     2     8    18    1
     3     8     1    1
     4     1     2    2
     5     1     3   am
     6     3     4    1
     7     4     5    1
     8     5     6    1
     9     6    19    1
    10    19    20   ar
    11    20    21   ar
    12    21    22   ar
    13    22    25    1
    14    25    26    1
    15    25    27    1
    16    27    28    1
    17    27    29    1
    18    27    30    1
    19    25    31    1
    20    31    32    1
    21    31    33    1
    22    31    34    1
    23    22    23   ar
    24    23    24   ar
    25     6    35    1
    26    35    36    2
    27    35    37    2
    28    35    38    1
    29    38    39   ar
    30    39    40   ar
    31    40    41   ar
    32    41    42    1
    33    41    43   ar
    34    43    44   ar
    35     6     7    1
    36     8     9    1
    37     9    10    1
    38    10    11    1
    39    11    14    1
    40    14    15   ar
    41    14    16   ar
    42    11    12    1
    43    12    13    1
    44    13     8    1
    45     7     3    1
    46    24    19   ar
    47    44    38   ar
