@<TRIPOS>MOLECULE
*****
 19 20 0 0 0
SMALL
GASTEIGER

@<TRIPOS>ATOM
      1 C         -10.3461  -17.3044   23.2483 C.3     1  UNL1        0.0359
      2 C          -9.9723  -16.2834   22.2150 C.3     1  UNL1        0.0069
      3 C         -10.8325  -16.0955   21.0007 C.3     1  UNL1        0.0175
      4 C         -12.0668  -16.9286   20.8197 C.3     1  UNL1        0.0686
      5 N         -12.4407  -17.9495   21.8531 N.3     1  UNL1       -0.2972
      6 C         -11.5804  -18.1374   23.0674 C.3     1  UNL1        0.0726
      7 H         -12.4783  -18.8506   21.3766 H       1  UNL1        0.1233
      8 C          -9.0903  -16.7602   23.8622 C.ar    1  UNL1       -0.0205
      9 C          -7.8217  -16.7187   23.0629 C.ar    1  UNL1       -0.0033
     10 C          -6.5659  -16.1746   23.6769 C.ar    1  UNL1        0.0119
     11 C          -6.5787  -15.6721   25.0901 C.ar    1  UNL1        0.0682
     12 CL         -5.3229  -15.1279   25.7040 Cl      1  UNL1       -0.0814
     13 C          -7.8473  -15.7136   25.8894 C.ar    1  UNL1        0.0679
     14 CL         -7.8601  -15.2110   27.3027 Cl      1  UNL1       -0.0814
     15 C          -9.1031  -16.2577   25.2755 C.ar    1  UNL1        0.0080
     16 C         -10.2839  -18.1364   24.4949 C.3     1  UNL1        0.0371
     17 O         -10.1192  -20.5313   25.4886 O.3     1  UNL1       -0.3820
     18 C         -10.6447  -19.5914   24.4443 C.3     1  UNL1        0.1375
     19 H         -10.4449  -21.4274   25.3105 H       1  UNL1        0.2104
@<TRIPOS>BOND
     1    17    18    1
     2    18    16    1
     3     1    16    1
     4     1     8    1
     5     8     9   ar
     6     9    10   ar
     7    10    11   ar
     8    11    12    1
     9    11    13   ar
    10    13    14    1
    11    13    15   ar
    12     1     2    1
    13     2     3    1
    14     3     4    1
    15     4     5    1
    16     5     6    1
    17     6     1    1
    18    15     8   ar
    19    17    19    1
    20     5     7    1
@<TRIPOS>MOLECULE
*****
 19 20 0 0 0
SMALL
GASTEIGER

@<TRIPOS>ATOM
      1 C          -7.8235  -17.8247   22.9374 C.3     1  UNL1        0.0359
      2 C          -8.1242  -19.0943   22.1975 C.3     1  UNL1        0.0069
      3 C          -7.0119  -19.8705   21.5569 C.3     1  UNL1        0.0175
      4 C          -5.5989  -19.3769   21.6563 C.3     1  UNL1        0.0686
      5 N          -5.2982  -18.1072   22.3962 N.3     1  UNL1       -0.2972
      6 C          -6.4105  -17.3311   23.0368 C.3     1  UNL1        0.0726
      7 H          -4.8457  -17.4794   21.7318 H       1  UNL1        0.1233
      8 C          -9.3116  -17.8845   23.1167 C.ar    1  UNL1       -0.0205
      9 C          -9.8950  -18.5481   24.3288 C.ar    1  UNL1       -0.0033
     10 C         -11.3830  -18.6079   24.5080 C.ar    1  UNL1        0.0119
     11 C         -12.2877  -18.0040   23.4751 C.ar    1  UNL1        0.0682
     12 CL        -13.7758  -18.0638   23.6544 Cl      1  UNL1       -0.0814
     13 C         -11.7044  -17.3403   22.2630 C.ar    1  UNL1        0.0679
     14 CL        -12.6091  -16.7364   21.2301 Cl      1  UNL1       -0.0814
     15 C         -10.2163  -17.2806   22.0838 C.ar    1  UNL1        0.0080
     16 C          -8.0397  -16.5757   23.7396 C.3     1  UNL1        0.0371
     17 O          -7.6049  -14.0402   24.1035 O.3     1  UNL1       -0.3820
     18 C          -7.2860  -15.3248   23.3975 C.3     1  UNL1        0.1375
     19 H          -7.0308  -13.3348   23.7663 H       1  UNL1        0.2104
@<TRIPOS>BOND
     1    17    18    1
     2    18    16    1
     3     1    16    1
     4     1     8    1
     5     8     9   ar
     6     9    10   ar
     7    10    11   ar
     8    11    12    1
     9    11    13   ar
    10    13    14    1
    11    13    15   ar
    12     1     2    1
    13     2     3    1
    14     3     4    1
    15     4     5    1
    16     5     6    1
    17     6     1    1
    18    15     8   ar
    19    17    19    1
    20     5     7    1
@<TRIPOS>MOLECULE
*****
 19 20 0 0 0
SMALL
GASTEIGER

@<TRIPOS>ATOM
      1 C         -10.0374  -18.2796   22.3628 C.3     1  UNL1        0.0359
      2 C          -9.7009  -16.9834   21.6871 C.3     1  UNL1        0.0069
      3 C         -10.7985  -16.0809   21.2067 C.3     1  UNL1        0.0175
      4 C         -12.2327  -16.4747   21.4021 C.3     1  UNL1        0.0686
      5 N         -12.5692  -17.7709   22.0778 N.3     1  UNL1       -0.2972
      6 C         -11.4716  -18.6734   22.5582 C.3     1  UNL1        0.0726
      7 H         -13.1268  -18.3116   21.4166 H       1  UNL1        0.1233
      8 C          -8.5394  -18.3438   22.4074 C.ar    1  UNL1       -0.0205
      9 C          -7.8197  -19.5055   21.7891 C.ar    1  UNL1       -0.0033
     10 C          -6.3217  -19.5696   21.8338 C.ar    1  UNL1        0.0119
     11 C          -5.5435  -18.4720   22.4968 C.ar    1  UNL1        0.0682
     12 CL         -4.0455  -18.5362   22.5415 Cl      1  UNL1       -0.0814
     13 C          -6.2632  -17.3103   23.1152 C.ar    1  UNL1        0.0679
     14 CL         -5.4850  -16.2127   23.7783 Cl      1  UNL1       -0.0814
     15 C          -7.7611  -17.2462   23.0705 C.ar    1  UNL1        0.0080
     16 C          -9.8536  -19.5981   23.0540 C.3     1  UNL1        0.0371
     17 O          -9.9367  -20.8615   25.3227 O.3     1  UNL1       -0.3820
     18 C         -10.5132  -19.8494   24.3775 C.3     1  UNL1        0.1375
     19 H         -10.4797  -20.9004   26.1255 H       1  UNL1        0.2104
@<TRIPOS>BOND
     1    17    18    1
     2    18    16    1
     3     1    16    1
     4     1     8    1
     5     8     9   ar
     6     9    10   ar
     7    10    11   ar
     8    11    12    1
     9    11    13   ar
    10    13    14    1
    11    13    15   ar
    12     1     2    1
    13     2     3    1
    14     3     4    1
    15     4     5    1
    16     5     6    1
    17     6     1    1
    18    15     8   ar
    19    17    19    1
    20     5     7    1
@<TRIPOS>MOLECULE
*****
 19 20 0 0 0
SMALL
GASTEIGER

@<TRIPOS>ATOM
      1 C          -8.4141  -18.2382   21.4343 C.3     1  UNL1        0.0359
      2 C          -8.4571  -19.3231   20.3994 C.3     1  UNL1        0.0069
      3 C          -9.7610  -19.6979   19.7595 C.3     1  UNL1        0.0175
      4 C         -11.0218  -18.9877   20.1544 C.3     1  UNL1        0.0686
      5 N         -10.9788  -17.9027   21.1893 N.3     1  UNL1       -0.2972
      6 C          -9.6749  -17.5279   21.8292 C.3     1  UNL1        0.0726
      7 H         -11.6047  -18.1888   21.9421 H       1  UNL1        0.1233
      8 C          -6.9633  -18.6173   21.3939 C.ar    1  UNL1       -0.0205
      9 C          -6.4213  -19.3861   20.2255 C.ar    1  UNL1       -0.0033
     10 C          -4.9706  -19.7652   20.1852 C.ar    1  UNL1        0.0119
     11 C          -4.0619  -19.3754   21.3131 C.ar    1  UNL1        0.0682
     12 CL         -2.6111  -19.7545   21.2727 Cl      1  UNL1       -0.0814
     13 C          -4.6039  -18.6066   22.4815 C.ar    1  UNL1        0.0679
     14 CL         -3.6952  -18.2168   23.6094 Cl      1  UNL1       -0.0814
     15 C          -6.0546  -18.2275   22.5218 C.ar    1  UNL1        0.0080
     16 C          -7.8672  -17.2848   22.4551 C.3     1  UNL1        0.0371
     17 O          -7.6495  -14.7215   22.0917 O.3     1  UNL1       -0.3820
     18 C          -8.4386  -15.9030   22.5729 C.3     1  UNL1        0.1375
     19 H          -8.1595  -13.9099   22.2402 H       1  UNL1        0.2104
@<TRIPOS>BOND
     1    17    18    1
     2    18    16    1
     3     1    16    1
     4     1     8    1
     5     8     9   ar
     6     9    10   ar
     7    10    11   ar
     8    11    12    1
     9    11    13   ar
    10    13    14    1
    11    13    15   ar
    12     1     2    1
    13     2     3    1
    14     3     4    1
    15     4     5    1
    16     5     6    1
    17     6     1    1
    18    15     8   ar
    19    17    19    1
    20     5     7    1
@<TRIPOS>MOLECULE
*****
 19 20 0 0 0
SMALL
GASTEIGER

@<TRIPOS>ATOM
      1 C         -10.7467  -17.9140   22.2462 C.3     1  UNL1        0.0359
      2 C         -10.5155  -18.5159   23.6005 C.3     1  UNL1        0.0069
      3 C         -11.6686  -18.7174   24.5384 C.3     1  UNL1        0.0175
      4 C         -13.0529  -18.3170   24.1220 C.3     1  UNL1        0.0686
      5 N         -13.2841  -17.7151   22.7677 N.3     1  UNL1       -0.2972
      6 C         -12.1310  -17.5136   21.8298 C.3     1  UNL1        0.0726
      7 H         -13.7029  -16.7977   22.9208 H       1  UNL1        0.1233
      8 C          -9.2638  -18.1316   22.1848 C.ar    1  UNL1       -0.0205
      9 C          -8.3464  -17.2850   23.0165 C.ar    1  UNL1       -0.0033
     10 C          -6.8636  -17.5026   22.9551 C.ar    1  UNL1        0.0119
     11 C          -6.2981  -18.5669   22.0620 C.ar    1  UNL1        0.0682
     12 CL         -4.8152  -18.7845   22.0007 Cl      1  UNL1       -0.0814
     13 C          -7.2154  -19.4135   21.2303 C.ar    1  UNL1        0.0679
     14 CL         -6.6499  -20.4777   20.3373 Cl      1  UNL1       -0.0814
     15 C          -8.6982  -19.1958   21.2917 C.ar    1  UNL1        0.0080
     16 C         -10.4629  -17.3876   20.8705 C.3     1  UNL1        0.0371
     17 O         -10.6906  -15.3649   19.2560 O.3     1  UNL1       -0.3820
     18 C         -11.2683  -16.2469   20.3230 C.3     1  UNL1        0.1375
     19 H         -11.3365  -14.6821   19.0162 H       1  UNL1        0.2104
@<TRIPOS>BOND
     1    17    18    1
     2    18    16    1
     3     1    16    1
     4     1     8    1
     5     8     9   ar
     6     9    10   ar
     7    10    11   ar
     8    11    12    1
     9    11    13   ar
    10    13    14    1
    11    13    15   ar
    12     1     2    1
    13     2     3    1
    14     3     4    1
    15     4     5    1
    16     5     6    1
    17     6     1    1
    18    15     8   ar
    19    17    19    1
    20     5     7    1
@<TRIPOS>MOLECULE
*****
 19 20 0 0 0
SMALL
GASTEIGER

@<TRIPOS>ATOM
      1 C          -8.8830  -17.4095   23.2323 C.3     1  UNL1        0.0359
      2 C          -8.0395  -16.5191   22.3688 C.3     1  UNL1        0.0069
      3 C          -7.4896  -15.2385   22.9237 C.3     1  UNL1        0.0175
      4 C          -7.7834  -14.8484   24.3420 C.3     1  UNL1        0.0686
      5 N          -8.6269  -15.7388   25.2054 N.3     1  UNL1       -0.2972
      6 C          -9.1767  -17.0194   24.6506 C.3     1  UNL1        0.0726
      7 H          -9.4260  -15.1827   25.5098 H       1  UNL1        0.1233
      8 C          -8.8821  -18.2049   21.9604 C.ar    1  UNL1       -0.0205
      9 C         -10.0856  -18.1892   21.0652 C.ar    1  UNL1       -0.0033
     10 C         -10.0847  -18.9845   19.7935 C.ar    1  UNL1        0.0119
     11 C          -8.8803  -19.7955   19.4169 C.ar    1  UNL1        0.0682
     12 CL         -8.8794  -20.5908   18.1450 Cl      1  UNL1       -0.0814
     13 C          -7.6768  -19.8112   20.3121 C.ar    1  UNL1        0.0679
     14 CL         -6.4725  -20.6222   19.9355 Cl      1  UNL1       -0.0814
     15 C          -7.6778  -19.0159   21.5838 C.ar    1  UNL1        0.0080
     16 C          -9.7262  -18.5762   23.6540 C.3     1  UNL1        0.0371
     17 O         -11.6247  -19.4390   25.2037 O.3     1  UNL1       -0.3820
     18 C         -11.0209  -18.3441   24.3750 C.3     1  UNL1        0.1375
     19 H         -12.4538  -19.1262   25.5982 H       1  UNL1        0.2104
@<TRIPOS>BOND
     1    17    18    1
     2    18    16    1
     3     1    16    1
     4     1     8    1
     5     8     9   ar
     6     9    10   ar
     7    10    11   ar
     8    11    12    1
     9    11    13   ar
    10    13    14    1
    11    13    15   ar
    12     1     2    1
    13     2     3    1
    14     3     4    1
    15     4     5    1
    16     5     6    1
    17     6     1    1
    18    15     8   ar
    19    17    19    1
    20     5     7    1
@<TRIPOS>MOLECULE
*****
 19 20 0 0 0
SMALL
GASTEIGER

@<TRIPOS>ATOM
      1 C         -12.0216   -5.0708   18.9957 C.3     1  UNL1        0.0359
      2 C         -12.9904   -3.9261   19.0255 C.3     1  UNL1        0.0069
      3 C         -12.4853   -2.5145   18.9780 C.3     1  UNL1        0.0175
      4 C         -11.0112   -2.2477   18.9006 C.3     1  UNL1        0.0686
      5 N         -10.0423   -3.3923   18.8707 N.3     1  UNL1       -0.2972
      6 C         -10.5475   -4.8039   18.9183 C.3     1  UNL1        0.0726
      7 H          -9.4224   -3.2743   19.6720 H       1  UNL1        0.1233
      8 C         -13.3152   -5.8264   19.0719 C.ar    1  UNL1       -0.0205
      9 C         -14.5179   -5.1922   19.7052 C.ar    1  UNL1       -0.0033
     10 C         -15.8115   -5.9478   19.7815 C.ar    1  UNL1        0.0119
     11 C         -15.9022   -7.3376   19.2244 C.ar    1  UNL1        0.0682
     12 CL        -17.1958   -8.0932   19.3006 Cl      1  UNL1       -0.0814
     13 C         -14.6994   -7.9717   18.5911 C.ar    1  UNL1        0.0679
     14 CL        -14.7901   -9.3615   18.0340 Cl      1  UNL1       -0.0814
     15 C         -13.4059   -7.2161   18.5149 C.ar    1  UNL1        0.0080
     16 C         -11.5019   -6.4779   18.9923 C.3     1  UNL1        0.0371
     17 O          -9.4934   -8.1059   19.2486 O.3     1  UNL1       -0.3820
     18 C         -10.0238   -6.7315   18.9659 C.3     1  UNL1        0.1375
     19 H          -8.5251   -8.0969   19.1915 H       1  UNL1        0.2104
@<TRIPOS>BOND
     1    17    18    1
     2    18    16    1
     3     1    16    1
     4     1     8    1
     5     8     9   ar
     6     9    10   ar
     7    10    11   ar
     8    11    12    1
     9    11    13   ar
    10    13    14    1
    11    13    15   ar
    12     1     2    1
    13     2     3    1
    14     3     4    1
    15     4     5    1
    16     5     6    1
    17     6     1    1
    18    15     8   ar
    19    17    19    1
    20     5     7    1
@<TRIPOS>MOLECULE
*****
 19 20 0 0 0
SMALL
GASTEIGER

@<TRIPOS>ATOM
      1 C         -12.1399   -6.1596   18.9244 C.3     1  UNL1        0.0359
      2 C         -11.0442   -5.1629   19.1605 C.3     1  UNL1        0.0069
      3 C          -9.6093   -5.5842   19.0446 C.3     1  UNL1        0.0175
      4 C          -9.2701   -7.0024   18.6927 C.3     1  UNL1        0.0686
      5 N         -10.3658   -7.9991   18.4566 N.3     1  UNL1       -0.2972
      6 C         -11.8008   -7.5778   18.5725 C.3     1  UNL1        0.0726
      7 H         -10.2258   -8.7549   19.1271 H       1  UNL1        0.1233
      8 C         -12.9584   -4.9406   19.2314 C.ar    1  UNL1       -0.0205
      9 C         -14.0078   -4.9919   20.3020 C.ar    1  UNL1       -0.0033
     10 C         -14.8262   -3.7729   20.6090 C.ar    1  UNL1        0.0119
     11 C         -14.5953   -2.5027   19.8453 C.ar    1  UNL1        0.0682
     12 CL        -15.4137   -1.2837   20.1523 Cl      1  UNL1       -0.0814
     13 C         -13.5459   -2.4514   18.7747 C.ar    1  UNL1        0.0679
     14 CL        -13.3150   -1.1812   18.0111 Cl      1  UNL1       -0.0814
     15 C         -12.7275   -3.6704   18.4678 C.ar    1  UNL1        0.0080
     16 C         -13.5200   -6.7331   18.7950 C.3     1  UNL1        0.0371
     17 O         -14.4220   -9.1510   19.0947 O.3     1  UNL1       -0.3820
     18 C         -13.7075   -8.1244   18.2668 C.3     1  UNL1        0.1375
     19 H         -14.4566   -9.9904   18.6099 H       1  UNL1        0.2104
@<TRIPOS>BOND
     1    17    18    1
     2    18    16    1
     3     1    16    1
     4     1     8    1
     5     8     9   ar
     6     9    10   ar
     7    10    11   ar
     8    11    12    1
     9    11    13   ar
    10    13    14    1
    11    13    15   ar
    12     1     2    1
    13     2     3    1
    14     3     4    1
    15     4     5    1
    16     5     6    1
    17     6     1    1
    18    15     8   ar
    19    17    19    1
    20     5     7    1
@<TRIPOS>MOLECULE
*****
 19 20 0 0 0
SMALL
GASTEIGER

@<TRIPOS>ATOM
      1 C          -6.3789  -16.4551   23.9918 C.3     1  UNL1        0.0359
      2 C          -5.1793  -16.4294   24.8918 C.3     1  UNL1        0.0069
      3 C          -5.2242  -15.6617   26.1797 C.3     1  UNL1        0.0175
      4 C          -6.4688  -14.9196   26.5674 C.3     1  UNL1        0.0686
      5 N          -7.6684  -14.9454   25.6674 N.3     1  UNL1       -0.2972
      6 C          -7.6235  -15.7131   24.3796 C.3     1  UNL1        0.0726
      7 H          -7.8759  -13.9764   25.4255 H       1  UNL1        0.1233
      8 C          -5.4374  -17.3091   23.1953 C.ar    1  UNL1       -0.0205
      9 C          -3.9658  -17.0193   23.2116 C.ar    1  UNL1       -0.0033
     10 C          -3.0243  -17.8732   22.4151 C.ar    1  UNL1        0.0119
     11 C          -3.5545  -19.0171   21.6024 C.ar    1  UNL1        0.0682
     12 CL         -2.6130  -19.8710   20.8059 Cl      1  UNL1       -0.0814
     13 C          -5.0261  -19.3069   21.5861 C.ar    1  UNL1        0.0679
     14 CL         -5.5563  -20.4508   20.7733 Cl      1  UNL1       -0.0814
     15 C          -5.9675  -18.4530   22.3825 C.ar    1  UNL1        0.0080
     16 C          -7.2516  -16.7774   22.8151 C.3     1  UNL1        0.0371
     17 O          -8.1130  -14.8742   21.2704 O.3     1  UNL1       -0.3820
     18 C          -8.3388  -15.8287   22.4054 C.3     1  UNL1        0.1375
     19 H          -8.9092  -14.3365   21.1369 H       1  UNL1        0.2104
@<TRIPOS>BOND
     1    17    18    1
     2    18    16    1
     3     1    16    1
     4     1     8    1
     5     8     9   ar
     6     9    10   ar
     7    10    11   ar
     8    11    12    1
     9    11    13   ar
    10    13    14    1
    11    13    15   ar
    12     1     2    1
    13     2     3    1
    14     3     4    1
    15     4     5    1
    16     5     6    1
    17     6     1    1
    18    15     8   ar
    19    17    19    1
    20     5     7    1
