@<TRIPOS>MOLECULE
*****
 40 43 0 0 0
SMALL
GASTEIGER

@<TRIPOS>ATOM
      1 C           0.7323    1.8982   26.8184 C.ar    1  UNL1        0.0053
      2 C          -0.4636    2.3490   26.0333 C.ar    1  UNL1        0.0033
      3 C          -0.5266    2.1026   24.5551 C.ar    1  UNL1        0.0382
      4 C           0.6063    1.4054   23.8619 C.ar    1  UNL1        0.1529
      5 C           1.8022    0.9546   24.6471 C.ar    1  UNL1        0.0881
      6 C           1.8652    1.2009   26.1253 C.ar    1  UNL1        0.0181
      7 N           2.9351    0.2573   23.9539 N.am    1  UNL1       -0.2529
      8 C           2.8721    0.0110   22.4757 C.2     1  UNL1        0.2697
      9 O           4.0050   -0.6862   21.7826 O.2     1  UNL1       -0.2704
     10 C           1.6762    0.4618   21.6905 C.3     1  UNL1        0.2199
     11 C           0.7636    0.6992   20.5239 C.3     1  UNL1        0.0579
     12 O           0.5433    1.1591   22.3836 O.3     1  UNL1       -0.4686
     13 C           0.2782    1.1102   29.2522 C.ar    1  UNL1        0.0645
     14 N           0.3413    1.3565   30.7305 N.ar    1  UNL1       -0.2183
     15 C           0.9215    2.6372   31.2534 C.ar    1  UNL1        0.2145
     16 N           0.9845    2.8835   32.7317 N.pl3   1  UNL1       -0.3274
     17 N           1.4387    3.6715   30.2980 N.ar    1  UNL1       -0.1995
     18 C           1.3756    3.4251   28.8196 C.ar    1  UNL1        0.1293
     19 N           1.8928    4.4594   27.8642 N.pl3   1  UNL1       -0.3425
     20 C           0.7954    2.1445   28.2968 C.ar    1  UNL1        0.0449
     21 H           0.6451    2.2046   33.3587 H       1  UNL1        0.1452
     22 H           1.3654    3.7240   33.0748 H       1  UNL1        0.1452
     23 H           2.2736    5.2999   28.2074 H       1  UNL1        0.1437
     24 H           1.8514    4.2977   26.8940 H       1  UNL1        0.1437
     25 C          -1.7172   -0.5424   29.0592 C.3     1  UNL1        0.0067
     26 C          -0.3020   -0.1704   28.7293 C.3     1  UNL1        0.0460
     27 C           2.4921   -0.1529   20.5922 C.ar    1  UNL1        0.0264
     28 C           3.3702    0.7112   19.7365 C.ar    1  UNL1        0.0293
     29 C           4.1862    0.0964   18.6382 C.ar    1  UNL1        0.1422
     30 F           5.0643    0.9606   17.7826 F       1  UNL1       -0.2041
     31 C           4.1241   -1.3825   18.3957 C.ar    1  UNL1        0.0592
     32 C           3.2461   -2.2466   19.2514 C.ar    1  UNL1        0.1422
     33 F           3.1840   -3.7256   19.0088 F       1  UNL1       -0.2041
     34 C           2.4300   -1.6319   20.3496 C.ar    1  UNL1        0.0293
     35 C           4.1310   -0.1935   24.7391 C.3     1  UNL1        0.0985
     36 C           4.2919   -1.6417   25.0953 C.3     1  UNL1        0.0245
     37 C           5.5369   -2.3780   24.6978 C.3     1  UNL1        0.0335
     38 C           5.4882   -3.3922   23.5938 C.3     1  UNL1        0.1372
     39 O           4.2757   -3.4875   22.7158 O.3     1  UNL1       -0.3820
     40 H           3.5175   -3.7847   23.2428 H       1  UNL1        0.2104
@<TRIPOS>BOND
     1    25    26    1
     2    26    13    1
     3    13    14   ar
     4    14    15   ar
     5    15    16    1
     6    15    17   ar
     7    17    18   ar
     8    18    19    1
     9    18    20   ar
    10    20     1    1
    11     1     2   ar
    12     2     3   ar
    13     3     4   ar
    14     4     5   ar
    15     5     6   ar
    16     5     7    1
    17     7    35    1
    18    35    36    1
    19    36    37    1
    20    37    38    1
    21    38    39    1
    22     7     8   am
    23     8     9    2
    24     8    10    1
    25    10    11    1
    26    10    27    1
    27    27    28   ar
    28    28    29   ar
    29    29    30    1
    30    29    31   ar
    31    31    32   ar
    32    32    33    1
    33    32    34   ar
    34    10    12    1
    35    20    13   ar
    36     6     1   ar
    37    34    27   ar
    38    12     4    1
    39    16    21    1
    40    16    22    1
    41    19    23    1
    42    19    24    1
    43    39    40    1
@<TRIPOS>MOLECULE
*****
 40 43 0 0 0
SMALL
GASTEIGER

@<TRIPOS>ATOM
      1 C           0.7406    1.8837   26.8032 C.ar    1  UNL1        0.0053
      2 C          -0.4425    2.3439   26.0042 C.ar    1  UNL1        0.0033
      3 C          -0.4841    2.1100   24.5232 C.ar    1  UNL1        0.0382
      4 C           0.6574    1.4158   23.8411 C.ar    1  UNL1        0.1529
      5 C           1.8405    0.9556   24.6402 C.ar    1  UNL1        0.0881
      6 C           1.8821    1.1895   26.1212 C.ar    1  UNL1        0.0181
      7 N           2.9819    0.2614   23.9581 N.am    1  UNL1       -0.2529
      8 C           2.9404    0.0275   22.4771 C.2     1  UNL1        0.2697
      9 O           4.0818   -0.6667   21.7951 O.2     1  UNL1       -0.2704
     10 C           1.7573    0.4877   21.6780 C.3     1  UNL1        0.2199
     11 C           0.8627    0.7370   20.5000 C.3     1  UNL1        0.0579
     12 O           0.6158    1.1819   22.3600 O.3     1  UNL1       -0.4686
     13 C           0.2346    1.0833   29.2226 C.ar    1  UNL1        0.0645
     14 N           0.2762    1.3172   30.7037 N.ar    1  UNL1       -0.2183
     15 C           0.8655    2.5853   31.2465 C.ar    1  UNL1        0.2145
     16 N           0.9071    2.8192   32.7275 N.pl3   1  UNL1       -0.3274
     17 N           1.4131    3.6196   30.3082 N.ar    1  UNL1       -0.1995
     18 C           1.3715    3.3857   28.8271 C.ar    1  UNL1        0.1293
     19 N           1.9191    4.4199   27.8888 N.pl3   1  UNL1       -0.3425
     20 C           0.7822    2.1176   28.2843 C.ar    1  UNL1        0.0449
     21 H           0.5476    2.1403   33.3434 H       1  UNL1        0.1452
     22 H           1.2938    3.6515   33.0838 H       1  UNL1        0.1452
     23 H           2.3059    5.2522   28.2450 H       1  UNL1        0.1437
     24 H           1.8918    4.2664   26.9167 H       1  UNL1        0.1437
     25 C          -1.7631   -0.5663   29.0274 C.3     1  UNL1        0.0067
     26 C          -0.3547   -0.1849   28.6798 C.3     1  UNL1        0.0460
     27 C           2.5880   -0.1199   20.5869 C.ar    1  UNL1        0.0264
     28 C           2.5308   -1.5975   20.3351 C.ar    1  UNL1        0.0293
     29 C           3.3616   -2.2051   19.2439 C.ar    1  UNL1        0.1422
     30 F           3.3043   -3.6828   18.9922 F       1  UNL1       -0.2041
     31 C           4.2497   -1.3352   18.4047 C.ar    1  UNL1        0.0592
     32 C           4.3069    0.1424   18.6565 C.ar    1  UNL1        0.1422
     33 F           5.1950    1.0124   17.8172 F       1  UNL1       -0.2041
     34 C           3.4762    0.7501   19.7476 C.ar    1  UNL1        0.0293
     35 C           4.1650   -0.1989   24.7572 C.3     1  UNL1        0.0985
     36 C           4.3045   -1.6464   25.1248 C.3     1  UNL1        0.0245
     37 C           5.5527   -2.3953   24.7627 C.3     1  UNL1        0.0335
     38 C           5.5492   -3.3401   23.5976 C.3     1  UNL1        0.1372
     39 O           4.2979   -3.5350   22.7939 O.3     1  UNL1       -0.3820
     40 H           3.6210   -3.9563   23.3464 H       1  UNL1        0.2104
@<TRIPOS>BOND
     1    25    26    1
     2    26    13    1
     3    13    14   ar
     4    14    15   ar
     5    15    16    1
     6    15    17   ar
     7    17    18   ar
     8    18    19    1
     9    18    20   ar
    10    20     1    1
    11     1     2   ar
    12     2     3   ar
    13     3     4   ar
    14     4     5   ar
    15     5     6   ar
    16     5     7    1
    17     7    35    1
    18    35    36    1
    19    36    37    1
    20    37    38    1
    21    38    39    1
    22     7     8   am
    23     8     9    2
    24     8    10    1
    25    10    11    1
    26    10    27    1
    27    27    28   ar
    28    28    29   ar
    29    29    30    1
    30    29    31   ar
    31    31    32   ar
    32    32    33    1
    33    32    34   ar
    34    10    12    1
    35    20    13   ar
    36     6     1   ar
    37    34    27   ar
    38    12     4    1
    39    16    21    1
    40    16    22    1
    41    19    23    1
    42    19    24    1
    43    39    40    1
@<TRIPOS>MOLECULE
*****
 40 43 0 0 0
SMALL
GASTEIGER

@<TRIPOS>ATOM
      1 C           0.6856    1.7307   26.7546 C.ar    1  UNL1        0.0053
      2 C          -0.5502    2.1014   25.9896 C.ar    1  UNL1        0.0033
      3 C          -0.6100    1.8780   24.5076 C.ar    1  UNL1        0.0382
      4 C           0.5660    1.2839   23.7906 C.ar    1  UNL1        0.1529
      5 C           1.8018    0.9133   24.5556 C.ar    1  UNL1        0.0881
      6 C           1.8616    1.1366   26.0376 C.ar    1  UNL1        0.0181
      7 N           2.9778    0.3192   23.8386 N.am    1  UNL1       -0.2529
      8 C           2.9181    0.0958   22.3566 C.2     1  UNL1        0.2697
      9 O           4.0941   -0.4982   21.6396 O.2     1  UNL1       -0.2704
     10 C           1.6822    0.4665   21.5915 C.3     1  UNL1        0.2199
     11 C           0.7413    0.6534   20.4383 C.3     1  UNL1        0.0579
     12 O           0.5062    1.0606   22.3084 O.3     1  UNL1       -0.4686
     13 C           1.1162    3.3032   28.7775 C.ar    1  UNL1        0.0645
     14 N           1.1760    3.5266   30.2595 N.ar    1  UNL1       -0.2183
     15 C           0.8651    2.4008   31.2009 C.ar    1  UNL1        0.2145
     16 N           0.9249    2.6242   32.6829 N.pl3   1  UNL1       -0.3274
     17 N           0.4943    1.0517   30.6602 N.ar    1  UNL1       -0.1995
     18 C           0.4345    0.8283   29.1780 C.ar    1  UNL1        0.1293
     19 N           0.0637   -0.5208   28.6373 N.pl3   1  UNL1       -0.3425
     20 C           0.7454    1.9541   28.2368 C.ar    1  UNL1        0.0449
     21 H           1.1683    3.5097   33.0378 H       1  UNL1        0.1452
     22 H           0.7209    1.8854   33.3008 H       1  UNL1        0.1452
     23 H          -0.1403   -1.2596   29.2551 H       1  UNL1        0.1437
     24 H           0.0245   -0.6674   27.6646 H       1  UNL1        0.1437
     25 C           0.3621    5.4225   27.4775 C.3     1  UNL1        0.0067
     26 C           1.4271    4.4289   27.8362 C.3     1  UNL1        0.0460
     27 C           2.5314   -0.0626   20.4740 C.ar    1  UNL1        0.0264
     28 C           3.3580    0.8792   19.6495 C.ar    1  UNL1        0.0293
     29 C           4.2073    0.3500   18.5320 C.ar    1  UNL1        0.1422
     30 F           5.0338    1.2919   17.7074 F       1  UNL1       -0.2041
     31 C           4.2300   -1.1209   18.2390 C.ar    1  UNL1        0.0592
     32 C           3.4035   -2.0626   19.0636 C.ar    1  UNL1        0.1422
     33 F           3.4262   -3.5336   18.7706 F       1  UNL1       -0.2041
     34 C           2.5542   -1.5336   20.1811 C.ar    1  UNL1        0.0293
     35 C           4.2136   -0.0515   24.6037 C.3     1  UNL1        0.0985
     36 C           4.3588   -1.4327   25.1705 C.3     1  UNL1        0.0245
     37 C           5.0767   -1.6378   26.4715 C.3     1  UNL1        0.0335
     38 C           4.3445   -1.4590   27.7684 C.3     1  UNL1        0.1372
     39 O           2.8452   -1.4946   27.7943 O.3     1  UNL1       -0.3820
     40 H           2.4952   -0.7342   27.3042 H       1  UNL1        0.2104
@<TRIPOS>BOND
     1    25    26    1
     2    26    13    1
     3    13    14   ar
     4    14    15   ar
     5    15    16    1
     6    15    17   ar
     7    17    18   ar
     8    18    19    1
     9    18    20   ar
    10    20     1    1
    11     1     2   ar
    12     2     3   ar
    13     3     4   ar
    14     4     5   ar
    15     5     6   ar
    16     5     7    1
    17     7    35    1
    18    35    36    1
    19    36    37    1
    20    37    38    1
    21    38    39    1
    22     7     8   am
    23     8     9    2
    24     8    10    1
    25    10    11    1
    26    10    27    1
    27    27    28   ar
    28    28    29   ar
    29    29    30    1
    30    29    31   ar
    31    31    32   ar
    32    32    33    1
    33    32    34   ar
    34    10    12    1
    35    20    13   ar
    36     6     1   ar
    37    34    27   ar
    38    12     4    1
    39    16    21    1
    40    16    22    1
    41    19    23    1
    42    19    24    1
    43    39    40    1
@<TRIPOS>MOLECULE
*****
 40 43 0 0 0
SMALL
GASTEIGER

@<TRIPOS>ATOM
      1 C           0.6757    1.7317   26.7430 C.ar    1  UNL1        0.0053
      2 C          -0.5593    2.1073   25.9790 C.ar    1  UNL1        0.0033
      3 C          -0.6186    1.8909   24.4960 C.ar    1  UNL1        0.0382
      4 C           0.5571    1.2988   23.7768 C.ar    1  UNL1        0.1529
      5 C           1.7921    0.9232   24.5407 C.ar    1  UNL1        0.0881
      6 C           1.8514    1.1397   26.0238 C.ar    1  UNL1        0.0181
      7 N           2.9678    0.3311   23.8216 N.am    1  UNL1       -0.2529
      8 C           2.9085    0.1147   22.3385 C.2     1  UNL1        0.2697
      9 O           4.0842   -0.4774   21.6193 O.2     1  UNL1       -0.2704
     10 C           1.6734    0.4903   21.5745 C.3     1  UNL1        0.2199
     11 C           0.7333    0.6836   20.4217 C.3     1  UNL1        0.0579
     12 O           0.4977    1.0823   22.2936 O.3     1  UNL1       -0.4686
     13 C           1.1065    3.2945   28.7733 C.ar    1  UNL1        0.0645
     14 N           1.1659    3.5110   30.2564 N.ar    1  UNL1       -0.2183
     15 C           0.8538    2.3812   31.1924 C.ar    1  UNL1        0.2145
     16 N           0.9132    2.5976   32.6754 N.pl3   1  UNL1       -0.3274
     17 N           0.4823    1.0348   30.6452 N.ar    1  UNL1       -0.1995
     18 C           0.4230    0.8183   29.1620 C.ar    1  UNL1        0.1293
     19 N           0.0515   -0.5280   28.6149 N.pl3   1  UNL1       -0.3425
     20 C           0.7351    1.9482   28.2261 C.ar    1  UNL1        0.0449
     21 H           1.1570    3.4813   33.0345 H       1  UNL1        0.1452
     22 H           0.7083    1.8561   33.2897 H       1  UNL1        0.1452
     23 H          -0.1533   -1.2696   29.2292 H       1  UNL1        0.1437
     24 H           0.0126   -0.6701   27.6415 H       1  UNL1        0.1437
     25 C           0.3587    5.4290   27.4946 C.3     1  UNL1        0.0067
     26 C           1.4186    4.4244   27.8373 C.3     1  UNL1        0.0460
     27 C           2.5226   -0.0347   20.4550 C.ar    1  UNL1        0.0264
     28 C           2.5558   -1.5060   20.1652 C.ar    1  UNL1        0.0293
     29 C           3.4050   -2.0309   19.0456 C.ar    1  UNL1        0.1422
     30 F           3.4381   -3.5024   18.7558 F       1  UNL1       -0.2041
     31 C           4.2211   -1.0846   18.2160 C.ar    1  UNL1        0.0592
     32 C           4.1879    0.3867   18.5059 C.ar    1  UNL1        0.1422
     33 F           5.0040    1.3332   17.6762 F       1  UNL1       -0.2041
     34 C           3.3387    0.9118   19.6254 C.ar    1  UNL1        0.0293
     35 C           4.2028   -0.0445   24.5855 C.3     1  UNL1        0.0985
     36 C           4.3486   -1.4301   25.1413 C.3     1  UNL1        0.0245
     37 C           5.0830   -1.6474   26.4310 C.3     1  UNL1        0.0335
     38 C           4.3513   -1.5484   27.7367 C.3     1  UNL1        0.1372
     39 O           2.8527   -1.4860   27.7537 O.3     1  UNL1       -0.3820
     40 H           2.5588   -0.6594   27.3398 H       1  UNL1        0.2104
@<TRIPOS>BOND
     1    25    26    1
     2    26    13    1
     3    13    14   ar
     4    14    15   ar
     5    15    16    1
     6    15    17   ar
     7    17    18   ar
     8    18    19    1
     9    18    20   ar
    10    20     1    1
    11     1     2   ar
    12     2     3   ar
    13     3     4   ar
    14     4     5   ar
    15     5     6   ar
    16     5     7    1
    17     7    35    1
    18    35    36    1
    19    36    37    1
    20    37    38    1
    21    38    39    1
    22     7     8   am
    23     8     9    2
    24     8    10    1
    25    10    11    1
    26    10    27    1
    27    27    28   ar
    28    28    29   ar
    29    29    30    1
    30    29    31   ar
    31    31    32   ar
    32    32    33    1
    33    32    34   ar
    34    10    12    1
    35    20    13   ar
    36     6     1   ar
    37    34    27   ar
    38    12     4    1
    39    16    21    1
    40    16    22    1
    41    19    23    1
    42    19    24    1
    43    39    40    1
@<TRIPOS>MOLECULE
*****
 40 43 0 0 0
SMALL
GASTEIGER

@<TRIPOS>ATOM
      1 C           0.7470    1.6630   26.6162 C.ar    1  UNL1        0.0053
      2 C          -0.4422    2.0908   25.8082 C.ar    1  UNL1        0.0033
      3 C          -0.4625    1.8637   24.3257 C.ar    1  UNL1        0.0382
      4 C           0.7063    1.2089   23.6511 C.ar    1  UNL1        0.1529
      5 C           1.8955    0.7811   24.4591 C.ar    1  UNL1        0.0881
      6 C           1.9158    1.0082   25.9416 C.ar    1  UNL1        0.0181
      7 N           3.0643    0.1263   23.7845 N.am    1  UNL1       -0.2529
      8 C           3.0440   -0.1007   22.3019 C.2     1  UNL1        0.2697
      9 O           4.2128   -0.7555   21.6274 O.2     1  UNL1       -0.2704
     10 C           1.8548    0.3271   21.4939 C.3     1  UNL1        0.2199
     11 C           0.9641    0.5550   20.3087 C.3     1  UNL1        0.0579
     12 O           0.6860    0.9819   22.1684 O.3     1  UNL1       -0.4686
     13 C           1.3531    3.1535   28.6561 C.ar    1  UNL1        0.0645
     14 N           1.3734    3.3805   30.1386 N.ar    1  UNL1       -0.2183
     15 C           0.8081    2.3440   31.0640 C.ar    1  UNL1        0.2145
     16 N           0.8285    2.5711   32.5465 N.pl3   1  UNL1       -0.3274
     17 N           0.2223    1.0806   30.5067 N.ar    1  UNL1       -0.1995
     18 C           0.2020    0.8536   29.0241 C.ar    1  UNL1        0.1293
     19 N          -0.3837   -0.4099   28.4668 N.pl3   1  UNL1       -0.3425
     20 C           0.7673    1.8900   28.0988 C.ar    1  UNL1        0.0449
     21 H           1.2129    3.4003   32.9123 H       1  UNL1        0.1452
     22 H           0.4574    1.8908   33.1539 H       1  UNL1        0.1452
     23 H          -0.7548   -1.0902   29.0741 H       1  UNL1        0.1437
     24 H          -0.3971   -0.5589   27.4937 H       1  UNL1        0.1437
     25 C           1.1264    5.4234   27.4127 C.3     1  UNL1        0.0067
     26 C           1.9184    4.1899   27.7307 C.3     1  UNL1        0.0460
     27 C           2.7143   -0.2486   20.4077 C.ar    1  UNL1        0.0264
     28 C           2.6809   -1.7215   20.1262 C.ar    1  UNL1        0.0293
     29 C           3.5405   -2.2972   19.0400 C.ar    1  UNL1        0.1422
     30 F           3.5070   -3.7703   18.7586 F       1  UNL1       -0.2041
     31 C           4.4333   -1.4000   18.2353 C.ar    1  UNL1        0.0592
     32 C           4.4667    0.0730   18.5168 C.ar    1  UNL1        0.1422
     33 F           5.3596    0.9703   17.7120 F       1  UNL1       -0.2041
     34 C           3.6072    0.6488   19.6029 C.ar    1  UNL1        0.0293
     35 C           4.2535   -0.3015   24.5925 C.3     1  UNL1        0.0985
     36 C           4.3627   -1.7178   25.0741 C.3     1  UNL1        0.0245
     37 C           5.5692   -2.5379   24.7248 C.3     1  UNL1        0.0335
     38 C           5.5310   -3.4633   23.5449 C.3     1  UNL1        0.1372
     39 O           4.2899   -3.5609   22.7082 O.3     1  UNL1       -0.3820
     40 H           3.5724   -3.9429   23.2374 H       1  UNL1        0.2104
@<TRIPOS>BOND
     1    25    26    1
     2    26    13    1
     3    13    14   ar
     4    14    15   ar
     5    15    16    1
     6    15    17   ar
     7    17    18   ar
     8    18    19    1
     9    18    20   ar
    10    20     1    1
    11     1     2   ar
    12     2     3   ar
    13     3     4   ar
    14     4     5   ar
    15     5     6   ar
    16     5     7    1
    17     7    35    1
    18    35    36    1
    19    36    37    1
    20    37    38    1
    21    38    39    1
    22     7     8   am
    23     8     9    2
    24     8    10    1
    25    10    11    1
    26    10    27    1
    27    27    28   ar
    28    28    29   ar
    29    29    30    1
    30    29    31   ar
    31    31    32   ar
    32    32    33    1
    33    32    34   ar
    34    10    12    1
    35    20    13   ar
    36     6     1   ar
    37    34    27   ar
    38    12     4    1
    39    16    21    1
    40    16    22    1
    41    19    23    1
    42    19    24    1
    43    39    40    1
@<TRIPOS>MOLECULE
*****
 40 43 0 0 0
SMALL
GASTEIGER

@<TRIPOS>ATOM
      1 C           4.4436    1.1685   35.8424 C.ar    1  UNL1        0.0053
      2 C           4.7300   -0.2540   35.4628 C.ar    1  UNL1        0.0033
      3 C           4.3066   -0.7717   34.1201 C.ar    1  UNL1        0.0382
      4 C           3.5968    0.1332   33.1571 C.ar    1  UNL1        0.1529
      5 C           3.3105    1.5558   33.5368 C.ar    1  UNL1        0.0881
      6 C           3.7339    2.0735   34.8794 C.ar    1  UNL1        0.0181
      7 N           2.6007    2.4608   32.5738 N.am    1  UNL1       -0.2529
      8 C           2.1774    1.9431   31.2311 C.2     1  UNL1        0.2697
      9 O           1.4676    2.8481   30.2681 O.2     1  UNL1       -0.2704
     10 C           2.4637    0.5205   30.8514 C.3     1  UNL1        0.2199
     11 C           2.5091   -0.7399   30.0394 C.3     1  UNL1        0.0579
     12 O           3.1735   -0.3845   31.8144 O.3     1  UNL1       -0.4686
     13 C           3.8969    1.6854   38.3292 C.ar    1  UNL1        0.0645
     14 N           4.3202    2.2031   39.6718 N.ar    1  UNL1       -0.2183
     15 C           5.7137    2.7217   39.8705 C.ar    1  UNL1        0.2145
     16 N           6.1370    3.2394   41.2131 N.pl3   1  UNL1       -0.3274
     17 N           6.6838    2.7225   38.7264 N.ar    1  UNL1       -0.1995
     18 C           6.2604    2.2048   37.3837 C.ar    1  UNL1        0.1293
     19 N           7.2305    2.2056   36.2396 N.pl3   1  UNL1       -0.3425
     20 C           4.8670    1.6863   37.1851 C.ar    1  UNL1        0.0449
     21 H           5.5003    3.2388   41.9640 H       1  UNL1        0.1452
     22 H           7.0516    3.5797   41.3435 H       1  UNL1        0.1452
     23 H           8.1451    2.5460   36.3700 H       1  UNL1        0.1437
     24 H           6.9526    1.8659   35.3584 H       1  UNL1        0.1437
     25 C           1.7451    0.5911   39.2897 C.3     1  UNL1        0.0067
     26 C           2.5034    1.1669   38.1306 C.3     1  UNL1        0.0460
     27 C           1.7697    0.9877   29.6065 C.ar    1  UNL1        0.0264
     28 C           0.2797    0.8632   29.4867 C.ar    1  UNL1        0.0293
     29 C          -0.4143    1.3305   28.2416 C.ar    1  UNL1        0.1422
     30 F          -1.9044    1.2060   28.1220 F       1  UNL1       -0.2041
     31 C           0.3817    1.9221   27.1164 C.ar    1  UNL1        0.0592
     32 C           1.8717    2.0466   27.2362 C.ar    1  UNL1        0.1422
     33 F           2.6677    2.6383   26.1108 F       1  UNL1       -0.2041
     34 C           2.5658    1.5794   28.4811 C.ar    1  UNL1        0.0293
     35 C           2.3144    3.8834   32.9534 C.3     1  UNL1        0.0985
     36 C           1.0133    4.2368   33.6110 C.3     1  UNL1        0.0245
     37 C          -0.1786    4.5923   32.7725 C.3     1  UNL1        0.0335
     38 C          -0.8538    5.9195   32.9532 C.3     1  UNL1        0.1372
     39 O          -2.1644    6.0016   33.6781 O.3     1  UNL1       -0.3820
     40 H          -2.8469    5.5408   33.1655 H       1  UNL1        0.2104
@<TRIPOS>BOND
     1    25    26    1
     2    26    13    1
     3    13    14   ar
     4    14    15   ar
     5    15    16    1
     6    15    17   ar
     7    17    18   ar
     8    18    19    1
     9    18    20   ar
    10    20     1    1
    11     1     2   ar
    12     2     3   ar
    13     3     4   ar
    14     4     5   ar
    15     5     6   ar
    16     5     7    1
    17     7    35    1
    18    35    36    1
    19    36    37    1
    20    37    38    1
    21    38    39    1
    22     7     8   am
    23     8     9    2
    24     8    10    1
    25    10    11    1
    26    10    27    1
    27    27    28   ar
    28    28    29   ar
    29    29    30    1
    30    29    31   ar
    31    31    32   ar
    32    32    33    1
    33    32    34   ar
    34    10    12    1
    35    20    13   ar
    36     6     1   ar
    37    34    27   ar
    38    12     4    1
    39    16    21    1
    40    16    22    1
    41    19    23    1
    42    19    24    1
    43    39    40    1
@<TRIPOS>MOLECULE
*****
 40 43 0 0 0
SMALL
GASTEIGER

@<TRIPOS>ATOM
      1 C           1.1884    1.3428   26.3489 C.ar    1  UNL1        0.0053
      2 C           0.2617    2.0366   25.3951 C.ar    1  UNL1        0.0033
      3 C           0.3924    1.8035   23.9191 C.ar    1  UNL1        0.0382
      4 C           1.4499    0.8767   23.3970 C.ar    1  UNL1        0.1529
      5 C           2.3766    0.1829   24.3507 C.ar    1  UNL1        0.0881
      6 C           2.2459    0.4160   25.8267 C.ar    1  UNL1        0.0181
      7 N           3.4341   -0.7440   23.8286 N.am    1  UNL1       -0.2529
      8 C           3.5648   -0.9771   22.3526 C.2     1  UNL1        0.2697
      9 O           4.6223   -1.9039   21.8304 O.2     1  UNL1       -0.2704
     10 C           2.6380   -0.2833   21.3987 C.3     1  UNL1        0.2199
     11 C           2.0018    0.1396   20.1079 C.3     1  UNL1        0.0579
     12 O           1.5806    0.6436   21.9209 O.3     1  UNL1       -0.4686
     13 C           1.8428    2.6712   28.4837 C.ar    1  UNL1        0.0645
     14 N           1.7122    2.9043   29.9597 N.ar    1  UNL1       -0.2183
     15 C           0.7964    2.0420   30.7770 C.ar    1  UNL1        0.2145
     16 N           0.6657    2.2751   32.2530 N.pl3   1  UNL1       -0.3274
     17 N           0.0113    0.9468   30.1183 N.ar    1  UNL1       -0.1995
     18 C           0.1420    0.7137   28.6422 C.ar    1  UNL1        0.1293
     19 N          -0.6432   -0.3816   27.9835 N.pl3   1  UNL1       -0.3425
     20 C           1.0577    1.5759   27.8250 C.ar    1  UNL1        0.0449
     21 H           1.1810    2.9940   32.6853 H       1  UNL1        0.1452
     22 H           0.0647    1.7092   32.7894 H       1  UNL1        0.1452
     23 H          -1.2442   -0.9475   28.5199 H       1  UNL1        0.1437
     24 H          -0.5574   -0.5346   27.0147 H       1  UNL1        0.1437
     25 C           4.2104    3.1774   27.5411 C.3     1  UNL1        0.0067
     26 C           2.7587    3.5334   27.6664 C.3     1  UNL1        0.0460
     27 C           3.4745   -1.0633   20.4283 C.ar    1  UNL1        0.0264
     28 C           4.7275   -0.4609   19.8649 C.ar    1  UNL1        0.0293
     29 C           5.5640   -1.2410   18.8944 C.ar    1  UNL1        0.1422
     30 F           6.8170   -0.6386   18.3311 F       1  UNL1       -0.2041
     31 C           5.1476   -2.6232   18.4873 C.ar    1  UNL1        0.0592
     32 C           3.8947   -3.2255   19.0506 C.ar    1  UNL1        0.1422
     33 F           3.4783   -4.6079   18.6434 F       1  UNL1       -0.2041
     34 C           3.0581   -2.4456   20.0211 C.ar    1  UNL1        0.0293
     35 C           4.3608   -1.4378   24.7824 C.3     1  UNL1        0.0985
     36 C           5.7092   -0.8510   25.0785 C.3     1  UNL1        0.0245
     37 C           6.0593    0.5171   24.5729 C.3     1  UNL1        0.0335
     38 C           6.7997    0.6712   23.2775 C.3     1  UNL1        0.1372
     39 O           7.1450   -0.5397   22.4624 O.3     1  UNL1       -0.3820
     40 H           7.7815   -1.0864   22.9491 H       1  UNL1        0.2104
@<TRIPOS>BOND
     1    25    26    1
     2    26    13    1
     3    13    14   ar
     4    14    15   ar
     5    15    16    1
     6    15    17   ar
     7    17    18   ar
     8    18    19    1
     9    18    20   ar
    10    20     1    1
    11     1     2   ar
    12     2     3   ar
    13     3     4   ar
    14     4     5   ar
    15     5     6   ar
    16     5     7    1
    17     7    35    1
    18    35    36    1
    19    36    37    1
    20    37    38    1
    21    38    39    1
    22     7     8   am
    23     8     9    2
    24     8    10    1
    25    10    11    1
    26    10    27    1
    27    27    28   ar
    28    28    29   ar
    29    29    30    1
    30    29    31   ar
    31    31    32   ar
    32    32    33    1
    33    32    34   ar
    34    10    12    1
    35    20    13   ar
    36     6     1   ar
    37    34    27   ar
    38    12     4    1
    39    16    21    1
    40    16    22    1
    41    19    23    1
    42    19    24    1
    43    39    40    1
@<TRIPOS>MOLECULE
*****
 40 43 0 0 0
SMALL
GASTEIGER

@<TRIPOS>ATOM
      1 C          -4.7099  -18.9314   21.5190 C.ar    1  UNL1        0.0053
      2 C          -4.9017  -20.3903   21.8102 C.ar    1  UNL1        0.0033
      3 C          -6.2435  -20.8974   22.2489 C.ar    1  UNL1        0.0382
      4 C          -7.3934  -19.9456   22.3964 C.ar    1  UNL1        0.1529
      5 C          -7.2016  -18.4868   22.1052 C.ar    1  UNL1        0.0881
      6 C          -5.8599  -17.9796   21.6665 C.ar    1  UNL1        0.0181
      7 N          -8.3516  -17.5350   22.2528 N.am    1  UNL1       -0.2529
      8 C          -9.6933  -18.0421   22.6915 C.2     1  UNL1        0.2697
      9 O         -10.8433  -17.0903   22.8390 O.2     1  UNL1       -0.2704
     10 C          -9.8852  -19.5011   22.9827 C.3     1  UNL1        0.2199
     11 C         -10.5574  -20.7842   23.3721 C.3     1  UNL1        0.0579
     12 O          -8.7352  -20.4528   22.8352 O.3     1  UNL1       -0.4686
     13 C          -2.6577  -17.3826   21.8929 C.ar    1  UNL1        0.0645
     14 N          -1.3160  -16.8754   21.4542 N.ar    1  UNL1       -0.2183
     15 C          -0.6846  -17.4098   20.2029 C.ar    1  UNL1        0.2145
     16 N           0.6571  -16.9026   19.7642 N.pl3   1  UNL1       -0.3274
     17 N          -1.3950  -18.4514   19.3902 N.ar    1  UNL1       -0.1995
     18 C          -2.7368  -18.9586   19.8290 C.ar    1  UNL1        0.1293
     19 N          -3.4472  -20.0002   19.0164 N.pl3   1  UNL1       -0.3425
     20 C          -3.3681  -18.4242   21.0803 C.ar    1  UNL1        0.0449
     21 H           1.1234  -16.2190   20.2976 H       1  UNL1        0.1452
     22 H           1.0715  -17.2534   18.9429 H       1  UNL1        0.1452
     23 H          -3.0329  -20.3510   18.1951 H       1  UNL1        0.1437
     24 H          -4.3279  -20.3331   19.3043 H       1  UNL1        0.1437
     25 C          -3.3474  -17.6999   24.3776 C.3     1  UNL1        0.0067
     26 C          -3.2891  -16.8482   23.1443 C.3     1  UNL1        0.0460
     27 C         -11.2685  -18.9949   23.2654 C.ar    1  UNL1        0.0264
     28 C         -11.7836  -18.9669   24.6739 C.ar    1  UNL1        0.0293
     29 C         -13.1671  -18.4607   24.9567 C.ar    1  UNL1        0.1422
     30 F         -13.6821  -18.4327   26.3653 F       1  UNL1       -0.2041
     31 C         -14.0354  -17.9826   23.8310 C.ar    1  UNL1        0.0592
     32 C         -13.5203  -18.0107   22.4225 C.ar    1  UNL1        0.1422
     33 F         -14.3888  -17.5326   21.2967 F       1  UNL1       -0.2041
     34 C         -12.1369  -18.5168   22.1397 C.ar    1  UNL1        0.0293
     35 C          -8.1598  -16.0761   21.9616 C.3     1  UNL1        0.0985
     36 C          -7.7233  -15.1445   23.0531 C.3     1  UNL1        0.0245
     37 C          -7.4611  -15.6749   24.4316 C.3     1  UNL1        0.0335
     38 C          -6.1208  -15.4678   25.0724 C.3     1  UNL1        0.1372
     39 O          -5.9107  -14.3231   26.0187 O.3     1  UNL1       -0.3820
     40 H          -5.9909  -13.4856   25.5360 H       1  UNL1        0.2104
@<TRIPOS>BOND
     1    25    26    1
     2    26    13    1
     3    13    14   ar
     4    14    15   ar
     5    15    16    1
     6    15    17   ar
     7    17    18   ar
     8    18    19    1
     9    18    20   ar
    10    20     1    1
    11     1     2   ar
    12     2     3   ar
    13     3     4   ar
    14     4     5   ar
    15     5     6   ar
    16     5     7    1
    17     7    35    1
    18    35    36    1
    19    36    37    1
    20    37    38    1
    21    38    39    1
    22     7     8   am
    23     8     9    2
    24     8    10    1
    25    10    11    1
    26    10    27    1
    27    27    28   ar
    28    28    29   ar
    29    29    30    1
    30    29    31   ar
    31    31    32   ar
    32    32    33    1
    33    32    34   ar
    34    10    12    1
    35    20    13   ar
    36     6     1   ar
    37    34    27   ar
    38    12     4    1
    39    16    21    1
    40    16    22    1
    41    19    23    1
    42    19    24    1
    43    39    40    1
@<TRIPOS>MOLECULE
*****
 40 43 0 0 0
SMALL
GASTEIGER

@<TRIPOS>ATOM
      1 C           2.8154    0.2988   28.1510 C.ar    1  UNL1        0.0053
      2 C           3.6471   -0.8855   28.5456 C.ar    1  UNL1        0.0033
      3 C           4.3385   -1.7005   27.4931 C.ar    1  UNL1        0.0382
      4 C           4.1982   -1.3313   26.0461 C.ar    1  UNL1        0.1529
      5 C           3.3665   -0.1470   25.6515 C.ar    1  UNL1        0.0881
      6 C           2.6751    0.6680   26.7039 C.ar    1  UNL1        0.0181
      7 N           3.2262    0.2223   24.2044 N.am    1  UNL1       -0.2529
      8 C           3.9176   -0.5927   23.1520 C.2     1  UNL1        0.2697
      9 O           3.7773   -0.2235   21.7049 O.2     1  UNL1       -0.2704
     10 C           4.7493   -1.7771   23.5465 C.3     1  UNL1        0.2199
     11 C           5.6397   -2.9780   23.4238 C.3     1  UNL1        0.0579
     12 O           4.8896   -2.1464   24.9936 O.3     1  UNL1       -0.4686
     13 C           0.7022    0.8107   29.5731 C.ar    1  UNL1        0.0645
     14 N           0.0108    1.6257   30.6255 N.ar    1  UNL1       -0.2183
     15 C           0.7411    2.7440   31.3083 C.ar    1  UNL1        0.2145
     16 N           0.0497    3.5590   32.3607 N.pl3   1  UNL1       -0.3274
     17 N           2.1629    3.0472   30.9386 N.ar    1  UNL1       -0.1995
     18 C           2.8543    2.2321   29.8862 C.ar    1  UNL1        0.1293
     19 N           4.2761    2.5353   29.5165 N.pl3   1  UNL1       -0.3425
     20 C           2.1240    1.1139   29.2034 C.ar    1  UNL1        0.0449
     21 H          -0.8835    3.3600   32.6033 H       1  UNL1        0.1452
     22 H           0.5290    4.2930   32.8088 H       1  UNL1        0.1452
     23 H           4.7554    3.2692   29.9646 H       1  UNL1        0.1437
     24 H           4.7299    2.0003   28.8258 H       1  UNL1        0.1437
     25 C          -1.5267   -0.3587   28.9294 C.3     1  UNL1        0.0067
     26 C          -0.0281   -0.3076   28.8903 C.3     1  UNL1        0.0460
     27 C           4.9182   -1.8249   22.0569 C.ar    1  UNL1        0.0264
     28 C           3.9792   -2.6437   21.2215 C.ar    1  UNL1        0.0293
     29 C           4.1482   -2.6915   19.7318 C.ar    1  UNL1        0.1422
     30 F           3.2091   -3.5104   18.8964 F       1  UNL1       -0.2041
     31 C           5.2560   -1.9206   19.0775 C.ar    1  UNL1        0.0592
     32 C           6.1950   -1.1017   19.9129 C.ar    1  UNL1        0.1422
     33 F           7.3029   -0.3307   19.2585 F       1  UNL1       -0.2041
     34 C           6.0261   -1.0539   21.4026 C.ar    1  UNL1        0.0293
     35 C           2.3945    1.4066   23.8098 C.3     1  UNL1        0.0985
     36 C           0.9204    1.2459   23.5835 C.3     1  UNL1        0.0245
     37 C           0.3135    1.6562   22.2745 C.3     1  UNL1        0.0335
     38 C           0.6737    0.9210   21.0176 C.3     1  UNL1        0.1372
     39 O          -0.2654   -0.1030   20.4524 O.3     1  UNL1       -0.3820
     40 H          -0.3336   -0.8522   21.0648 H       1  UNL1        0.2104
@<TRIPOS>BOND
     1    25    26    1
     2    26    13    1
     3    13    14   ar
     4    14    15   ar
     5    15    16    1
     6    15    17   ar
     7    17    18   ar
     8    18    19    1
     9    18    20   ar
    10    20     1    1
    11     1     2   ar
    12     2     3   ar
    13     3     4   ar
    14     4     5   ar
    15     5     6   ar
    16     5     7    1
    17     7    35    1
    18    35    36    1
    19    36    37    1
    20    37    38    1
    21    38    39    1
    22     7     8   am
    23     8     9    2
    24     8    10    1
    25    10    11    1
    26    10    27    1
    27    27    28   ar
    28    28    29   ar
    29    29    30    1
    30    29    31   ar
    31    31    32   ar
    32    32    33    1
    33    32    34   ar
    34    10    12    1
    35    20    13   ar
    36     6     1   ar
    37    34    27   ar
    38    12     4    1
    39    16    21    1
    40    16    22    1
    41    19    23    1
    42    19    24    1
    43    39    40    1
