@<TRIPOS>MOLECULE
*****
 35 38 0 0 0
SMALL
GASTEIGER

@<TRIPOS>ATOM
      1 N           0.3349    2.3405   23.1617 N.ar    1  UNL1       -0.2999
      2 C           1.3014    1.1950   23.2218 C.ar    1  UNL1        0.2039
      3 N           1.2539    0.6208   24.6067 N.ar    1  UNL1       -0.2135
      4 C           0.2580    1.4113   25.4025 C.ar    1  UNL1        0.0996
      5 C          -0.2050    1.3007   26.8249 C.ar    1  UNL1        0.0206
      6 C          -1.2360    2.2529   27.3542 C.ar    1  UNL1        0.0013
      7 C          -1.8040    3.3158   26.4611 C.ar    1  UNL1       -0.0027
      8 C          -1.3410    3.4265   25.0387 C.ar    1  UNL1       -0.0045
      9 C          -1.9090    4.4894   24.1456 C.3     1  UNL1        0.0326
     10 C          -0.3100    2.4742   24.5094 C.ar    1  UNL1        0.0758
     11 C          -3.3562    3.5680   19.9436 C.2     1  UNL1        0.2492
     12 O          -4.1186    2.6007   20.7999 O.2     1  UNL1       -0.2699
     13 N          -1.9150    3.8585   20.2411 N.am    1  UNL1       -0.2742
     14 C          -1.2461    4.8397   19.3246 C.3     1  UNL1        0.0938
     15 C           0.1697    5.3341   19.3564 C.3     1  UNL1        0.0216
     16 C           1.2664    4.9693   20.3126 C.3     1  UNL1        0.0037
     17 C           1.2181    4.0202   21.4731 C.3     1  UNL1        0.0245
     18 C           0.0612    3.2013   21.9641 C.3     1  UNL1        0.1078
     19 C          -1.3331    3.1293   21.4157 C.3     1  UNL1        0.1162
     20 C          -5.2922    3.6639   18.2137 C.2     1  UNL1        0.0048
     21 C          -4.0349    4.2448   18.7898 C.2     1  UNL1        0.0579
     22 N           2.1640    0.7091   22.0950 N.am    1  UNL1       -0.2518
     23 C           1.5400    0.0311   20.9114 C.2     1  UNL1        0.2516
     24 O           0.0534   -0.1610   20.8546 O.2     1  UNL1       -0.2697
     25 H           3.1397    0.8352   22.1322 H       1  UNL1        0.1580
     26 C           2.4026   -0.4548   19.7845 C.ar    1  UNL1        0.0537
     27 C           2.7490    0.4677   18.6535 C.ar    1  UNL1        0.0045
     28 C           3.6116   -0.0182   17.5266 C.ar    1  UNL1        0.0001
     29 C           4.1278   -1.4266   17.5307 C.ar    1  UNL1        0.0039
     30 C           3.7814   -2.3490   18.6617 C.ar    1  UNL1        0.0716
     31 C           2.9188   -1.8631   19.7886 C.ar    1  UNL1        0.0084
     32 C           4.2976   -3.7574   18.6658 C.3     1  UNL1        0.4186
     33 F           4.8139   -5.1658   18.6698 F       1  UNL1       -0.1659
     34 F           3.0417   -4.2157   19.3458 F       1  UNL1       -0.1659
     35 F           5.5536   -3.2990   17.9858 F       1  UNL1       -0.1659
@<TRIPOS>BOND
     1    20    21    2
     2    21    11    1
     3    11    12    2
     4    11    13   am
     5    13    14    1
     6    14    15    1
     7    15    16    1
     8    16    17    1
     9    17    18    1
    10    18     1    1
    11     1     2   ar
    12     2    22    1
    13    22    23   am
    14    23    24    2
    15    23    26    1
    16    26    27   ar
    17    27    28   ar
    18    28    29   ar
    19    29    30   ar
    20    30    32    1
    21    32    33    1
    22    32    34    1
    23    32    35    1
    24    30    31   ar
    25     2     3   ar
    26     3     4   ar
    27     4     5   ar
    28     5     6   ar
    29     6     7   ar
    30     7     8   ar
    31     8     9    1
    32     8    10   ar
    33    18    19    1
    34    19    13    1
    35    10     1   ar
    36    31    26   ar
    37    10     4   ar
    38    22    25    1
@<TRIPOS>MOLECULE
*****
 35 38 0 0 0
SMALL
GASTEIGER

@<TRIPOS>ATOM
      1 N           5.3891   -1.7609   27.3892 N.ar    1  UNL1       -0.2999
      2 C           4.0113   -1.5551   26.8330 C.ar    1  UNL1        0.2039
      3 N           3.1281   -1.0781   27.9476 N.ar    1  UNL1       -0.2135
      4 C           3.9599   -0.9892   29.1926 C.ar    1  UNL1        0.0996
      5 C           3.6255   -0.5784   30.5959 C.ar    1  UNL1        0.0206
      6 C           4.6885   -0.5897   31.6541 C.ar    1  UNL1        0.0013
      7 C           6.0859   -1.0117   31.3090 C.ar    1  UNL1       -0.0027
      8 C           6.4203   -1.4224   29.9057 C.ar    1  UNL1       -0.0045
      9 C           7.8178   -1.8444   29.5606 C.3     1  UNL1        0.0326
     10 C           5.3574   -1.4112   28.8475 C.ar    1  UNL1        0.0758
     11 C           7.7181   -5.9918   25.9186 C.2     1  UNL1        0.2492
     12 O           6.5713   -6.6136   26.6590 O.2     1  UNL1       -0.2699
     13 N           7.8352   -4.4987   25.8344 N.am    1  UNL1       -0.2742
     14 C           9.0181   -3.9805   25.0714 C.3     1  UNL1        0.0938
     15 C           9.4119   -2.5569   24.8099 C.3     1  UNL1        0.0216
     16 C           8.7198   -1.2999   25.2469 C.3     1  UNL1        0.0037
     17 C           7.4632   -1.1559   26.0532 C.3     1  UNL1        0.0245
     18 C           6.5882   -2.2335   26.6218 C.3     1  UNL1        0.1078
     19 C           6.7538   -3.7211   26.5244 C.3     1  UNL1        0.1162
     20 C           8.4887   -7.4343   23.8999 C.2     1  UNL1        0.0048
     21 C           8.7479   -6.8629   25.2624 C.2     1  UNL1        0.0579
     22 N           3.5907   -1.7858   25.4117 N.am    1  UNL1       -0.2518
     23 C           3.8925   -0.7560   24.3637 C.2     1  UNL1        0.2516
     24 O           4.6149    0.5046   24.7369 O.2     1  UNL1       -0.2697
     25 H           3.1165   -2.6131   25.1668 H       1  UNL1        0.1580
     26 C           3.4718   -0.9866   22.9425 C.ar    1  UNL1        0.0537
     27 C           2.5055   -0.0468   22.2844 C.ar    1  UNL1        0.0045
     28 C           2.0849   -0.2774   20.8632 C.ar    1  UNL1        0.0001
     29 C           2.6306   -1.4479   20.1001 C.ar    1  UNL1        0.0039
     30 C           3.5968   -2.3877   20.7582 C.ar    1  UNL1        0.0716
     31 C           4.0175   -2.1570   22.1794 C.ar    1  UNL1        0.0084
     32 C           4.1424   -3.5581   19.9951 C.3     1  UNL1        0.4186
     33 F           4.6881   -4.7286   19.2319 F       1  UNL1       -0.1659
     34 F           3.9266   -2.8193   18.7076 F       1  UNL1       -0.1659
     35 F           4.3583   -4.2969   21.2825 F       1  UNL1       -0.1659
@<TRIPOS>BOND
     1    20    21    2
     2    21    11    1
     3    11    12    2
     4    11    13   am
     5    13    14    1
     6    14    15    1
     7    15    16    1
     8    16    17    1
     9    17    18    1
    10    18     1    1
    11     1     2   ar
    12     2    22    1
    13    22    23   am
    14    23    24    2
    15    23    26    1
    16    26    27   ar
    17    27    28   ar
    18    28    29   ar
    19    29    30   ar
    20    30    32    1
    21    32    33    1
    22    32    34    1
    23    32    35    1
    24    30    31   ar
    25     2     3   ar
    26     3     4   ar
    27     4     5   ar
    28     5     6   ar
    29     6     7   ar
    30     7     8   ar
    31     8     9    1
    32     8    10   ar
    33    18    19    1
    34    19    13    1
    35    10     1   ar
    36    31    26   ar
    37    10     4   ar
    38    22    25    1
@<TRIPOS>MOLECULE
*****
 35 38 0 0 0
SMALL
GASTEIGER

@<TRIPOS>ATOM
      1 N           3.6591    1.3520   34.7995 N.ar    1  UNL1       -0.2999
      2 C           2.3999    2.0809   34.4347 C.ar    1  UNL1        0.2039
      3 N           2.0259    2.9651   35.5872 N.ar    1  UNL1       -0.2135
      4 C           3.0539    2.7828   36.6642 C.ar    1  UNL1        0.0996
      5 C           3.2012    3.3957   38.0252 C.ar    1  UNL1        0.0206
      6 C           4.3580    3.0116   38.8995 C.ar    1  UNL1        0.0013
      7 C           5.3675    2.0146   38.4126 C.ar    1  UNL1       -0.0027
      8 C           5.2201    1.4017   37.0516 C.ar    1  UNL1       -0.0045
      9 C           6.2296    0.4047   36.5647 C.3     1  UNL1        0.0326
     10 C           4.0633    1.7858   36.1773 C.ar    1  UNL1        0.0758
     11 C           7.0705    1.1106   31.0859 C.2     1  UNL1        0.2492
     12 O           7.0227    2.6009   31.2490 O.2     1  UNL1       -0.2699
     13 N           6.2130    0.2336   31.9494 N.am    1  UNL1       -0.2742
     14 C           6.3367   -1.2412   31.7053 C.3     1  UNL1        0.0938
     15 C           5.6231   -2.3664   32.3943 C.3     1  UNL1        0.0216
     16 C           4.6095   -2.2946   33.4977 C.3     1  UNL1        0.0037
     17 C           4.0592   -1.0800   34.1845 C.3     1  UNL1        0.0245
     18 C           4.3865    0.3630   33.9377 C.3     1  UNL1        0.1078
     19 C           5.3450    0.9475   32.9430 C.3     1  UNL1        0.1162
     20 C           7.5668    0.4742   28.6163 C.2     1  UNL1        0.0048
     21 C           7.9759    0.4970   30.0593 C.2     1  UNL1        0.0579
     22 N           1.6470    1.9488   33.1441 N.am    1  UNL1       -0.2518
     23 C           2.0525    2.7643   31.9523 C.2     1  UNL1        0.2516
     24 O           3.2110    3.7120   32.0511 O.2     1  UNL1       -0.2697
     25 H           0.8866    1.3268   33.0793 H       1  UNL1        0.1580
     26 C           1.2995    2.6321   30.6618 C.ar    1  UNL1        0.0537
     27 C           1.2650    3.7769   29.6930 C.ar    1  UNL1        0.0045
     28 C           0.5121    3.6447   28.4024 C.ar    1  UNL1        0.0001
     29 C          -0.2064    2.3678   28.0806 C.ar    1  UNL1        0.0039
     30 C          -0.1718    1.2232   29.0494 C.ar    1  UNL1        0.0716
     31 C           0.5811    1.3553   30.3399 C.ar    1  UNL1        0.0084
     32 C          -0.8902   -0.0536   28.7275 C.3     1  UNL1        0.4186
     33 F          -1.6086   -1.3305   28.4057 F       1  UNL1       -0.1659
     34 F          -2.2002    0.6022   29.0497 F       1  UNL1       -0.1659
     35 F           0.4197   -0.7095   28.4054 F       1  UNL1       -0.1659
@<TRIPOS>BOND
     1    20    21    2
     2    21    11    1
     3    11    12    2
     4    11    13   am
     5    13    14    1
     6    14    15    1
     7    15    16    1
     8    16    17    1
     9    17    18    1
    10    18     1    1
    11     1     2   ar
    12     2    22    1
    13    22    23   am
    14    23    24    2
    15    23    26    1
    16    26    27   ar
    17    27    28   ar
    18    28    29   ar
    19    29    30   ar
    20    30    32    1
    21    32    33    1
    22    32    34    1
    23    32    35    1
    24    30    31   ar
    25     2     3   ar
    26     3     4   ar
    27     4     5   ar
    28     5     6   ar
    29     6     7   ar
    30     7     8   ar
    31     8     9    1
    32     8    10   ar
    33    18    19    1
    34    19    13    1
    35    10     1   ar
    36    31    26   ar
    37    10     4   ar
    38    22    25    1
@<TRIPOS>MOLECULE
*****
 35 38 0 0 0
SMALL
GASTEIGER

@<TRIPOS>ATOM
      1 N           4.5234   -0.5371   31.7820 N.ar    1  UNL1       -0.2999
      2 C           4.3276   -0.7701   33.2508 C.ar    1  UNL1        0.2039
      3 N           5.0261   -2.0467   33.6147 N.ar    1  UNL1       -0.2135
      4 C           5.6535   -2.6027   32.3708 C.ar    1  UNL1        0.0996
      5 C           6.4675   -3.8380   32.1232 C.ar    1  UNL1        0.0206
      6 C           6.9709   -4.1403   30.7430 C.ar    1  UNL1        0.0013
      7 C           6.6602   -3.2073   29.6103 C.ar    1  UNL1       -0.0027
      8 C           5.8462   -1.9720   29.8578 C.ar    1  UNL1       -0.0045
      9 C           5.5355   -1.0390   28.7251 C.3     1  UNL1        0.0326
     10 C           5.3428   -1.6697   31.2381 C.ar    1  UNL1        0.0758
     11 C           0.5099    0.8921   29.0736 C.2     1  UNL1        0.2492
     12 O           0.0503   -0.4870   29.4436 O.2     1  UNL1       -0.2699
     13 N           1.8440    1.3898   29.5450 N.am    1  UNL1       -0.2742
     14 C           2.2071    2.7816   29.1194 C.3     1  UNL1        0.0938
     15 C           3.4545    3.5572   29.4234 C.3     1  UNL1        0.0216
     16 C           4.6470    3.1324   30.2282 C.3     1  UNL1        0.0037
     17 C           4.8866    1.8274   30.9276 C.3     1  UNL1        0.0245
     18 C           3.9929    0.6245   30.9951 C.3     1  UNL1        0.1078
     19 C           2.6389    0.4298   30.3798 C.3     1  UNL1        0.1162
     20 C          -0.4736    1.5323   26.7556 C.2     1  UNL1        0.0048
     21 C          -0.3647    1.7736   28.2321 C.2     1  UNL1        0.0579
     22 N           3.5670    0.1177   34.1906 N.am    1  UNL1       -0.2518
     23 C           4.2942    1.1472   35.0037 C.2     1  UNL1        0.2516
     24 O           5.7822    1.2891   34.8769 O.2     1  UNL1       -0.2697
     25 H           2.5905    0.0246   34.2739 H       1  UNL1        0.1580
     26 C           3.5336    2.0350   35.9436 C.ar    1  UNL1        0.0537
     27 C           3.4939    3.5161   35.7094 C.ar    1  UNL1        0.0045
     28 C           2.7332    4.4038   36.6492 C.ar    1  UNL1        0.0001
     29 C           2.0124    3.8105   37.8233 C.ar    1  UNL1        0.0039
     30 C           2.0522    2.3294   38.0574 C.ar    1  UNL1        0.0716
     31 C           2.8128    1.4417   37.1176 C.ar    1  UNL1        0.0084
     32 C           1.3313    1.7361   39.2315 C.3     1  UNL1        0.4186
     33 F           0.6105    1.1428   40.4056 F       1  UNL1       -0.1659
     34 F           0.2565    2.7736   39.0958 F       1  UNL1       -0.1659
     35 F           2.4062    0.6987   39.3671 F       1  UNL1       -0.1659
@<TRIPOS>BOND
     1    20    21    2
     2    21    11    1
     3    11    12    2
     4    11    13   am
     5    13    14    1
     6    14    15    1
     7    15    16    1
     8    16    17    1
     9    17    18    1
    10    18     1    1
    11     1     2   ar
    12     2    22    1
    13    22    23   am
    14    23    24    2
    15    23    26    1
    16    26    27   ar
    17    27    28   ar
    18    28    29   ar
    19    29    30   ar
    20    30    32    1
    21    32    33    1
    22    32    34    1
    23    32    35    1
    24    30    31   ar
    25     2     3   ar
    26     3     4   ar
    27     4     5   ar
    28     5     6   ar
    29     6     7   ar
    30     7     8   ar
    31     8     9    1
    32     8    10   ar
    33    18    19    1
    34    19    13    1
    35    10     1   ar
    36    31    26   ar
    37    10     4   ar
    38    22    25    1
@<TRIPOS>MOLECULE
*****
 35 38 0 0 0
SMALL
GASTEIGER

@<TRIPOS>ATOM
      1 N           4.0216    1.8506   34.7977 N.ar    1  UNL1       -0.2999
      2 C           2.5701    2.1341   34.5472 C.ar    1  UNL1        0.2039
      3 N           1.9656    2.6244   35.8294 N.ar    1  UNL1       -0.2135
      4 C           3.0434    2.6439   36.8724 C.ar    1  UNL1        0.0996
      5 C           3.0320    3.0354   38.3204 C.ar    1  UNL1        0.0206
      6 C           4.2913    2.9485   39.1307 C.ar    1  UNL1        0.0013
      7 C           5.5620    2.4703   38.4930 C.ar    1  UNL1       -0.0027
      8 C           5.5734    2.0789   37.0451 C.ar    1  UNL1       -0.0045
      9 C           6.8441    1.6006   36.4074 C.3     1  UNL1        0.0326
     10 C           4.3141    2.1657   36.2348 C.ar    1  UNL1        0.0758
     11 C           5.3661   -2.3688   32.3738 C.2     1  UNL1        0.2492
     12 O           4.2383   -2.9289   33.1889 O.2     1  UNL1       -0.2699
     13 N           5.7274   -0.9176   32.4906 N.am    1  UNL1       -0.2742
     14 C           6.8695   -0.4601   31.6326 C.3     1  UNL1        0.0938
     15 C           7.4651    0.9122   31.5220 C.3     1  UNL1        0.0216
     16 C           7.0655    2.1658   32.2423 C.3     1  UNL1        0.0037
     17 C           5.9719    2.3569   33.2508 C.3     1  UNL1        0.0245
     18 C           5.0075    1.3414   33.7884 C.3     1  UNL1        0.1078
     19 C           4.8987   -0.1158   33.4500 C.3     1  UNL1        0.1162
     20 C           6.8390   -4.4714   31.9741 C.2     1  UNL1        0.0048
     21 C           6.1327   -3.2598   31.4419 C.2     1  UNL1        0.0579
     22 N           1.8496    1.9582   33.2433 N.am    1  UNL1       -0.2518
     23 C           2.0715    2.9343   32.1262 C.2     1  UNL1        0.2516
     24 O           3.0138    4.0864   32.3129 O.2     1  UNL1       -0.2697
     25 H           1.2311    1.2021   33.1208 H       1  UNL1        0.1580
     26 C           1.3510    2.7584   30.8224 C.ar    1  UNL1        0.0537
     27 C           1.3311    3.8742   29.8200 C.ar    1  UNL1        0.0045
     28 C           0.6107    3.6984   28.5162 C.ar    1  UNL1        0.0001
     29 C          -0.0899    2.4067   28.2147 C.ar    1  UNL1        0.0039
     30 C          -0.0700    1.2910   29.2171 C.ar    1  UNL1        0.0716
     31 C           0.6504    1.4669   30.5209 C.ar    1  UNL1        0.0084
     32 C          -0.7706   -0.0006   28.9156 C.3     1  UNL1        0.4186
     33 F          -1.4712   -1.2923   28.6141 F       1  UNL1       -0.1659
     34 F           0.5407   -0.6240   28.5389 F       1  UNL1       -0.1659
     35 F          -2.0819    0.6227   29.2922 F       1  UNL1       -0.1659
@<TRIPOS>BOND
     1    20    21    2
     2    21    11    1
     3    11    12    2
     4    11    13   am
     5    13    14    1
     6    14    15    1
     7    15    16    1
     8    16    17    1
     9    17    18    1
    10    18     1    1
    11     1     2   ar
    12     2    22    1
    13    22    23   am
    14    23    24    2
    15    23    26    1
    16    26    27   ar
    17    27    28   ar
    18    28    29   ar
    19    29    30   ar
    20    30    32    1
    21    32    33    1
    22    32    34    1
    23    32    35    1
    24    30    31   ar
    25     2     3   ar
    26     3     4   ar
    27     4     5   ar
    28     5     6   ar
    29     6     7   ar
    30     7     8   ar
    31     8     9    1
    32     8    10   ar
    33    18    19    1
    34    19    13    1
    35    10     1   ar
    36    31    26   ar
    37    10     4   ar
    38    22    25    1
@<TRIPOS>MOLECULE
*****
 35 38 0 0 0
SMALL
GASTEIGER

@<TRIPOS>ATOM
      1 N           5.0205   -1.5266   28.4699 N.ar    1  UNL1       -0.2999
      2 C           3.8701   -1.4993   27.5077 C.ar    1  UNL1        0.2039
      3 N           2.7070   -0.8466   28.1943 N.ar    1  UNL1       -0.2135
      4 C           3.1386   -0.4706   29.5807 C.ar    1  UNL1        0.0996
      5 C           2.4144    0.2002   30.7101 C.ar    1  UNL1        0.0206
      6 C           3.1200    0.4508   32.0098 C.ar    1  UNL1        0.0013
      7 C           4.5499    0.0306   32.1801 C.ar    1  UNL1       -0.0027
      8 C           5.2741   -0.6402   31.0508 C.ar    1  UNL1       -0.0045
      9 C           6.7039   -1.0604   31.2211 C.3     1  UNL1        0.0326
     10 C           4.5685   -0.8908   29.7511 C.ar    1  UNL1        0.0758
     11 C           7.9108   -5.5348   29.5025 C.2     1  UNL1        0.2492
     12 O           6.6857   -5.9395   30.2675 O.2     1  UNL1       -0.2699
     13 N           7.9312   -4.2366   28.7513 N.am    1  UNL1       -0.2742
     14 C           9.2040   -3.9275   28.0202 C.3     1  UNL1        0.0938
     15 C           9.5360   -2.7246   27.1878 C.3     1  UNL1        0.0216
     16 C           8.6771   -1.5337   26.8810 C.3     1  UNL1        0.0037
     17 C           7.2743   -1.2515   27.3308 C.3     1  UNL1        0.0245
     18 C           6.3837   -2.0906   28.1985 C.3     1  UNL1        0.1078
     19 C           6.6761   -3.4190   28.8306 C.3     1  UNL1        0.1162
     20 C           9.1163   -7.6733   28.6518 C.2     1  UNL1        0.0048
     21 C           9.1156   -6.4283   29.4885 C.2     1  UNL1        0.0579
     22 N           3.8808   -2.0312   26.1052 N.am    1  UNL1       -0.2518
     23 C           3.9211   -1.0830   24.9437 C.2     1  UNL1        0.2516
     24 O           3.9507    0.3973   25.1846 O.2     1  UNL1       -0.2697
     25 H           3.8614   -3.0028   25.9471 H       1  UNL1        0.1580
     26 C           3.9319   -1.6150   23.5412 C.ar    1  UNL1        0.0537
     27 C           4.6971   -2.8642   23.2188 C.ar    1  UNL1        0.0045
     28 C           4.7078   -3.3961   21.8163 C.ar    1  UNL1        0.0001
     29 C           3.9533   -2.6789   20.7363 C.ar    1  UNL1        0.0039
     30 C           3.1882   -1.4297   21.0588 C.ar    1  UNL1        0.0716
     31 C           3.1774   -0.8977   22.4613 C.ar    1  UNL1        0.0084
     32 C           2.4337   -0.7125   19.9788 C.3     1  UNL1        0.4186
     33 F           1.6792    0.0047   18.8988 F       1  UNL1       -0.1659
     34 F           3.7079   -0.5330   19.2079 F       1  UNL1       -0.1659
     35 F           1.1596   -0.8919   20.7497 F       1  UNL1       -0.1659
@<TRIPOS>BOND
     1    20    21    2
     2    21    11    1
     3    11    12    2
     4    11    13   am
     5    13    14    1
     6    14    15    1
     7    15    16    1
     8    16    17    1
     9    17    18    1
    10    18     1    1
    11     1     2   ar
    12     2    22    1
    13    22    23   am
    14    23    24    2
    15    23    26    1
    16    26    27   ar
    17    27    28   ar
    18    28    29   ar
    19    29    30   ar
    20    30    32    1
    21    32    33    1
    22    32    34    1
    23    32    35    1
    24    30    31   ar
    25     2     3   ar
    26     3     4   ar
    27     4     5   ar
    28     5     6   ar
    29     6     7   ar
    30     7     8   ar
    31     8     9    1
    32     8    10   ar
    33    18    19    1
    34    19    13    1
    35    10     1   ar
    36    31    26   ar
    37    10     4   ar
    38    22    25    1
@<TRIPOS>MOLECULE
*****
 35 38 0 0 0
SMALL
GASTEIGER

@<TRIPOS>ATOM
      1 N           4.4036    1.3074   34.7688 N.ar    1  UNL1       -0.2999
      2 C           5.2975    0.1623   35.1426 C.ar    1  UNL1        0.2039
      3 N           5.0964   -0.1258   36.6009 N.ar    1  UNL1       -0.2135
      4 C           4.0782    0.8412   37.1283 C.ar    1  UNL1        0.0996
      5 C           3.4857    1.0296   38.4934 C.ar    1  UNL1        0.0206
      6 C           2.4649    2.1038   38.7261 C.ar    1  UNL1        0.0013
      7 C           2.0367    2.9895   37.5938 C.ar    1  UNL1       -0.0027
      8 C           2.6293    2.8011   36.2288 C.ar    1  UNL1       -0.0045
      9 C           2.2010    3.6869   35.0965 C.3     1  UNL1        0.0326
     10 C           3.6500    1.7270   35.9960 C.ar    1  UNL1        0.0758
     11 C           2.5168    0.3985   30.1753 C.2     1  UNL1        0.2492
     12 O           2.0947   -0.8748   30.8463 O.2     1  UNL1       -0.2699
     13 N           3.2740    1.4380   30.9474 N.am    1  UNL1       -0.2742
     14 C           3.6478    2.6731   30.1827 C.3     1  UNL1        0.0938
     15 C           4.3972    3.8801   30.6640 C.3     1  UNL1        0.0216
     16 C           4.9578    4.1501   32.0289 C.3     1  UNL1        0.0037
     17 C           4.9075    3.2798   33.2495 C.3     1  UNL1        0.0245
     18 C           4.2841    1.9245   33.4069 C.3     1  UNL1        0.1078
     19 C           3.5572    1.1049   32.3823 C.3     1  UNL1        0.1162
     20 C           0.7718    0.9513   28.3315 C.2     1  UNL1        0.0048
     21 C           2.1818    0.6326   28.7320 C.2     1  UNL1        0.0579
     22 N           6.2290   -0.5666   34.2201 N.am    1  UNL1       -0.2518
     23 C           5.7292   -1.7291   33.4146 C.2     1  UNL1        0.2516
     24 O           4.2980   -2.1627   33.5316 O.2     1  UNL1       -0.2697
     25 H           7.1683   -0.2821   34.1433 H       1  UNL1        0.1580
     26 C           6.6607   -2.4581   32.4921 C.ar    1  UNL1        0.0537
     27 C           8.1426   -2.3893   32.7145 C.ar    1  UNL1        0.0045
     28 C           9.0740   -3.1183   31.7920 C.ar    1  UNL1        0.0001
     29 C           8.5236   -3.9160   30.6471 C.ar    1  UNL1        0.0039
     30 C           7.0418   -3.9847   30.4247 C.ar    1  UNL1        0.0716
     31 C           6.1103   -3.2558   31.3472 C.ar    1  UNL1        0.0084
     32 C           6.4914   -4.7824   29.2799 C.3     1  UNL1        0.4186
     33 F           5.9411   -5.5802   28.1350 F       1  UNL1       -0.1659
     34 F           6.1319   -3.5122   28.5677 F       1  UNL1       -0.1659
     35 F           6.8510   -6.0526   29.9920 F       1  UNL1       -0.1659
@<TRIPOS>BOND
     1    20    21    2
     2    21    11    1
     3    11    12    2
     4    11    13   am
     5    13    14    1
     6    14    15    1
     7    15    16    1
     8    16    17    1
     9    17    18    1
    10    18     1    1
    11     1     2   ar
    12     2    22    1
    13    22    23   am
    14    23    24    2
    15    23    26    1
    16    26    27   ar
    17    27    28   ar
    18    28    29   ar
    19    29    30   ar
    20    30    32    1
    21    32    33    1
    22    32    34    1
    23    32    35    1
    24    30    31   ar
    25     2     3   ar
    26     3     4   ar
    27     4     5   ar
    28     5     6   ar
    29     6     7   ar
    30     7     8   ar
    31     8     9    1
    32     8    10   ar
    33    18    19    1
    34    19    13    1
    35    10     1   ar
    36    31    26   ar
    37    10     4   ar
    38    22    25    1
@<TRIPOS>MOLECULE
*****
 35 38 0 0 0
SMALL
GASTEIGER

@<TRIPOS>ATOM
      1 N           3.2381   -0.5171   28.3544 N.ar    1  UNL1       -0.2999
      2 C           3.9873   -1.3580   27.3637 C.ar    1  UNL1        0.2039
      3 N           5.2140   -1.8914   28.0425 N.ar    1  UNL1       -0.2135
      4 C           5.2229   -1.3802   29.4527 C.ar    1  UNL1        0.0996
      5 C           6.1852   -1.5784   30.5861 C.ar    1  UNL1        0.0206
      6 C           5.9264   -0.9272   31.9122 C.ar    1  UNL1        0.0013
      7 C           4.7052   -0.0778   32.1051 C.ar    1  UNL1       -0.0027
      8 C           3.7429    0.1204   30.9717 C.ar    1  UNL1       -0.0045
      9 C           2.5217    0.9699   31.1645 C.3     1  UNL1        0.0326
     10 C           4.0017   -0.5308   29.6455 C.ar    1  UNL1        0.0758
     11 C           1.3951    3.5164   25.9418 C.2     1  UNL1        0.2492
     12 O           2.8388    3.6708   25.5649 O.2     1  UNL1       -0.2699
     13 N           0.9644    2.3695   26.8073 N.am    1  UNL1       -0.2742
     14 C          -0.5003    2.3078   27.1248 C.3     1  UNL1        0.0938
     15 C          -1.2358    1.2973   27.9542 C.3     1  UNL1        0.0216
     16 C          -0.6881    0.0989   28.6711 C.3     1  UNL1        0.0037
     17 C           0.7301   -0.3850   28.7355 C.3     1  UNL1        0.0245
     18 C           1.9512    0.2100   28.0990 C.3     1  UNL1        0.1078
     19 C           2.0554    1.4358   27.2409 C.3     1  UNL1        0.1162
     20 C           0.0250    4.5612   23.9973 C.2     1  UNL1        0.0048
     21 C           0.3821    4.5089   25.4533 C.2     1  UNL1        0.0579
     22 N           3.5812   -1.6196   25.9437 N.am    1  UNL1       -0.2518
     23 C           4.0602   -0.7143   24.8477 C.2     1  UNL1        0.2516
     24 O           4.9453    0.4526   25.1719 O.2     1  UNL1       -0.2697
     25 H           3.0003   -2.3854   25.7309 H       1  UNL1        0.1580
     26 C           3.6540   -0.9759   23.4277 C.ar    1  UNL1        0.0537
     27 C           4.4250   -1.9576   22.5958 C.ar    1  UNL1        0.0045
     28 C           4.0188   -2.2192   21.1757 C.ar    1  UNL1        0.0001
     29 C           2.8418   -1.4990   20.5875 C.ar    1  UNL1        0.0039
     30 C           2.0709   -0.5173   21.4193 C.ar    1  UNL1        0.0716
     31 C           2.4770   -0.2557   22.8394 C.ar    1  UNL1        0.0084
     32 C           0.8939    0.2028   20.8311 C.3     1  UNL1        0.4186
     33 F          -0.2832    0.9230   20.2429 F       1  UNL1       -0.1659
     34 F           1.2119   -0.3772   19.4849 F       1  UNL1       -0.1659
     35 F           0.5759    0.7828   22.1774 F       1  UNL1       -0.1659
@<TRIPOS>BOND
     1    20    21    2
     2    21    11    1
     3    11    12    2
     4    11    13   am
     5    13    14    1
     6    14    15    1
     7    15    16    1
     8    16    17    1
     9    17    18    1
    10    18     1    1
    11     1     2   ar
    12     2    22    1
    13    22    23   am
    14    23    24    2
    15    23    26    1
    16    26    27   ar
    17    27    28   ar
    18    28    29   ar
    19    29    30   ar
    20    30    32    1
    21    32    33    1
    22    32    34    1
    23    32    35    1
    24    30    31   ar
    25     2     3   ar
    26     3     4   ar
    27     4     5   ar
    28     5     6   ar
    29     6     7   ar
    30     7     8   ar
    31     8     9    1
    32     8    10   ar
    33    18    19    1
    34    19    13    1
    35    10     1   ar
    36    31    26   ar
    37    10     4   ar
    38    22    25    1
@<TRIPOS>MOLECULE
*****
 35 38 0 0 0
SMALL
GASTEIGER

@<TRIPOS>ATOM
      1 N           3.3459   -0.6121   28.1885 N.ar    1  UNL1       -0.2999
      2 C           4.0224   -1.4347   27.1323 C.ar    1  UNL1        0.2039
      3 N           5.2700   -2.0175   27.7271 N.ar    1  UNL1       -0.2135
      4 C           5.3646   -1.5551   29.1509 C.ar    1  UNL1        0.0996
      5 C           6.3798   -1.8128   30.2245 C.ar    1  UNL1        0.0206
      6 C           6.2059   -1.2018   31.5834 C.ar    1  UNL1        0.0013
      7 C           5.0167   -0.3332   31.8686 C.ar    1  UNL1       -0.0027
      8 C           4.0014   -0.0756   30.7949 C.ar    1  UNL1       -0.0045
      9 C           2.8122    0.7930   31.0801 C.3     1  UNL1        0.0326
     10 C           4.1754   -0.6865   29.4361 C.ar    1  UNL1        0.0758
     11 C           1.4813    3.5582   26.0393 C.2     1  UNL1        0.2492
     12 O           2.9088    3.6997   25.6008 O.2     1  UNL1       -0.2699
     13 N           1.0664    2.3837   26.8751 N.am    1  UNL1       -0.2742
     14 C          -0.3828    2.3378   27.2593 C.3     1  UNL1        0.0938
     15 C          -1.1008    1.3073   28.0795 C.3     1  UNL1        0.0216
     16 C          -0.5467    0.0682   28.7180 C.3     1  UNL1        0.0037
     17 C           0.8620   -0.4464   28.6941 C.3     1  UNL1        0.0245
     18 C           2.0648    0.1510   28.0258 C.3     1  UNL1        0.1078
     19 C           2.1557    1.4105   27.2163 C.3     1  UNL1        0.1162
     20 C           0.4107    5.9025   26.3680 C.2     1  UNL1        0.0048
     21 C           0.4687    4.5910   25.6422 C.2     1  UNL1        0.0579
     22 N           3.5366   -1.6386   25.7278 N.am    1  UNL1       -0.2518
     23 C           4.3407   -1.1190   24.5732 C.2     1  UNL1        0.2516
     24 O           5.6307   -0.3953   24.8229 O.2     1  UNL1       -0.2697
     25 H           2.6900   -2.1136   25.5639 H       1  UNL1        0.1580
     26 C           3.8550   -1.3229   23.1688 C.ar    1  UNL1        0.0537
     27 C           2.8602   -0.3709   22.5735 C.ar    1  UNL1        0.0045
     28 C           2.3744   -0.5748   21.1691 C.ar    1  UNL1        0.0001
     29 C           2.8834   -1.7308   20.3599 C.ar    1  UNL1        0.0039
     30 C           3.8781   -2.6828   20.9551 C.ar    1  UNL1        0.0716
     31 C           4.3638   -2.4788   22.3596 C.ar    1  UNL1        0.0084
     32 C           4.3869   -3.8387   20.1459 C.3     1  UNL1        0.4186
     33 F           4.8958   -4.9947   19.3367 F       1  UNL1       -0.1659
     34 F           5.5995   -3.9204   21.0251 F       1  UNL1       -0.1659
     35 F           3.1744   -3.7570   19.2667 F       1  UNL1       -0.1659
@<TRIPOS>BOND
     1    20    21    2
     2    21    11    1
     3    11    12    2
     4    11    13   am
     5    13    14    1
     6    14    15    1
     7    15    16    1
     8    16    17    1
     9    17    18    1
    10    18     1    1
    11     1     2   ar
    12     2    22    1
    13    22    23   am
    14    23    24    2
    15    23    26    1
    16    26    27   ar
    17    27    28   ar
    18    28    29   ar
    19    29    30   ar
    20    30    32    1
    21    32    33    1
    22    32    34    1
    23    32    35    1
    24    30    31   ar
    25     2     3   ar
    26     3     4   ar
    27     4     5   ar
    28     5     6   ar
    29     6     7   ar
    30     7     8   ar
    31     8     9    1
    32     8    10   ar
    33    18    19    1
    34    19    13    1
    35    10     1   ar
    36    31    26   ar
    37    10     4   ar
    38    22    25    1
