@<TRIPOS>MOLECULE
*****
 36 39 0 0 0
SMALL
GASTEIGER

@<TRIPOS>ATOM
      1 C         -11.0855  -17.7188   20.2103 C.3     1  UNL1        0.0793
      2 C         -10.8798  -16.5941   19.2394 C.3     1  UNL1        0.0518
      3 C         -11.9006  -15.5003   19.1317 C.3     1  UNL1        0.1439
      4 O         -13.1270  -15.5313   19.9947 O.3     1  UNL1       -0.3536
      5 C         -13.3327  -16.6561   20.9656 C.3     1  UNL1        0.1451
      6 C         -12.3119  -17.7498   21.0733 C.3     1  UNL1        0.0637
      7 N          -7.6500  -19.5893   20.8804 N.am    1  UNL1       -0.2485
      8 C          -8.6708  -18.4955   20.7725 C.2     1  UNL1        0.3058
      9 O          -8.2977  -17.0846   21.1192 O.2     1  UNL1       -0.2524
     10 N         -10.0647  -18.8127   20.3181 N.am    1  UNL1       -0.2901
     11 H          -7.8948  -20.5153   20.6529 H       1  UNL1        0.1583
     12 H         -10.3095  -19.7387   20.0906 H       1  UNL1        0.1509
     13 C          -3.8364  -19.0991   21.4114 C.ar    1  UNL1        0.0803
     14 S          -4.9923  -19.5954   20.5943 S.2     1  UNL1       -0.0488
     15 C          -6.2561  -19.2722   21.3348 C.ar    1  UNL1        0.1664
     16 N          -5.8813  -18.5761   22.6096 N.ar    1  UNL1       -0.2282
     17 C          -4.3858  -18.4692   22.6569 C.ar    1  UNL1        0.0701
     18 C          -3.5811  -17.8423   23.7567 C.3     1  UNL1        0.0528
     19 C          -1.7179  -18.1134   20.2756 C.3     1  UNL1        0.0779
     20 C          -2.3858  -19.2128   21.0470 C.2     1  UNL1        0.1807
     21 O          -1.6032  -20.4259   21.4539 O.2     1  UNL1       -0.2908
     22 C         -12.5175  -18.8747   22.0442 C.3     1  UNL1        0.0762
     23 N         -11.4694  -19.1780   23.0735 N.3     1  UNL1       -0.2725
     24 C         -10.7614  -20.5004   23.0558 C.3     1  UNL1        0.0721
     25 C          -9.7133  -20.8037   24.0850 C.3     1  UNL1        0.0174
     26 C          -9.3731  -19.7848   25.1320 C.3     1  UNL1        0.0031
     27 C         -10.0812  -18.4625   25.1497 C.3     1  UNL1        0.0204
     28 C         -11.1293  -18.1592   24.1204 C.3     1  UNL1        0.0724
     29 C          -9.7411  -17.4436   26.1967 C.3     1  UNL1        0.0277
     30 C          -8.4601  -16.6690   26.1012 C.ar    1  UNL1       -0.0220
     31 C          -7.7238  -16.2804   27.3491 C.ar    1  UNL1       -0.0020
     32 C          -6.4428  -15.5058   27.2536 C.ar    1  UNL1        0.0293
     33 C          -5.8981  -15.1198   25.9103 C.ar    1  UNL1        0.1401
     34 F          -4.6171  -14.3453   25.8149 F       1  UNL1       -0.2042
     35 C          -6.6343  -15.5084   24.6626 C.ar    1  UNL1        0.0293
     36 C          -7.9153  -16.2830   24.7580 C.ar    1  UNL1       -0.0020
@<TRIPOS>BOND
     1    19    20    1
     2    20    21    2
     3    20    13    1
     4    13    14   ar
     5    14    15   ar
     6    15     7    1
     7     7     8   am
     8     8     9    2
     9     8    10   am
    10     1    10    1
    11     1     2    1
    12     2     3    1
    13     3     4    1
    14     4     5    1
    15     5     6    1
    16     6    22    1
    17    22    23    1
    18    23    24    1
    19    24    25    1
    20    25    26    1
    21    26    27    1
    22    27    29    1
    23    29    30    1
    24    30    31   ar
    25    31    32   ar
    26    32    33   ar
    27    33    34    1
    28    33    35   ar
    29    35    36   ar
    30    27    28    1
    31    15    16   ar
    32    16    17   ar
    33    17    18    1
    34    17    13   ar
    35     6     1    1
    36    28    23    1
    37    36    30   ar
    38     7    11    1
    39    10    12    1
@<TRIPOS>MOLECULE
*****
 36 39 0 0 0
SMALL
GASTEIGER

@<TRIPOS>ATOM
      1 C          -1.6144  -16.7004   20.7141 C.3     1  UNL1        0.0793
      2 C          -0.1557  -16.7801   21.0543 C.3     1  UNL1        0.0518
      3 C           0.6950  -17.8630   20.4597 C.3     1  UNL1        0.1439
      4 O           0.0870  -18.8662   19.5249 O.3     1  UNL1       -0.3536
      5 C          -1.3717  -18.7865   19.1847 C.3     1  UNL1        0.1451
      6 C          -2.2224  -17.7036   19.7793 C.3     1  UNL1        0.0637
      7 N          -4.3676  -14.8781   22.9161 N.am    1  UNL1       -0.2485
      8 C          -3.5169  -15.9610   22.3215 C.2     1  UNL1        0.3058
      9 O          -3.7180  -17.3875   22.7397 O.2     1  UNL1       -0.2524
     10 N          -2.4651  -15.6174   21.3087 N.am    1  UNL1       -0.2901
     11 H          -4.2357  -13.9419   22.6417 H       1  UNL1        0.1583
     12 H          -2.3331  -14.6812   21.0343 H       1  UNL1        0.1509
     13 C          -7.4852  -15.9985   24.9388 C.ar    1  UNL1        0.0803
     14 S          -6.7612  -15.8252   23.6366 S.2     1  UNL1       -0.0488
     15 C          -5.4194  -15.2217   23.9289 C.ar    1  UNL1        0.1664
     16 N          -5.3142  -15.0220   25.4118 N.ar    1  UNL1       -0.2282
     17 C          -6.5908  -15.5021   26.0360 C.ar    1  UNL1        0.0701
     18 C          -6.9161  -15.4883   27.5003 C.3     1  UNL1        0.0528
     19 C          -9.9345  -16.2572   24.1121 C.3     1  UNL1        0.0779
     20 C          -8.8618  -16.5682   25.1133 C.2     1  UNL1        0.1807
     21 O          -9.1656  -17.4489   26.2888 O.2     1  UNL1       -0.2908
     22 C          -3.6812  -17.6238   19.4391 C.3     1  UNL1        0.0762
     23 N          -4.5794  -18.7943   19.7094 N.3     1  UNL1       -0.2725
     24 C          -3.9882  -20.1406   20.0061 C.3     1  UNL1        0.0721
     25 C          -4.8864  -21.3112   20.2764 C.3     1  UNL1        0.0174
     26 C          -6.3759  -21.1354   20.2500 C.3     1  UNL1        0.0031
     27 C          -6.9671  -19.7891   19.9533 C.3     1  UNL1        0.0204
     28 C          -6.0688  -18.6186   19.6830 C.3     1  UNL1        0.0724
     29 C          -8.4566  -19.6133   19.9269 C.3     1  UNL1        0.0277
     30 C          -9.2338  -19.6069   21.2098 C.ar    1  UNL1       -0.0220
     31 C         -10.7008  -19.2940   21.1964 C.ar    1  UNL1       -0.0020
     32 C         -11.4781  -19.2876   22.4793 C.ar    1  UNL1        0.0293
     33 C         -10.7884  -19.5941   23.7756 C.ar    1  UNL1        0.1401
     34 F         -11.5656  -19.5877   25.0585 F       1  UNL1       -0.2042
     35 C          -9.3215  -19.9070   23.7890 C.ar    1  UNL1        0.0293
     36 C          -8.5442  -19.9134   22.5061 C.ar    1  UNL1       -0.0020
@<TRIPOS>BOND
     1    19    20    1
     2    20    21    2
     3    20    13    1
     4    13    14   ar
     5    14    15   ar
     6    15     7    1
     7     7     8   am
     8     8     9    2
     9     8    10   am
    10     1    10    1
    11     1     2    1
    12     2     3    1
    13     3     4    1
    14     4     5    1
    15     5     6    1
    16     6    22    1
    17    22    23    1
    18    23    24    1
    19    24    25    1
    20    25    26    1
    21    26    27    1
    22    27    29    1
    23    29    30    1
    24    30    31   ar
    25    31    32   ar
    26    32    33   ar
    27    33    34    1
    28    33    35   ar
    29    35    36   ar
    30    27    28    1
    31    15    16   ar
    32    16    17   ar
    33    17    18    1
    34    17    13   ar
    35     6     1    1
    36    28    23    1
    37    36    30   ar
    38     7    11    1
    39    10    12    1
@<TRIPOS>MOLECULE
*****
 36 39 0 0 0
SMALL
GASTEIGER

@<TRIPOS>ATOM
      1 C          -3.2269    3.3728   20.0382 C.3     1  UNL1        0.0793
      2 C          -3.7923    3.7275   18.6949 C.3     1  UNL1        0.0518
      3 C          -2.8844    4.2099   17.6027 C.3     1  UNL1        0.1439
      4 O          -1.4111    4.3376   17.8537 O.3     1  UNL1       -0.3536
      5 C          -0.8457    3.9828   19.1970 C.3     1  UNL1        0.1451
      6 C          -1.7536    3.5004   20.2892 C.3     1  UNL1        0.0637
      7 N          -5.5955    3.3800   23.2225 N.am    1  UNL1       -0.2485
      8 C          -4.6876    3.8624   22.1302 C.2     1  UNL1        0.3058
      9 O          -4.3326    5.3169   22.0376 O.2     1  UNL1       -0.2524
     10 N          -4.1348    2.8903   21.1305 N.am    1  UNL1       -0.2901
     11 H          -5.8285    2.4254   23.2832 H       1  UNL1        0.1583
     12 H          -4.3678    1.9357   21.1912 H       1  UNL1        0.1509
     13 C          -6.4397    5.6816   26.2318 C.ar    1  UNL1        0.0803
     14 S          -5.5682    4.6543   25.5721 S.2     1  UNL1       -0.0488
     15 C          -6.1483    4.3521   24.2222 C.ar    1  UNL1        0.1664
     16 N          -7.3784    5.1926   24.0477 N.ar    1  UNL1       -0.2282
     17 C          -7.5585    6.0143   25.2896 C.ar    1  UNL1        0.0701
     18 C          -8.6633    6.9963   25.5446 C.3     1  UNL1        0.0528
     19 C          -5.0526    7.1665   27.8506 C.3     1  UNL1        0.0779
     20 C          -6.2294    6.2724   27.5944 C.2     1  UNL1        0.1807
     21 O          -7.1957    5.9691   28.7007 O.2     1  UNL1       -0.2908
     22 C          -1.1881    3.1456   21.6326 C.3     1  UNL1        0.0762
     23 N           0.0278    2.2725   21.7276 N.3     1  UNL1       -0.2725
     24 C           1.1147    2.6043   22.7067 C.3     1  UNL1        0.0721
     25 C           2.3307    1.7311   22.8018 C.3     1  UNL1        0.0174
     26 C           2.4597    0.5262   21.9177 C.3     1  UNL1        0.0031
     27 C           1.3729    0.1944   20.9386 C.3     1  UNL1        0.0204
     28 C           0.1569    1.0676   20.8436 C.3     1  UNL1        0.0724
     29 C           1.5019   -1.0105   20.0546 C.3     1  UNL1        0.0277
     30 C           2.8300   -1.3587   19.4505 C.ar    1  UNL1       -0.0220
     31 C           3.3791   -0.5372   18.3219 C.ar    1  UNL1       -0.0020
     32 C           4.7072   -0.8854   17.7178 C.ar    1  UNL1        0.0293
     33 C           5.4862   -2.0551   18.2423 C.ar    1  UNL1        0.1401
     34 F           6.8143   -2.4033   17.6382 F       1  UNL1       -0.2042
     35 C           4.9371   -2.8765   19.3708 C.ar    1  UNL1        0.0293
     36 C           3.6090   -2.5283   19.9749 C.ar    1  UNL1       -0.0020
@<TRIPOS>BOND
     1    19    20    1
     2    20    21    2
     3    20    13    1
     4    13    14   ar
     5    14    15   ar
     6    15     7    1
     7     7     8   am
     8     8     9    2
     9     8    10   am
    10     1    10    1
    11     1     2    1
    12     2     3    1
    13     3     4    1
    14     4     5    1
    15     5     6    1
    16     6    22    1
    17    22    23    1
    18    23    24    1
    19    24    25    1
    20    25    26    1
    21    26    27    1
    22    27    29    1
    23    29    30    1
    24    30    31   ar
    25    31    32   ar
    26    32    33   ar
    27    33    34    1
    28    33    35   ar
    29    35    36   ar
    30    27    28    1
    31    15    16   ar
    32    16    17   ar
    33    17    18    1
    34    17    13   ar
    35     6     1    1
    36    28    23    1
    37    36    30   ar
    38     7    11    1
    39    10    12    1
@<TRIPOS>MOLECULE
*****
 36 39 0 0 0
SMALL
GASTEIGER

@<TRIPOS>ATOM
      1 C           8.4076   -5.8908   27.1886 C.3     1  UNL1        0.0793
      2 C           8.3212   -7.2078   27.9013 C.3     1  UNL1        0.0518
      3 C           8.1005   -8.4697   27.1211 C.3     1  UNL1        0.1439
      4 O           7.9662   -8.4146   25.6281 O.3     1  UNL1       -0.3536
      5 C           8.0526   -7.0976   24.9154 C.3     1  UNL1        0.1451
      6 C           8.2733   -5.8357   25.6957 C.3     1  UNL1        0.0637
      7 N           7.7453   -2.8062   29.5963 N.am    1  UNL1       -0.2485
      8 C           7.5247   -4.0681   28.8160 C.2     1  UNL1        0.3058
      9 O           6.2004   -4.7694   28.8829 O.2     1  UNL1       -0.2524
     10 N           8.6283   -4.6288   27.9689 N.am    1  UNL1       -0.2901
     11 H           8.6145   -2.3459   29.5523 H       1  UNL1        0.1583
     12 H           9.4975   -4.1685   27.9249 H       1  UNL1        0.1509
     13 C           5.1446   -1.8363   32.3094 C.ar    1  UNL1        0.0803
     14 S           6.3186   -2.6499   31.8513 S.2     1  UNL1       -0.0488
     15 C           6.6417   -2.2455   30.4434 C.ar    1  UNL1        0.1664
     16 N           5.6675   -1.1819   30.0315 N.ar    1  UNL1       -0.2282
     17 C           4.7422   -0.9291   31.1848 C.ar    1  UNL1        0.0701
     18 C           3.6128    0.0578   31.2090 C.3     1  UNL1        0.0528
     19 C           4.7301   -0.8403   34.6729 C.3     1  UNL1        0.0779
     20 C           4.4883   -1.9160   33.6559 C.2     1  UNL1        0.1807
     21 O           3.5904   -3.0714   33.9853 O.2     1  UNL1       -0.2908
     22 C           8.3598   -4.5186   24.9829 C.3     1  UNL1        0.0762
     23 N           7.1061   -3.7919   24.5954 N.3     1  UNL1       -0.2725
     24 C           6.6298   -2.6289   25.4143 C.3     1  UNL1        0.0721
     25 C           5.3761   -1.9021   25.0268 C.3     1  UNL1        0.0174
     26 C           4.5988   -2.3384   23.8203 C.3     1  UNL1        0.0031
     27 C           5.0752   -3.5013   23.0014 C.3     1  UNL1        0.0204
     28 C           6.3288   -4.2281   23.3890 C.3     1  UNL1        0.0724
     29 C           4.2979   -3.9376   21.7949 C.3     1  UNL1        0.0277
     30 C           4.3668   -3.1368   20.5285 C.ar    1  UNL1       -0.0220
     31 C           5.3834   -3.4782   19.4796 C.ar    1  UNL1       -0.0020
     32 C           5.4524   -2.6774   18.2132 C.ar    1  UNL1        0.0293
     33 C           4.5048   -1.5351   17.9956 C.ar    1  UNL1        0.1401
     34 F           4.5737   -0.7343   16.7291 F       1  UNL1       -0.2042
     35 C           3.4883   -1.1937   19.0444 C.ar    1  UNL1        0.0293
     36 C           3.4193   -1.9945   20.3109 C.ar    1  UNL1       -0.0020
@<TRIPOS>BOND
     1    19    20    1
     2    20    21    2
     3    20    13    1
     4    13    14   ar
     5    14    15   ar
     6    15     7    1
     7     7     8   am
     8     8     9    2
     9     8    10   am
    10     1    10    1
    11     1     2    1
    12     2     3    1
    13     3     4    1
    14     4     5    1
    15     5     6    1
    16     6    22    1
    17    22    23    1
    18    23    24    1
    19    24    25    1
    20    25    26    1
    21    26    27    1
    22    27    29    1
    23    29    30    1
    24    30    31   ar
    25    31    32   ar
    26    32    33   ar
    27    33    34    1
    28    33    35   ar
    29    35    36   ar
    30    27    28    1
    31    15    16   ar
    32    16    17   ar
    33    17    18    1
    34    17    13   ar
    35     6     1    1
    36    28    23    1
    37    36    30   ar
    38     7    11    1
    39    10    12    1
@<TRIPOS>MOLECULE
*****
 36 39 0 0 0
SMALL
GASTEIGER

@<TRIPOS>ATOM
      1 C          -4.9574    5.0657   24.0931 C.3     1  UNL1        0.0793
      2 C          -5.6400    6.1666   24.8493 C.3     1  UNL1        0.0518
      3 C          -7.1268    6.3366   24.7472 C.3     1  UNL1        0.1439
      4 O          -7.9310    5.4056   23.8889 O.3     1  UNL1       -0.3536
      5 C          -7.2483    4.3048   23.1326 C.3     1  UNL1        0.1451
      6 C          -5.7615    4.1348   23.2347 C.3     1  UNL1        0.0637
      7 N          -1.3889    4.0201   25.4798 N.am    1  UNL1       -0.2485
      8 C          -2.8757    4.1902   25.3777 C.2     1  UNL1        0.3058
      9 O          -3.7678    3.6546   26.4582 O.2     1  UNL1       -0.2524
     10 N          -3.4705    4.8957   24.1951 N.am    1  UNL1       -0.2901
     11 H          -0.8034    4.3716   24.7707 H       1  UNL1        0.1583
     12 H          -2.8850    5.2472   23.4860 H       1  UNL1        0.1509
     13 C          -0.0357    1.5670   28.1661 C.ar    1  UNL1        0.0803
     14 S          -0.6982    1.8290   26.8461 S.2     1  UNL1       -0.0488
     15 C          -0.7942    3.3146   26.6624 C.ar    1  UNL1        0.1664
     16 N          -0.1909    3.9707   27.8688 N.ar    1  UNL1       -0.2282
     17 C           0.2779    2.8907   28.7982 C.ar    1  UNL1        0.0701
     18 C           0.9433    3.0979   30.1264 C.3     1  UNL1        0.0528
     19 C           1.6567   -0.3296   28.7032 C.3     1  UNL1        0.0779
     20 C           0.2612    0.2181   28.7513 C.2     1  UNL1        0.1807
     21 O          -0.8375   -0.5830   29.3846 O.2     1  UNL1       -0.2908
     22 C          -5.0787    3.0339   22.4784 C.3     1  UNL1        0.0762
     23 N          -4.3839    3.3328   21.1831 N.3     1  UNL1       -0.2725
     24 C          -5.1877    3.6309   19.9522 C.3     1  UNL1        0.0721
     25 C          -4.4929    3.9298   18.6568 C.3     1  UNL1        0.0174
     26 C          -2.9943    3.9305   18.5924 C.3     1  UNL1        0.0031
     27 C          -2.1905    3.6324   19.8233 C.3     1  UNL1        0.0204
     28 C          -2.8853    3.3335   21.1186 C.3     1  UNL1        0.0724
     29 C          -0.6918    3.6332   19.7588 C.3     1  UNL1        0.0277
     30 C           0.0584    2.3345   19.7322 C.ar    1  UNL1       -0.0220
     31 C           0.6836    1.8556   18.4555 C.ar    1  UNL1       -0.0020
     32 C           1.4338    0.5570   18.4289 C.ar    1  UNL1        0.0293
     33 C           1.5587   -0.2628   19.6789 C.ar    1  UNL1        0.1401
     34 F           2.3089   -1.5614   19.6522 F       1  UNL1       -0.2042
     35 C           0.9335    0.2161   20.9555 C.ar    1  UNL1        0.0293
     36 C           0.1833    1.5148   20.9821 C.ar    1  UNL1       -0.0020
@<TRIPOS>BOND
     1    19    20    1
     2    20    21    2
     3    20    13    1
     4    13    14   ar
     5    14    15   ar
     6    15     7    1
     7     7     8   am
     8     8     9    2
     9     8    10   am
    10     1    10    1
    11     1     2    1
    12     2     3    1
    13     3     4    1
    14     4     5    1
    15     5     6    1
    16     6    22    1
    17    22    23    1
    18    23    24    1
    19    24    25    1
    20    25    26    1
    21    26    27    1
    22    27    29    1
    23    29    30    1
    24    30    31   ar
    25    31    32   ar
    26    32    33   ar
    27    33    34    1
    28    33    35   ar
    29    35    36   ar
    30    27    28    1
    31    15    16   ar
    32    16    17   ar
    33    17    18    1
    34    17    13   ar
    35     6     1    1
    36    28    23    1
    37    36    30   ar
    38     7    11    1
    39    10    12    1
@<TRIPOS>MOLECULE
*****
 36 39 0 0 0
SMALL
GASTEIGER

@<TRIPOS>ATOM
      1 C           0.6318    1.6096   27.3984 C.3     1  UNL1        0.0793
      2 C          -0.8166    1.2451   27.5367 C.3     1  UNL1        0.0518
      3 C          -1.2386    0.2186   28.5458 C.3     1  UNL1        0.1439
      4 O          -0.2121   -0.4433   29.4166 O.3     1  UNL1       -0.3536
      5 C           1.2363   -0.0787   29.2783 C.3     1  UNL1        0.1451
      6 C           1.6582    0.9477   28.2692 C.3     1  UNL1        0.0637
      7 N           1.6814    3.2661   23.9481 N.am    1  UNL1       -0.2485
      8 C           1.2594    2.2397   24.9572 C.2     1  UNL1        0.3058
      9 O           1.0429    0.8169   24.5344 O.2     1  UNL1       -0.2524
     10 N           1.0538    2.6361   26.3892 N.am    1  UNL1       -0.2901
     11 H           1.8235    4.1999   24.2256 H       1  UNL1        0.1583
     12 H           1.1959    3.5699   26.6668 H       1  UNL1        0.1509
     13 C           1.4611    2.2645   20.2046 C.ar    1  UNL1        0.0803
     14 S           0.8070    2.6444   21.4998 S.2     1  UNL1       -0.0488
     15 C           1.8870    2.8697   22.5161 C.ar    1  UNL1        0.1664
     16 N           3.2087    2.6290   21.8489 N.ar    1  UNL1       -0.2282
     17 C           2.9455    2.2550   20.4203 C.ar    1  UNL1        0.0701
     18 C           3.9844    1.9288   19.3886 C.3     1  UNL1        0.0528
     19 C          -0.0042    3.0233   18.1979 C.3     1  UNL1        0.0779
     20 C           0.7549    1.9494   18.9193 C.2     1  UNL1        0.1807
     21 O           0.8079    0.5605   18.3554 O.2     1  UNL1       -0.2908
     22 C           3.1067    1.3123   28.1308 C.3     1  UNL1        0.0762
     23 N           3.8354    1.0181   26.8531 N.3     1  UNL1       -0.2725
     24 C           4.6452    2.0911   26.1874 C.3     1  UNL1        0.0721
     25 C           5.3739    1.7969   24.9097 C.3     1  UNL1        0.0174
     26 C           5.2928    0.4298   24.2978 C.3     1  UNL1        0.0031
     27 C           4.4830   -0.6431   24.9635 C.3     1  UNL1        0.0204
     28 C           3.7543   -0.3489   26.2412 C.3     1  UNL1        0.0724
     29 C           4.4019   -2.0102   24.3515 C.3     1  UNL1        0.0277
     30 C           4.1956   -2.1592   22.8732 C.ar    1  UNL1       -0.0220
     31 C           3.2176   -1.2736   22.1595 C.ar    1  UNL1       -0.0020
     32 C           3.0113   -1.4226   20.6812 C.ar    1  UNL1        0.0293
     33 C           3.7830   -2.4570   19.9167 C.ar    1  UNL1        0.1401
     34 F           3.5767   -2.6060   18.4385 F       1  UNL1       -0.2042
     35 C           4.7610   -3.3425   20.6305 C.ar    1  UNL1        0.0293
     36 C           4.9673   -3.1936   22.1087 C.ar    1  UNL1       -0.0020
@<TRIPOS>BOND
     1    19    20    1
     2    20    21    2
     3    20    13    1
     4    13    14   ar
     5    14    15   ar
     6    15     7    1
     7     7     8   am
     8     8     9    2
     9     8    10   am
    10     1    10    1
    11     1     2    1
    12     2     3    1
    13     3     4    1
    14     4     5    1
    15     5     6    1
    16     6    22    1
    17    22    23    1
    18    23    24    1
    19    24    25    1
    20    25    26    1
    21    26    27    1
    22    27    29    1
    23    29    30    1
    24    30    31   ar
    25    31    32   ar
    26    32    33   ar
    27    33    34    1
    28    33    35   ar
    29    35    36   ar
    30    27    28    1
    31    15    16   ar
    32    16    17   ar
    33    17    18    1
    34    17    13   ar
    35     6     1    1
    36    28    23    1
    37    36    30   ar
    38     7    11    1
    39    10    12    1
@<TRIPOS>MOLECULE
*****
 36 39 0 0 0
SMALL
GASTEIGER

@<TRIPOS>ATOM
      1 C           7.2685   -4.9720   26.4927 C.3     1  UNL1        0.0793
      2 C           7.1875   -6.4628   26.3478 C.3     1  UNL1        0.0518
      3 C           8.1449   -7.3422   27.0961 C.3     1  UNL1        0.1439
      4 O           9.1833   -6.7308   27.9894 O.3     1  UNL1       -0.3536
      5 C           9.2643   -5.2400   28.1344 C.3     1  UNL1        0.1451
      6 C           8.3069   -4.3607   27.3860 C.3     1  UNL1        0.0637
      7 N           5.2903   -3.2771   23.4987 N.am    1  UNL1       -0.2485
      8 C           6.2477   -4.1565   24.2471 C.2     1  UNL1        0.3058
      9 O           7.1417   -5.1000   23.4981 O.2     1  UNL1       -0.2524
     10 N           6.3111   -4.0926   25.7443 N.am    1  UNL1       -0.2901
     11 H           4.7036   -2.6580   23.9902 H       1  UNL1        0.1583
     12 H           5.7244   -3.4734   26.2359 H       1  UNL1        0.1509
     13 C           5.3963   -2.7399   19.6560 C.ar    1  UNL1        0.0803
     14 S           5.6216   -2.2467   21.0546 S.2     1  UNL1       -0.0488
     15 C           5.2269   -3.3411   22.0014 C.ar    1  UNL1        0.1664
     16 N           4.7577   -4.5108   21.1879 N.ar    1  UNL1       -0.2282
     17 C           4.8623   -4.1392   19.7385 C.ar    1  UNL1        0.0701
     18 C           4.4972   -5.0135   18.5756 C.3     1  UNL1        0.0528
     19 C           4.7518   -0.8403   18.0050 C.3     1  UNL1        0.0779
     20 C           5.6588   -1.9691   18.3963 C.2     1  UNL1        0.1807
     21 O           6.8282   -2.3271   17.5280 O.2     1  UNL1       -0.2908
     22 C           8.3879   -2.8698   27.5309 C.3     1  UNL1        0.0762
     23 N           7.3831   -2.1426   28.3746 N.3     1  UNL1       -0.2725
     24 C           6.7738   -0.8641   27.8804 C.3     1  UNL1        0.0721
     25 C           5.7691   -0.1369   28.7241 C.3     1  UNL1        0.0174
     26 C           5.3737   -0.6883   30.0619 C.3     1  UNL1        0.0031
     27 C           5.9830   -1.9668   30.5560 C.3     1  UNL1        0.0204
     28 C           6.9877   -2.6940   29.7124 C.3     1  UNL1        0.0724
     29 C           5.5876   -2.5182   31.8939 C.3     1  UNL1        0.0277
     30 C           5.7543   -1.6826   33.1284 C.ar    1  UNL1       -0.0220
     31 C           4.5979   -1.4874   34.0637 C.ar    1  UNL1       -0.0020
     32 C           4.7646   -0.6518   35.2982 C.ar    1  UNL1        0.0293
     33 C           6.0878   -0.0116   35.5975 C.ar    1  UNL1        0.1401
     34 F           6.2545    0.8239   36.8320 F       1  UNL1       -0.2042
     35 C           7.2441   -0.2069   34.6623 C.ar    1  UNL1        0.0293
     36 C           7.0774   -1.0424   33.4277 C.ar    1  UNL1       -0.0020
@<TRIPOS>BOND
     1    19    20    1
     2    20    21    2
     3    20    13    1
     4    13    14   ar
     5    14    15   ar
     6    15     7    1
     7     7     8   am
     8     8     9    2
     9     8    10   am
    10     1    10    1
    11     1     2    1
    12     2     3    1
    13     3     4    1
    14     4     5    1
    15     5     6    1
    16     6    22    1
    17    22    23    1
    18    23    24    1
    19    24    25    1
    20    25    26    1
    21    26    27    1
    22    27    29    1
    23    29    30    1
    24    30    31   ar
    25    31    32   ar
    26    32    33   ar
    27    33    34    1
    28    33    35   ar
    29    35    36   ar
    30    27    28    1
    31    15    16   ar
    32    16    17   ar
    33    17    18    1
    34    17    13   ar
    35     6     1    1
    36    28    23    1
    37    36    30   ar
    38     7    11    1
    39    10    12    1
@<TRIPOS>MOLECULE
*****
 36 39 0 0 0
SMALL
GASTEIGER

@<TRIPOS>ATOM
      1 C          -2.7285    4.4375   18.7677 C.3     1  UNL1        0.0793
      2 C          -4.1765    4.1118   18.9849 C.3     1  UNL1        0.0518
      3 C          -5.0295    3.6797   17.8292 C.3     1  UNL1        0.1439
      4 O          -4.4345    3.5734   16.4564 O.3     1  UNL1       -0.3536
      5 C          -2.9865    3.8991   16.2392 C.3     1  UNL1        0.1451
      6 C          -2.1335    4.3312   17.3949 C.3     1  UNL1        0.0637
      7 N          -0.5747    4.2960   22.0981 N.am    1  UNL1       -0.2485
      8 C          -1.4278    3.8640   20.9424 C.2     1  UNL1        0.3058
      9 O          -1.8333    2.4263   20.8057 O.2     1  UNL1       -0.2524
     10 N          -1.8754    4.8696   19.9234 N.am    1  UNL1       -0.2901
     11 H          -0.3086    5.2396   22.1878 H       1  UNL1        0.1583
     12 H          -1.6092    5.8132   20.0131 H       1  UNL1        0.1509
     13 C           1.1424    1.5583   24.2480 C.ar    1  UNL1        0.0803
     14 S           1.0756    2.4007   23.0087 S.2     1  UNL1       -0.0488
     15 C          -0.1272    3.2903   23.1171 C.ar    1  UNL1        0.1664
     16 N          -0.8038    2.9978   24.4235 N.ar    1  UNL1       -0.2282
     17 C          -0.0192    1.9274   25.1224 C.ar    1  UNL1        0.0701
     18 C          -0.3399    1.3307   26.4608 C.3     1  UNL1        0.0528
     19 C           2.7576   -0.3170   23.4580 C.3     1  UNL1        0.0779
     20 C           2.1872    0.5278   24.5584 C.2     1  UNL1        0.1807
     21 O           2.6616    0.3421   25.9692 O.2     1  UNL1       -0.2908
     22 C          -0.6854    4.6569   17.1777 C.3     1  UNL1        0.0762
     23 N           0.3667    3.9908   18.0140 N.3     1  UNL1       -0.2725
     24 C           1.4787    4.8039   18.6079 C.3     1  UNL1        0.0721
     25 C           2.5308    4.1378   19.4441 C.3     1  UNL1        0.0174
     26 C           2.4710    2.6587   19.6865 C.3     1  UNL1        0.0031
     27 C           1.3590    1.8457   19.0927 C.3     1  UNL1        0.0204
     28 C           0.3069    2.5118   18.2564 C.3     1  UNL1        0.0724
     29 C           1.2992    0.3666   19.3351 C.3     1  UNL1        0.0277
     30 C           2.4659   -0.5015   18.9672 C.ar    1  UNL1       -0.0220
     31 C           2.8795   -1.6247   19.8713 C.ar    1  UNL1       -0.0020
     32 C           4.0462   -2.4928   19.5034 C.ar    1  UNL1        0.0293
     33 C           4.7992   -2.2376   18.2314 C.ar    1  UNL1        0.1401
     34 F           5.9658   -3.1057   17.8635 F       1  UNL1       -0.2042
     35 C           4.3855   -1.1145   17.3274 C.ar    1  UNL1        0.0293
     36 C           3.2189   -0.2464   17.6953 C.ar    1  UNL1       -0.0020
@<TRIPOS>BOND
     1    19    20    1
     2    20    21    2
     3    20    13    1
     4    13    14   ar
     5    14    15   ar
     6    15     7    1
     7     7     8   am
     8     8     9    2
     9     8    10   am
    10     1    10    1
    11     1     2    1
    12     2     3    1
    13     3     4    1
    14     4     5    1
    15     5     6    1
    16     6    22    1
    17    22    23    1
    18    23    24    1
    19    24    25    1
    20    25    26    1
    21    26    27    1
    22    27    29    1
    23    29    30    1
    24    30    31   ar
    25    31    32   ar
    26    32    33   ar
    27    33    34    1
    28    33    35   ar
    29    35    36   ar
    30    27    28    1
    31    15    16   ar
    32    16    17   ar
    33    17    18    1
    34    17    13   ar
    35     6     1    1
    36    28    23    1
    37    36    30   ar
    38     7    11    1
    39    10    12    1
@<TRIPOS>MOLECULE
*****
 36 39 0 0 0
SMALL
GASTEIGER

@<TRIPOS>ATOM
      1 C          -2.6058  -18.5973   20.9149 C.3     1  UNL1        0.0793
      2 C          -1.5990  -18.2885   19.8468 C.3     1  UNL1        0.0518
      3 C          -0.6927  -17.1021   19.9909 C.3     1  UNL1        0.1439
      4 O          -0.7931  -16.2244   21.2032 O.3     1  UNL1       -0.3536
      5 C          -1.7999  -16.5332   22.2714 C.3     1  UNL1        0.1451
      6 C          -2.7063  -17.7197   22.1272 C.3     1  UNL1        0.0637
      7 N          -5.8316  -20.7823   20.1597 N.am    1  UNL1       -0.2485
      8 C          -4.9252  -19.5959   20.3038 C.2     1  UNL1        0.3058
      9 O          -5.4318  -18.2214   19.9811 O.2     1  UNL1       -0.2524
     10 N          -3.5122  -19.7839   20.7708 N.am    1  UNL1       -0.2901
     11 H          -5.4991  -21.6844   20.3715 H       1  UNL1        0.1583
     12 H          -3.1796  -20.6860   20.9826 H       1  UNL1        0.1509
     13 C          -9.5807  -19.9410   19.6098 C.ar    1  UNL1        0.0803
     14 S          -8.3366  -19.8949   20.4467 S.2     1  UNL1       -0.0488
     15 C          -7.2446  -20.5943   19.6928 C.ar    1  UNL1        0.1664
     16 N          -7.8138  -21.0727   18.3900 N.ar    1  UNL1       -0.2282
     17 C          -9.2575  -20.6690   18.3387 C.ar    1  UNL1        0.0701
     18 C         -10.2107  -20.9448   17.2139 C.3     1  UNL1        0.0528
     19 C         -11.7041  -19.9562   21.1067 C.3     1  UNL1        0.0779
     20 C         -10.9137  -19.3611   19.9793 C.2     1  UNL1        0.1807
     21 O         -11.4565  -18.1861   19.2212 O.2     1  UNL1       -0.2908
     22 C          -3.7131  -18.0286   23.1953 C.3     1  UNL1        0.0762
     23 N          -4.8690  -17.1011   23.4272 N.3     1  UNL1       -0.2725
     24 C          -4.7430  -15.9777   24.4133 C.3     1  UNL1        0.0721
     25 C          -5.8988  -15.0502   24.6452 C.3     1  UNL1        0.0174
     26 C          -7.1806  -15.2461   23.8911 C.3     1  UNL1        0.0031
     27 C          -7.3066  -16.3695   22.9051 C.3     1  UNL1        0.0204
     28 C          -6.1507  -17.2970   22.6732 C.3     1  UNL1        0.0724
     29 C          -8.5884  -16.5654   22.1510 C.3     1  UNL1        0.0277
     30 C          -9.7939  -17.1182   22.8518 C.ar    1  UNL1       -0.0220
     31 C         -11.1600  -16.5946   22.5203 C.ar    1  UNL1       -0.0020
     32 C         -12.3654  -17.1474   23.2212 C.ar    1  UNL1        0.0293
     33 C         -12.2049  -18.2238   24.2535 C.ar    1  UNL1        0.1401
     34 F         -13.4104  -18.7767   24.9543 F       1  UNL1       -0.2042
     35 C         -10.8389  -18.7474   24.5849 C.ar    1  UNL1        0.0293
     36 C          -9.6334  -18.1945   23.8841 C.ar    1  UNL1       -0.0020
@<TRIPOS>BOND
     1    19    20    1
     2    20    21    2
     3    20    13    1
     4    13    14   ar
     5    14    15   ar
     6    15     7    1
     7     7     8   am
     8     8     9    2
     9     8    10   am
    10     1    10    1
    11     1     2    1
    12     2     3    1
    13     3     4    1
    14     4     5    1
    15     5     6    1
    16     6    22    1
    17    22    23    1
    18    23    24    1
    19    24    25    1
    20    25    26    1
    21    26    27    1
    22    27    29    1
    23    29    30    1
    24    30    31   ar
    25    31    32   ar
    26    32    33   ar
    27    33    34    1
    28    33    35   ar
    29    35    36   ar
    30    27    28    1
    31    15    16   ar
    32    16    17   ar
    33    17    18    1
    34    17    13   ar
    35     6     1    1
    36    28    23    1
    37    36    30   ar
    38     7    11    1
    39    10    12    1
