@<TRIPOS>MOLECULE
*****
 28 31 0 0 0
SMALL
GASTEIGER

@<TRIPOS>ATOM
      1 N           5.4525   -2.8076   23.5926 N.am    1  UNL1       -0.2646
      2 C           4.5103   -3.1198   22.4680 C.2     1  UNL1        0.2506
      3 O           4.4304   -4.5144   21.9217 O.2     1  UNL1       -0.2698
      4 H           5.5049   -1.8922   23.9512 H       1  UNL1        0.1566
      5 C           9.5360   -7.9049   27.9475 C.3     1  UNL1        0.0537
      6 C           8.9623   -7.1992   26.7546 C.ar    1  UNL1        0.0766
      7 C           8.0423   -6.0299   26.9458 C.ar    1  UNL1        0.0962
      8 N           7.4687   -5.3242   25.7529 N.ar    1  UNL1       -0.2843
      9 C           6.5415   -4.1514   25.6306 C.ar    1  UNL1        0.1162
     10 C           6.3148   -3.8901   24.1710 C.ar    1  UNL1        0.1538
     11 N           7.1019   -4.9014   23.3913 N.ar    1  UNL1       -0.2103
     12 C           7.8150   -5.7877   24.3690 C.ar    1  UNL1        0.1629
     13 C           8.7350   -6.9569   24.1779 C.ar    1  UNL1        0.0933
     14 C           9.0813   -7.4205   22.7940 C.3     1  UNL1        0.0553
     15 N           9.3086   -7.6626   25.3708 N.ar    1  UNL1       -0.2494
     16 C           3.6480   -2.0372   21.8897 C.ar    1  UNL1        0.0538
     17 C           3.1050   -0.9566   22.7770 C.ar    1  UNL1        0.0058
     18 C           2.2427    0.1261   22.1988 C.ar    1  UNL1        0.0147
     19 C           1.9233    0.1281   20.7332 C.ar    1  UNL1        0.0479
     20 C           2.4663   -0.9525   19.8458 C.ar    1  UNL1        0.0147
     21 C           3.3287   -2.0351   20.4240 C.ar    1  UNL1        0.0058
     22 N           1.0610    1.2107   20.1549 N.pl3   1  UNL1       -0.3046
     23 C           1.2298    1.6187   18.7214 C.3     1  UNL1        0.1081
     24 C           0.3675    2.7013   18.1432 C.3     1  UNL1        0.0938
     25 N          -0.6636    3.3759   18.9986 N.3     1  UNL1       -0.2686
     26 C          -1.5259    4.4586   18.4204 C.3     1  UNL1        0.0897
     27 C          -0.8324    2.9680   20.4322 C.3     1  UNL1        0.0938
     28 C           0.0299    1.8853   21.0104 C.3     1  UNL1        0.1081
@<TRIPOS>BOND
     1     5     6    1
     2     6     7   ar
     3     7     8   ar
     4     8     9   ar
     5     9    10   ar
     6    10     1    1
     7     1     2   am
     8     2     3    2
     9     2    16    1
    10    16    17   ar
    11    17    18   ar
    12    18    19   ar
    13    19    22    1
    14    22    23    1
    15    23    24    1
    16    24    25    1
    17    25    26    1
    18    25    27    1
    19    27    28    1
    20    19    20   ar
    21    20    21   ar
    22    10    11   ar
    23    11    12   ar
    24    12    13   ar
    25    13    14    1
    26    13    15   ar
    27    15     6   ar
    28    12     8   ar
    29    21    16   ar
    30    28    22    1
    31     1     4    1
@<TRIPOS>MOLECULE
*****
 28 31 0 0 0
SMALL
GASTEIGER

@<TRIPOS>ATOM
      1 N           5.6758   -0.6042   34.8485 N.am    1  UNL1       -0.2646
      2 C           4.9679   -0.6951   33.5292 C.2     1  UNL1        0.2506
      3 O           3.7330    0.1199   33.2829 O.2     1  UNL1       -0.2698
      4 H           6.4864   -1.1392   35.0101 H       1  UNL1        0.1566
      5 C           4.0817    5.0179   40.0900 C.3     1  UNL1        0.0537
      6 C           3.9816    3.7491   39.2961 C.ar    1  UNL1        0.0766
      7 C           4.9945    3.4487   38.2313 C.ar    1  UNL1        0.0962
      8 N           4.8944    2.1800   37.4374 N.ar    1  UNL1       -0.2843
      9 C           5.7396    1.6177   36.3331 C.ar    1  UNL1        0.1162
     10 C           5.1489    0.3017   35.9216 C.ar    1  UNL1        0.1538
     11 N           3.9386    0.0508   36.7715 N.ar    1  UNL1       -0.2103
     12 C           3.7814    1.2116   37.7084 C.ar    1  UNL1        0.1629
     13 C           2.7685    1.5120   38.7732 C.ar    1  UNL1        0.0933
     14 C           1.6554    0.5436   39.0441 C.3     1  UNL1        0.0553
     15 N           2.8686    2.7808   39.5670 N.ar    1  UNL1       -0.2494
     16 C           5.4950   -1.6011   32.4561 C.ar    1  UNL1        0.0538
     17 C           5.5486   -1.1272   31.0340 C.ar    1  UNL1        0.0058
     18 C           6.0756   -2.0331   29.9609 C.ar    1  UNL1        0.0147
     19 C           6.5491   -3.4130   30.3099 C.ar    1  UNL1        0.0479
     20 C           6.4954   -3.8869   31.7321 C.ar    1  UNL1        0.0147
     21 C           5.9684   -2.9810   32.8052 C.ar    1  UNL1        0.0058
     22 N           7.0761   -4.3189   29.2368 N.pl3   1  UNL1       -0.3046
     23 C           7.2646   -3.7993   27.8424 C.3     1  UNL1        0.1081
     24 C           7.7917   -4.7053   26.7693 C.3     1  UNL1        0.0938
     25 N           8.1302   -6.1308   27.0908 N.3     1  UNL1       -0.2686
     26 C           8.6572   -7.0367   26.0177 C.3     1  UNL1        0.0897
     27 C           7.9417   -6.6504   28.4852 C.3     1  UNL1        0.0938
     28 C           7.4146   -5.7445   29.5583 C.3     1  UNL1        0.1081
@<TRIPOS>BOND
     1     5     6    1
     2     6     7   ar
     3     7     8   ar
     4     8     9   ar
     5     9    10   ar
     6    10     1    1
     7     1     2   am
     8     2     3    2
     9     2    16    1
    10    16    17   ar
    11    17    18   ar
    12    18    19   ar
    13    19    22    1
    14    22    23    1
    15    23    24    1
    16    24    25    1
    17    25    26    1
    18    25    27    1
    19    27    28    1
    20    19    20   ar
    21    20    21   ar
    22    10    11   ar
    23    11    12   ar
    24    12    13   ar
    25    13    14    1
    26    13    15   ar
    27    15     6   ar
    28    12     8   ar
    29    21    16   ar
    30    28    22    1
    31     1     4    1
@<TRIPOS>MOLECULE
*****
 28 31 0 0 0
SMALL
GASTEIGER

@<TRIPOS>ATOM
      1 N           0.5573    1.5516   20.6596 N.am    1  UNL1       -0.2646
      2 C           1.2103    0.6147   19.6870 C.2     1  UNL1        0.2506
      3 O           0.7727    0.5983   18.2524 O.2     1  UNL1       -0.2698
      4 H           0.8446    1.5623   21.6012 H       1  UNL1        0.1566
      5 C          -4.0949    6.9185   17.3166 C.3     1  UNL1        0.0537
      6 C          -3.6253    5.8020   18.2016 C.ar    1  UNL1        0.0766
      7 C          -2.2060    5.3242   18.1169 C.ar    1  UNL1        0.0962
      8 N          -1.7364    4.2078   19.0018 N.ar    1  UNL1       -0.2843
      9 C          -0.4058    3.5297   19.1416 C.ar    1  UNL1        0.1162
     10 C          -0.5332    2.4721   20.1976 C.ar    1  UNL1        0.1538
     11 N          -1.9425    2.4965   20.7105 N.ar    1  UNL1       -0.2103
     12 C          -2.6862    3.5693   19.9715 C.ar    1  UNL1        0.1629
     13 C          -4.1055    4.0472   20.0562 C.ar    1  UNL1        0.0933
     14 C          -5.0553    3.4087   21.0259 C.3     1  UNL1        0.0553
     15 N          -4.5750    5.1636   19.1712 N.ar    1  UNL1       -0.2494
     16 C           2.3008   -0.3058   20.1492 C.ar    1  UNL1        0.0538
     17 C           2.5119   -0.5417   21.6154 C.ar    1  UNL1        0.0058
     18 C           3.6023   -1.4621   22.0776 C.ar    1  UNL1        0.0147
     19 C           4.4818   -2.1466   21.0736 C.ar    1  UNL1        0.0479
     20 C           4.2707   -1.9107   19.6074 C.ar    1  UNL1        0.0147
     21 C           3.1802   -0.9903   19.1452 C.ar    1  UNL1        0.0058
     22 N           5.5723   -3.0671   21.5358 N.pl3   1  UNL1       -0.3046
     23 C           6.6001   -3.5610   20.5613 C.3     1  UNL1        0.1081
     24 C           7.6905   -4.4815   21.0236 C.3     1  UNL1        0.0938
     25 N           7.7532   -4.9079   22.4603 N.3     1  UNL1       -0.2686
     26 C           8.8437   -5.8283   22.9225 C.3     1  UNL1        0.0897
     27 C           6.7254   -4.4140   23.4348 C.3     1  UNL1        0.0938
     28 C           5.6349   -3.4935   22.9726 C.3     1  UNL1        0.1081
@<TRIPOS>BOND
     1     5     6    1
     2     6     7   ar
     3     7     8   ar
     4     8     9   ar
     5     9    10   ar
     6    10     1    1
     7     1     2   am
     8     2     3    2
     9     2    16    1
    10    16    17   ar
    11    17    18   ar
    12    18    19   ar
    13    19    22    1
    14    22    23    1
    15    23    24    1
    16    24    25    1
    17    25    26    1
    18    25    27    1
    19    27    28    1
    20    19    20   ar
    21    20    21   ar
    22    10    11   ar
    23    11    12   ar
    24    12    13   ar
    25    13    14    1
    26    13    15   ar
    27    15     6   ar
    28    12     8   ar
    29    21    16   ar
    30    28    22    1
    31     1     4    1
@<TRIPOS>MOLECULE
*****
 28 31 0 0 0
SMALL
GASTEIGER

@<TRIPOS>ATOM
      1 N          -3.1277    2.6608   20.8823 N.am    1  UNL1       -0.2646
      2 C          -1.7460    3.1323   21.2263 C.2     1  UNL1        0.2506
      3 O          -1.5598    4.3713   22.0510 O.2     1  UNL1       -0.2698
      4 H          -3.2499    1.8476   20.3410 H       1  UNL1        0.1566
      5 C          -9.1874    5.9037   24.6755 C.3     1  UNL1        0.0537
      6 C          -8.1932    5.5890   23.5971 C.ar    1  UNL1        0.0766
      7 C          -7.1162    4.5742   23.8429 C.ar    1  UNL1        0.0962
      8 N          -6.1221    4.2595   22.7646 N.ar    1  UNL1       -0.2843
      9 C          -4.9593    3.3131   22.7167 C.ar    1  UNL1        0.1162
     10 C          -4.3235    3.4284   21.3630 C.ar    1  UNL1        0.1538
     11 N          -5.0933    4.4460   20.5744 N.ar    1  UNL1       -0.2103
     12 C          -6.2049    4.9596   21.4406 C.ar    1  UNL1        0.1629
     13 C          -7.2819    5.9744   21.1949 C.ar    1  UNL1        0.0933
     14 C          -7.3647    6.6745   19.8709 C.3     1  UNL1        0.0553
     15 N          -8.2760    6.2891   22.2732 N.ar    1  UNL1       -0.2494
     16 C          -0.5503    2.3647   20.7456 C.ar    1  UNL1        0.0538
     17 C           0.2449    1.5344   21.7091 C.ar    1  UNL1        0.0058
     18 C           1.4406    0.7668   21.2284 C.ar    1  UNL1        0.0147
     19 C           1.8412    0.8294   19.7843 C.ar    1  UNL1        0.0479
     20 C           1.0460    1.6596   18.8207 C.ar    1  UNL1        0.0147
     21 C          -0.1497    2.4273   19.3014 C.ar    1  UNL1        0.0058
     22 N           3.0369    0.0617   19.3036 N.pl3   1  UNL1       -0.3046
     23 C           3.8921   -0.6853   20.2837 C.3     1  UNL1        0.1081
     24 C           5.0878   -1.4529   19.8029 C.3     1  UNL1        0.0938
     25 N           5.4282   -1.4735   18.3422 N.3     1  UNL1       -0.2686
     26 C           6.6239   -2.2412   17.8616 C.3     1  UNL1        0.0897
     27 C           4.5729   -0.7265   17.3622 C.3     1  UNL1        0.0938
     28 C           3.3772    0.0411   17.8428 C.3     1  UNL1        0.1081
@<TRIPOS>BOND
     1     5     6    1
     2     6     7   ar
     3     7     8   ar
     4     8     9   ar
     5     9    10   ar
     6    10     1    1
     7     1     2   am
     8     2     3    2
     9     2    16    1
    10    16    17   ar
    11    17    18   ar
    12    18    19   ar
    13    19    22    1
    14    22    23    1
    15    23    24    1
    16    24    25    1
    17    25    26    1
    18    25    27    1
    19    27    28    1
    20    19    20   ar
    21    20    21   ar
    22    10    11   ar
    23    11    12   ar
    24    12    13   ar
    25    13    14    1
    26    13    15   ar
    27    15     6   ar
    28    12     8   ar
    29    21    16   ar
    30    28    22    1
    31     1     4    1
@<TRIPOS>MOLECULE
*****
 28 31 0 0 0
SMALL
GASTEIGER

@<TRIPOS>ATOM
      1 N           6.2139   -3.6242   29.5974 N.am    1  UNL1       -0.2646
      2 C           6.9687   -3.4183   30.8772 C.2     1  UNL1        0.2506
      3 O           8.2834   -4.1078   31.0920 O.2     1  UNL1       -0.2698
      4 H           5.3511   -3.1716   29.4565 H       1  UNL1        0.1566
      5 C           8.8527   -7.1549   23.1017 C.3     1  UNL1        0.0537
      6 C           8.4866   -6.9142   24.5364 C.ar    1  UNL1        0.0766
      7 C           7.8829   -5.6037   24.9466 C.ar    1  UNL1        0.0962
      8 N           7.5167   -5.3630   26.3812 N.ar    1  UNL1       -0.2843
      9 C           6.9108   -4.1807   27.0776 C.ar    1  UNL1        0.1162
     10 C           6.7739   -4.5198   28.5323 C.ar    1  UNL1        0.1538
     11 N           7.2951   -5.9116   28.7350 N.ar    1  UNL1       -0.2103
     12 C           7.7543   -6.4328   27.4055 C.ar    1  UNL1        0.1629
     13 C           8.3579   -7.7432   26.9952 C.ar    1  UNL1        0.0933
     14 C           8.5955   -8.8130   28.0195 C.3     1  UNL1        0.0553
     15 N           8.7241   -7.9839   25.5606 N.ar    1  UNL1       -0.2494
     16 C           6.4087   -2.5227   31.9423 C.ar    1  UNL1        0.0538
     17 C           7.1984   -1.3399   32.4192 C.ar    1  UNL1        0.0058
     18 C           6.6385   -0.4443   33.4843 C.ar    1  UNL1        0.0147
     19 C           5.2888   -0.7315   34.0725 C.ar    1  UNL1        0.0479
     20 C           4.4991   -1.9142   33.5956 C.ar    1  UNL1        0.0147
     21 C           5.0591   -2.8098   32.5306 C.ar    1  UNL1        0.0058
     22 N           4.7289    0.1642   35.1376 N.pl3   1  UNL1       -0.3046
     23 C           5.0790   -0.0724   36.5768 C.3     1  UNL1        0.1081
     24 C           4.5190    0.8233   37.6418 C.3     1  UNL1        0.0938
     25 N           3.6090    1.9554   37.2676 N.3     1  UNL1       -0.2686
     26 C           3.0491    2.8510   38.3327 C.3     1  UNL1        0.0897
     27 C           3.2589    2.1920   35.8283 C.3     1  UNL1        0.0938
     28 C           3.8189    1.2964   34.7633 C.3     1  UNL1        0.1081
@<TRIPOS>BOND
     1     5     6    1
     2     6     7   ar
     3     7     8   ar
     4     8     9   ar
     5     9    10   ar
     6    10     1    1
     7     1     2   am
     8     2     3    2
     9     2    16    1
    10    16    17   ar
    11    17    18   ar
    12    18    19   ar
    13    19    22    1
    14    22    23    1
    15    23    24    1
    16    24    25    1
    17    25    26    1
    18    25    27    1
    19    27    28    1
    20    19    20   ar
    21    20    21   ar
    22    10    11   ar
    23    11    12   ar
    24    12    13   ar
    25    13    14    1
    26    13    15   ar
    27    15     6   ar
    28    12     8   ar
    29    21    16   ar
    30    28    22    1
    31     1     4    1
@<TRIPOS>MOLECULE
*****
 28 31 0 0 0
SMALL
GASTEIGER

@<TRIPOS>ATOM
      1 N           4.7842   -1.7940   24.7247 N.am    1  UNL1       -0.2646
      2 C           3.8190   -0.9985   25.5527 C.2     1  UNL1        0.2506
      3 O           2.6874   -0.2691   24.8915 O.2     1  UNL1       -0.2698
      4 H           5.5270   -2.2728   25.1587 H       1  UNL1        0.1566
      5 C           4.2181   -0.6649   16.9769 C.3     1  UNL1        0.0537
      6 C           4.2178   -1.3421   18.3155 C.ar    1  UNL1        0.0766
      7 C           4.5064   -0.5504   19.5565 C.ar    1  UNL1        0.0962
      8 N           4.5061   -1.2275   20.8950 N.ar    1  UNL1       -0.2843
      9 C           4.7537   -0.7108   22.2812 C.ar    1  UNL1        0.1162
     10 C           4.6178   -1.8601   23.2354 C.ar    1  UNL1        0.1538
     11 N           4.2862   -3.0872   22.4389 N.ar    1  UNL1       -0.2103
     12 C           4.2172   -2.6962   20.9924 C.ar    1  UNL1        0.1629
     13 C           3.9286   -3.4878   19.7514 C.ar    1  UNL1        0.0933
     14 C           3.6397   -4.9565   19.8489 C.3     1  UNL1        0.0553
     15 N           3.9289   -2.8107   18.4129 N.ar    1  UNL1       -0.2494
     16 C           3.9856   -0.9325   27.0420 C.ar    1  UNL1        0.0538
     17 C           5.3202   -1.2248   27.6610 C.ar    1  UNL1        0.0058
     18 C           5.4868   -1.1588   29.1503 C.ar    1  UNL1        0.0147
     19 C           4.3188   -0.8005   30.0205 C.ar    1  UNL1        0.0479
     20 C           2.9841   -0.5082   29.4014 C.ar    1  UNL1        0.0147
     21 C           2.8175   -0.5742   27.9122 C.ar    1  UNL1        0.0058
     22 N           4.4854   -0.7345   31.5098 N.pl3   1  UNL1       -0.3046
     23 C           4.2945   -1.9683   32.3412 C.3     1  UNL1        0.1081
     24 C           4.4611   -1.9022   33.8305 C.3     1  UNL1        0.0938
     25 N           4.8186   -0.6024   34.4882 N.3     1  UNL1       -0.2686
     26 C           4.9852   -0.5364   35.9775 C.3     1  UNL1        0.0897
     27 C           5.0095    0.6314   33.6568 C.3     1  UNL1        0.0938
     28 C           4.8429    0.5654   32.1675 C.3     1  UNL1        0.1081
@<TRIPOS>BOND
     1     5     6    1
     2     6     7   ar
     3     7     8   ar
     4     8     9   ar
     5     9    10   ar
     6    10     1    1
     7     1     2   am
     8     2     3    2
     9     2    16    1
    10    16    17   ar
    11    17    18   ar
    12    18    19   ar
    13    19    22    1
    14    22    23    1
    15    23    24    1
    16    24    25    1
    17    25    26    1
    18    25    27    1
    19    27    28    1
    20    19    20   ar
    21    20    21   ar
    22    10    11   ar
    23    11    12   ar
    24    12    13   ar
    25    13    14    1
    26    13    15   ar
    27    15     6   ar
    28    12     8   ar
    29    21    16   ar
    30    28    22    1
    31     1     4    1
@<TRIPOS>MOLECULE
*****
 28 31 0 0 0
SMALL
GASTEIGER

@<TRIPOS>ATOM
      1 N          -0.0594    2.8572   27.5977 N.am    1  UNL1       -0.2646
      2 C          -0.0340    1.5059   28.2482 C.2     1  UNL1        0.2506
      3 O          -0.8473    0.3827   27.6763 O.2     1  UNL1       -0.2698
      4 H           0.4744    3.5943   27.9731 H       1  UNL1        0.1566
      5 C          -3.1484    3.8934   20.4557 C.3     1  UNL1        0.0537
      6 C          -3.0318    3.7639   21.9456 C.ar    1  UNL1        0.0766
      7 C          -1.6955    3.4980   22.5731 C.ar    1  UNL1        0.0962
      8 N          -1.5790    3.3685   24.0629 N.ar    1  UNL1       -0.2843
      9 C          -0.4044    3.1093   24.9590 C.ar    1  UNL1        0.1162
     10 C          -0.8982    3.0855   26.3752 C.ar    1  UNL1        0.1538
     11 N          -2.3780    3.3300   26.3544 N.ar    1  UNL1       -0.2103
     12 C          -2.7988    3.5049   24.9253 C.ar    1  UNL1        0.1629
     13 C          -4.1350    3.7708   24.2978 C.ar    1  UNL1        0.0933
     14 C          -5.3547    3.9071   25.1601 C.3     1  UNL1        0.0553
     15 N          -4.2515    3.9002   22.8079 N.ar    1  UNL1       -0.2494
     16 C           0.8048    1.2777   29.4707 C.ar    1  UNL1        0.0538
     17 C           0.6653    2.1861   30.6562 C.ar    1  UNL1        0.0058
     18 C           1.5040    1.9580   31.8787 C.ar    1  UNL1        0.0147
     19 C           2.4823    0.8215   31.9157 C.ar    1  UNL1        0.0479
     20 C           2.6218   -0.0869   30.7302 C.ar    1  UNL1        0.0147
     21 C           1.7831    0.1412   29.5077 C.ar    1  UNL1        0.0058
     22 N           3.3210    0.5934   33.1382 N.pl3   1  UNL1       -0.3046
     23 C           4.0777   -0.6916   33.2995 C.3     1  UNL1        0.1081
     24 C           4.9164   -0.9196   34.5221 C.3     1  UNL1        0.0938
     25 N           4.9984    0.1374   35.5832 N.3     1  UNL1       -0.2686
     26 C           5.8372   -0.0907   36.8057 C.3     1  UNL1        0.0897
     27 C           4.2417    1.4224   35.4218 C.3     1  UNL1        0.0938
     28 C           3.4030    1.6505   34.1993 C.3     1  UNL1        0.1081
@<TRIPOS>BOND
     1     5     6    1
     2     6     7   ar
     3     7     8   ar
     4     8     9   ar
     5     9    10   ar
     6    10     1    1
     7     1     2   am
     8     2     3    2
     9     2    16    1
    10    16    17   ar
    11    17    18   ar
    12    18    19   ar
    13    19    22    1
    14    22    23    1
    15    23    24    1
    16    24    25    1
    17    25    26    1
    18    25    27    1
    19    27    28    1
    20    19    20   ar
    21    20    21   ar
    22    10    11   ar
    23    11    12   ar
    24    12    13   ar
    25    13    14    1
    26    13    15   ar
    27    15     6   ar
    28    12     8   ar
    29    21    16   ar
    30    28    22    1
    31     1     4    1
@<TRIPOS>MOLECULE
*****
 28 31 0 0 0
SMALL
GASTEIGER

@<TRIPOS>ATOM
      1 N          -0.5864    1.4905   28.0861 N.am    1  UNL1       -0.2646
      2 C          -0.5599    2.8318   27.4151 C.2     1  UNL1        0.2506
      3 O           0.4164    3.8772   27.8666 O.2     1  UNL1       -0.2698
      4 H          -1.2272    0.8044   27.7897 H       1  UNL1        0.1566
      5 C           4.7750   -1.2480   33.1239 C.3     1  UNL1        0.0537
      6 C           3.7112   -0.3823   32.5162 C.ar    1  UNL1        0.0766
      7 C           3.1298   -0.7356   31.1793 C.ar    1  UNL1        0.0962
      8 N           2.0661    0.1300   30.5717 N.ar    1  UNL1       -0.2843
      9 C           1.3119    0.0347   29.2786 C.ar    1  UNL1        0.1162
     10 C           0.3634    1.1947   29.2088 C.ar    1  UNL1        0.1538
     11 N           0.5315    2.0069   30.4586 N.ar    1  UNL1       -0.2103
     12 C           1.5838    1.3489   31.3010 C.ar    1  UNL1        0.1629
     13 C           2.1652    1.7020   32.6379 C.ar    1  UNL1        0.0933
     14 C           1.6829    2.9209   33.3671 C.3     1  UNL1        0.0553
     15 N           3.2289    0.8364   33.2454 N.ar    1  UNL1       -0.2494
     16 C          -1.5097    3.1276   26.2924 C.ar    1  UNL1        0.0538
     17 C          -1.0626    2.9667   24.8697 C.ar    1  UNL1        0.0058
     18 C          -2.0123    3.2625   23.7470 C.ar    1  UNL1        0.0147
     19 C          -3.4093    3.7191   24.0470 C.ar    1  UNL1        0.0479
     20 C          -3.8565    3.8799   25.4697 C.ar    1  UNL1        0.0147
     21 C          -2.9067    3.5842   26.5924 C.ar    1  UNL1        0.0058
     22 N          -4.3591    4.0149   22.9243 N.pl3   1  UNL1       -0.3046
     23 C          -5.4909    4.9768   23.1331 C.3     1  UNL1        0.1081
     24 C          -6.4406    5.2725   22.0103 C.3     1  UNL1        0.0938
     25 N          -6.2585    4.6063   20.6788 N.3     1  UNL1       -0.2686
     26 C          -7.2083    4.9020   19.5561 C.3     1  UNL1        0.0897
     27 C          -5.1267    3.6443   20.4700 C.3     1  UNL1        0.0938
     28 C          -4.1770    3.3485   21.5927 C.3     1  UNL1        0.1081
@<TRIPOS>BOND
     1     5     6    1
     2     6     7   ar
     3     7     8   ar
     4     8     9   ar
     5     9    10   ar
     6    10     1    1
     7     1     2   am
     8     2     3    2
     9     2    16    1
    10    16    17   ar
    11    17    18   ar
    12    18    19   ar
    13    19    22    1
    14    22    23    1
    15    23    24    1
    16    24    25    1
    17    25    26    1
    18    25    27    1
    19    27    28    1
    20    19    20   ar
    21    20    21   ar
    22    10    11   ar
    23    11    12   ar
    24    12    13   ar
    25    13    14    1
    26    13    15   ar
    27    15     6   ar
    28    12     8   ar
    29    21    16   ar
    30    28    22    1
    31     1     4    1
@<TRIPOS>MOLECULE
*****
 28 31 0 0 0
SMALL
GASTEIGER

@<TRIPOS>ATOM
      1 N           0.1563    0.6871   21.0764 N.am    1  UNL1       -0.2646
      2 C           0.0461    2.1830   21.0761 C.2     1  UNL1        0.2506
      3 O           1.2051    3.0205   20.6232 O.2     1  UNL1       -0.2698
      4 H          -0.6044    0.1375   21.3737 H       1  UNL1        0.1566
      5 C           7.0067   -3.0385   20.1732 C.3     1  UNL1        0.0537
      6 C           5.7425   -2.2968   19.8539 C.ar    1  UNL1        0.0766
      7 C           4.8080   -1.8978   20.9574 C.ar    1  UNL1        0.0962
      8 N           3.5439   -1.1562   20.6382 N.ar    1  UNL1       -0.2843
      9 C           2.4385   -0.6357   21.5085 C.ar    1  UNL1        0.1162
     10 C           1.4257    0.0285   20.6236 C.ar    1  UNL1        0.1538
     11 N           1.9051   -0.0814   19.2065 N.ar    1  UNL1       -0.2103
     12 C           3.2142   -0.8136   19.2155 C.ar    1  UNL1        0.1629
     13 C           4.1487   -1.2126   18.1121 C.ar    1  UNL1        0.0933
     14 C           3.8190   -0.8700   16.6895 C.3     1  UNL1        0.0553
     15 N           5.4128   -1.9542   18.4314 N.ar    1  UNL1       -0.2494
     16 C          -1.2234    2.8415   21.5289 C.ar    1  UNL1        0.0538
     17 C          -1.3790    3.2664   22.9590 C.ar    1  UNL1        0.0058
     18 C          -2.6484    3.9249   23.4119 C.ar    1  UNL1        0.0147
     19 C          -3.7621    4.1585   22.4346 C.ar    1  UNL1        0.0479
     20 C          -3.6065    3.7336   21.0045 C.ar    1  UNL1        0.0147
     21 C          -2.3371    3.0751   20.5517 C.ar    1  UNL1        0.0058
     22 N          -5.0315    4.8170   22.8875 N.pl3   1  UNL1       -0.3046
     23 C          -6.3277    4.0639   22.8337 C.3     1  UNL1        0.1081
     24 C          -7.5970    4.7225   23.2866 C.3     1  UNL1        0.0938
     25 N          -7.5702    6.1340   23.7932 N.3     1  UNL1       -0.2686
     26 C          -8.8396    6.7925   24.2460 C.3     1  UNL1        0.0897
     27 C          -6.2741    6.8871   23.8470 C.3     1  UNL1        0.0938
     28 C          -5.0047    6.2286   23.3941 C.3     1  UNL1        0.1081
@<TRIPOS>BOND
     1     5     6    1
     2     6     7   ar
     3     7     8   ar
     4     8     9   ar
     5     9    10   ar
     6    10     1    1
     7     1     2   am
     8     2     3    2
     9     2    16    1
    10    16    17   ar
    11    17    18   ar
    12    18    19   ar
    13    19    22    1
    14    22    23    1
    15    23    24    1
    16    24    25    1
    17    25    26    1
    18    25    27    1
    19    27    28    1
    20    19    20   ar
    21    20    21   ar
    22    10    11   ar
    23    11    12   ar
    24    12    13   ar
    25    13    14    1
    26    13    15   ar
    27    15     6   ar
    28    12     8   ar
    29    21    16   ar
    30    28    22    1
    31     1     4    1
