@<TRIPOS>MOLECULE
*****
 29 32 0 0 0
SMALL
GASTEIGER

@<TRIPOS>ATOM
      1 O          -5.8414  -17.4186   23.1265 O.2     1  UNL1       -0.2734
      2 C          -6.3808  -18.3436   22.0760 C.2     1  UNL1        0.2420
      3 N          -7.8503  -18.3614   21.7752 N.am    1  UNL1       -0.2760
      4 C          -8.3896  -19.2864   20.7248 C.3     1  UNL1        0.0983
      5 C          -9.8590  -19.3042   20.4240 C.3     1  UNL1        0.0476
      6 C         -10.7891  -18.3970   21.1736 C.ar    1  UNL1       -0.0229
      7 C         -12.2585  -18.4148   20.8728 C.ar    1  UNL1       -0.0045
      8 C         -13.1885  -17.5076   21.6225 C.ar    1  UNL1       -0.0003
      9 C         -12.6492  -16.5826   22.6729 C.ar    1  UNL1       -0.0003
     10 C         -11.1798  -16.5648   22.9737 C.ar    1  UNL1       -0.0030
     11 C         -10.2497  -17.4720   22.2241 C.ar    1  UNL1       -0.0082
     12 C          -8.7803  -17.4542   22.5249 C.3     1  UNL1        0.0975
     13 C          -8.2409  -16.5292   23.5753 C.3     1  UNL1        0.0224
     14 C          -8.3068  -16.7450   25.0582 C.3     1  UNL1        0.0020
     15 C          -7.6476  -15.5751   25.7267 C.3     1  UNL1        0.0001
     16 C          -7.1742  -14.6363   24.6569 C.3     1  UNL1        0.0001
     17 C          -7.5409  -15.2259   23.3273 C.3     1  UNL1        0.0020
     18 C          -5.4508  -19.2508   21.3264 C.3     1  UNL1        0.1552
     19 N          -4.3762  -19.9962   22.0610 N.3     1  UNL1       -0.2879
     20 H          -4.0778  -20.7584   21.4523 H       1  UNL1        0.1238
     21 C          -3.1331  -19.2806   22.5000 C.3     1  UNL1        0.0961
     22 C          -2.1138  -18.8562   21.4848 C.3     1  UNL1        0.1027
     23 O          -2.1016  -20.3395   21.2617 O.3     1  UNL1       -0.3854
     24 C          -2.4800  -17.5204   22.0605 C.3     1  UNL1        0.0283
     25 C          -1.8226  -16.2752   21.5434 C.3     1  UNL1        0.0024
     26 C          -0.7991  -16.3658   20.4506 C.3     1  UNL1        0.0002
     27 C          -0.4329  -17.7016   19.8749 C.3     1  UNL1        0.0024
     28 C          -1.0902  -18.9468   20.3920 C.3     1  UNL1        0.0283
     29 H          -2.7313  -20.7625   21.8661 H       1  UNL1        0.2103
@<TRIPOS>BOND
     1     1     2    2
     2     2    18    1
     3    18    19    1
     4    19    21    1
     5    21    22    1
     6    22    23    1
     7    22    24    1
     8    24    25    1
     9    25    26    1
    10    26    27    1
    11    27    28    1
    12     2     3   am
    13     3     4    1
    14     4     5    1
    15     5     6    1
    16     6     7   ar
    17     7     8   ar
    18     8     9   ar
    19     9    10   ar
    20    10    11   ar
    21    11    12    1
    22    12    13    1
    23    13    14    1
    24    14    15    1
    25    15    16    1
    26    16    17    1
    27    28    22    1
    28    12     3    1
    29    17    13    1
    30    11     6   ar
    31    19    20    1
    32    23    29    1
@<TRIPOS>MOLECULE
*****
 29 32 0 0 0
SMALL
GASTEIGER

@<TRIPOS>ATOM
      1 O          -7.4172  -17.9143   23.7738 O.2     1  UNL1       -0.2734
      2 C          -7.1137  -18.8702   22.6584 C.2     1  UNL1        0.2420
      3 N          -5.7938  -18.8004   21.9492 N.am    1  UNL1       -0.2760
      4 C          -5.4903  -19.7562   20.8337 C.3     1  UNL1        0.0983
      5 C          -4.1704  -19.6865   20.1245 C.3     1  UNL1        0.0476
      6 C          -3.1540  -18.6608   20.5307 C.ar    1  UNL1       -0.0229
      7 C          -1.8341  -18.5910   19.8214 C.ar    1  UNL1       -0.0045
      8 C          -0.8178  -17.5654   20.2276 C.ar    1  UNL1       -0.0003
      9 C          -1.1213  -16.6095   21.3431 C.ar    1  UNL1       -0.0003
     10 C          -2.4411  -16.6793   22.0523 C.ar    1  UNL1       -0.0030
     11 C          -3.4575  -17.7049   21.6461 C.ar    1  UNL1       -0.0082
     12 C          -4.7774  -17.7747   22.3554 C.3     1  UNL1        0.0975
     13 C          -5.0809  -16.8189   23.4708 C.3     1  UNL1        0.0224
     14 C          -5.8730  -15.5504   23.3540 C.3     1  UNL1        0.0020
     15 C          -5.9273  -14.9112   24.7099 C.3     1  UNL1        0.0001
     16 C          -5.1687  -15.7846   25.6647 C.3     1  UNL1        0.0001
     17 C          -4.6457  -16.9636   24.8989 C.3     1  UNL1        0.0020
     18 C          -8.1301  -19.8958   22.2522 C.3     1  UNL1        0.1552
     19 N          -9.3359  -20.1378   23.1109 N.3     1  UNL1       -0.2879
     20 H          -9.2649  -19.5009   23.9044 H       1  UNL1        0.1238
     21 C         -10.7115  -19.9643   22.5382 C.3     1  UNL1        0.0961
     22 C         -11.4064  -18.6393   22.6443 C.3     1  UNL1        0.1027
     23 O         -11.3922  -19.0423   24.0891 O.3     1  UNL1       -0.3854
     24 C         -11.1793  -18.6965   21.1627 C.3     1  UNL1        0.0283
     25 C         -11.6421  -17.5686   20.2889 C.3     1  UNL1        0.0024
     26 C         -12.3322  -16.3835   20.8966 C.3     1  UNL1        0.0002
     27 C         -12.5593  -16.3263   22.3782 C.3     1  UNL1        0.0024
     28 C         -12.0965  -17.4541   23.2520 C.3     1  UNL1        0.0283
     29 H         -10.9604  -19.9061   24.1796 H       1  UNL1        0.2103
@<TRIPOS>BOND
     1     1     2    2
     2     2    18    1
     3    18    19    1
     4    19    21    1
     5    21    22    1
     6    22    23    1
     7    22    24    1
     8    24    25    1
     9    25    26    1
    10    26    27    1
    11    27    28    1
    12     2     3   am
    13     3     4    1
    14     4     5    1
    15     5     6    1
    16     6     7   ar
    17     7     8   ar
    18     8     9   ar
    19     9    10   ar
    20    10    11   ar
    21    11    12    1
    22    12    13    1
    23    13    14    1
    24    14    15    1
    25    15    16    1
    26    16    17    1
    27    28    22    1
    28    12     3    1
    29    17    13    1
    30    11     6   ar
    31    19    20    1
    32    23    29    1
@<TRIPOS>MOLECULE
*****
 29 32 0 0 0
SMALL
GASTEIGER

@<TRIPOS>ATOM
      1 O         -12.1284   -7.6411   17.3882 O.2     1  UNL1       -0.2734
      2 C         -13.6173   -7.6016   17.5655 C.2     1  UNL1        0.2420
      3 N         -14.2923   -6.3206   17.9572 N.am    1  UNL1       -0.2760
      4 C         -15.7812   -6.2811   18.1346 C.3     1  UNL1        0.0983
      5 C         -16.4562   -5.0001   18.5262 C.3     1  UNL1        0.0476
      6 C         -15.6422   -3.7585   18.7406 C.ar    1  UNL1       -0.0229
      7 C         -16.3172   -2.4775   19.1322 C.ar    1  UNL1       -0.0045
      8 C         -15.5032   -1.2360   19.3465 C.ar    1  UNL1       -0.0003
      9 C         -14.0143   -1.2754   19.1692 C.ar    1  UNL1       -0.0003
     10 C         -13.3393   -2.5564   18.7775 C.ar    1  UNL1       -0.0030
     11 C         -14.1533   -3.7979   18.5632 C.ar    1  UNL1       -0.0082
     12 C         -13.4783   -5.0790   18.1715 C.3     1  UNL1        0.0975
     13 C         -11.9893   -5.1185   17.9942 C.3     1  UNL1        0.0224
     14 C         -11.2464   -4.8608   16.7168 C.3     1  UNL1        0.0020
     15 C          -9.7798   -5.0056   16.9962 C.3     1  UNL1        0.0001
     16 C          -9.6163   -5.3528   18.4463 C.3     1  UNL1        0.0001
     17 C         -10.9818   -5.4225   19.0631 C.3     1  UNL1        0.0020
     18 C         -14.4313   -8.8432   17.3512 C.3     1  UNL1        0.1552
     19 N         -14.8105   -9.7025   18.5207 N.3     1  UNL1       -0.2879
     20 H         -14.5737   -9.1763   19.3618 H       1  UNL1        0.1238
     21 C         -16.2284  -10.1642   18.6837 C.3     1  UNL1        0.0961
     22 C         -17.2184   -9.3039   19.4115 C.3     1  UNL1        0.1027
     23 O         -16.0607   -9.2306   20.3626 O.3     1  UNL1       -0.3854
     24 C         -18.0321   -9.6760   18.2077 C.3     1  UNL1        0.0283
     25 C         -19.4338   -9.1623   18.0619 C.3     1  UNL1        0.0024
     26 C         -20.0218   -8.2765   19.1200 C.3     1  UNL1        0.0002
     27 C         -19.2081   -7.9044   20.3239 C.3     1  UNL1        0.0024
     28 C         -17.8063   -8.4181   20.4697 C.3     1  UNL1        0.0283
     29 H         -15.3228   -9.7553   20.0148 H       1  UNL1        0.2103
@<TRIPOS>BOND
     1     1     2    2
     2     2    18    1
     3    18    19    1
     4    19    21    1
     5    21    22    1
     6    22    23    1
     7    22    24    1
     8    24    25    1
     9    25    26    1
    10    26    27    1
    11    27    28    1
    12     2     3   am
    13     3     4    1
    14     4     5    1
    15     5     6    1
    16     6     7   ar
    17     7     8   ar
    18     8     9   ar
    19     9    10   ar
    20    10    11   ar
    21    11    12    1
    22    12    13    1
    23    13    14    1
    24    14    15    1
    25    15    16    1
    26    16    17    1
    27    28    22    1
    28    12     3    1
    29    17    13    1
    30    11     6   ar
    31    19    20    1
    32    23    29    1
@<TRIPOS>MOLECULE
*****
 29 32 0 0 0
SMALL
GASTEIGER

@<TRIPOS>ATOM
      1 O         -12.0081   -6.2378   18.1367 O.2     1  UNL1       -0.2734
      2 C         -13.3045   -5.8627   18.7914 C.2     1  UNL1        0.2420
      3 N         -13.7113   -4.4215   18.8785 N.am    1  UNL1       -0.2760
      4 C         -15.0077   -4.0464   19.5332 C.3     1  UNL1        0.0983
      5 C         -15.4145   -2.6053   19.6203 C.3     1  UNL1        0.0476
      6 C         -14.5250   -1.5392   19.0526 C.ar    1  UNL1       -0.0229
      7 C         -14.9318   -0.0980   19.1397 C.ar    1  UNL1       -0.0045
      8 C         -14.0423    0.9680   18.5720 C.ar    1  UNL1       -0.0003
      9 C         -12.7459    0.5929   17.9173 C.ar    1  UNL1       -0.0003
     10 C         -12.3390   -0.8482   17.8302 C.ar    1  UNL1       -0.0030
     11 C         -13.2286   -1.9143   18.3979 C.ar    1  UNL1       -0.0082
     12 C         -12.8217   -3.3555   18.3108 C.3     1  UNL1        0.0975
     13 C         -11.5254   -3.7306   17.6561 C.3     1  UNL1        0.0224
     14 C         -11.3190   -3.9896   16.1931 C.3     1  UNL1        0.0020
     15 C          -9.8738   -4.3316   15.9822 C.3     1  UNL1        0.0001
     16 C          -9.1870   -4.2840   17.3149 C.3     1  UNL1        0.0001
     17 C         -10.2077   -3.9125   18.3494 C.3     1  UNL1        0.0020
     18 C         -14.1940   -6.9287   19.3591 C.3     1  UNL1        0.1552
     19 N         -14.0623   -8.3459   18.8857 N.3     1  UNL1       -0.2879
     20 H         -14.5347   -8.9315   19.5745 H       1  UNL1        0.1238
     21 C         -14.5982   -8.7405   17.5414 C.3     1  UNL1        0.0961
     22 C         -16.0780   -8.7469   17.2963 C.3     1  UNL1        0.1027
     23 O         -15.6778   -7.5795   16.4436 O.3     1  UNL1       -0.3854
     24 C         -15.9642   -9.9120   18.2341 C.3     1  UNL1        0.0283
     25 C         -17.1913  -10.6782   18.6307 C.3     1  UNL1        0.0024
     26 C         -18.5321  -10.2792   18.0894 C.3     1  UNL1        0.0002
     27 C         -18.6459   -9.1141   17.1516 C.3     1  UNL1        0.0024
     28 C         -17.4188   -8.3479   16.7550 C.3     1  UNL1        0.0283
     29 H         -14.7184   -7.4494   16.5032 H       1  UNL1        0.2103
@<TRIPOS>BOND
     1     1     2    2
     2     2    18    1
     3    18    19    1
     4    19    21    1
     5    21    22    1
     6    22    23    1
     7    22    24    1
     8    24    25    1
     9    25    26    1
    10    26    27    1
    11    27    28    1
    12     2     3   am
    13     3     4    1
    14     4     5    1
    15     5     6    1
    16     6     7   ar
    17     7     8   ar
    18     8     9   ar
    19     9    10   ar
    20    10    11   ar
    21    11    12    1
    22    12    13    1
    23    13    14    1
    24    14    15    1
    25    15    16    1
    26    16    17    1
    27    28    22    1
    28    12     3    1
    29    17    13    1
    30    11     6   ar
    31    19    20    1
    32    23    29    1
@<TRIPOS>MOLECULE
*****
 29 32 0 0 0
SMALL
GASTEIGER

@<TRIPOS>ATOM
      1 O           5.8373   -3.6353   21.9783 O.2     1  UNL1       -0.2734
      2 C           5.3222   -2.7715   23.0913 C.2     1  UNL1        0.2420
      3 N           4.1988   -1.8106   22.8365 N.am    1  UNL1       -0.2760
      4 C           3.6837   -0.9469   23.9494 C.3     1  UNL1        0.0983
      5 C           2.5604    0.0139   23.6946 C.3     1  UNL1        0.0476
      6 C           1.9522    0.1111   22.3269 C.ar    1  UNL1       -0.0229
      7 C           0.8289    1.0719   22.0721 C.ar    1  UNL1       -0.0045
      8 C           0.2207    1.1690   20.7044 C.ar    1  UNL1       -0.0003
      9 C           0.7358    0.3053   19.5915 C.ar    1  UNL1       -0.0003
     10 C           1.8591   -0.6556   19.8463 C.ar    1  UNL1       -0.0030
     11 C           2.4673   -0.7527   21.2139 C.ar    1  UNL1       -0.0082
     12 C           3.5906   -1.7135   21.4688 C.3     1  UNL1        0.0975
     13 C           4.1057   -2.5773   20.3558 C.3     1  UNL1        0.0224
     14 C           5.1445   -2.1881   19.3462 C.3     1  UNL1        0.0020
     15 C           5.3533   -3.3521   18.4235 C.3     1  UNL1        0.0001
     16 C           4.4435   -4.4608   18.8629 C.3     1  UNL1        0.0001
     17 C           3.6725   -3.9820   20.0571 C.3     1  UNL1        0.0020
     18 C           5.9304   -2.8686   24.4590 C.3     1  UNL1        0.1552
     19 N           6.2458   -4.2125   25.0458 N.3     1  UNL1       -0.2879
     20 H           5.5060   -4.8466   24.7440 H       1  UNL1        0.1238
     21 C           7.5486   -4.8836   24.7256 C.3     1  UNL1        0.0961
     22 C           7.8449   -6.2473   25.2757 C.3     1  UNL1        0.1027
     23 O           7.8002   -6.5618   23.8097 O.3     1  UNL1       -0.3854
     24 C           7.7867   -5.4591   26.5506 C.3     1  UNL1        0.0283
     25 C           8.0093   -6.1438   27.8665 C.3     1  UNL1        0.0024
     26 C           8.2901   -7.6168   27.9074 C.3     1  UNL1        0.0002
     27 C           8.3482   -8.4050   26.6325 C.3     1  UNL1        0.0024
     28 C           8.1257   -7.7202   25.3166 C.3     1  UNL1        0.0283
     29 H           7.6119   -5.7516   23.3107 H       1  UNL1        0.2103
@<TRIPOS>BOND
     1     1     2    2
     2     2    18    1
     3    18    19    1
     4    19    21    1
     5    21    22    1
     6    22    23    1
     7    22    24    1
     8    24    25    1
     9    25    26    1
    10    26    27    1
    11    27    28    1
    12     2     3   am
    13     3     4    1
    14     4     5    1
    15     5     6    1
    16     6     7   ar
    17     7     8   ar
    18     8     9   ar
    19     9    10   ar
    20    10    11   ar
    21    11    12    1
    22    12    13    1
    23    13    14    1
    24    14    15    1
    25    15    16    1
    26    16    17    1
    27    28    22    1
    28    12     3    1
    29    17    13    1
    30    11     6   ar
    31    19    20    1
    32    23    29    1
@<TRIPOS>MOLECULE
*****
 29 32 0 0 0
SMALL
GASTEIGER

@<TRIPOS>ATOM
      1 O           6.3139   -4.3498   21.9542 O.2     1  UNL1       -0.2734
      2 C           6.0474   -3.5763   23.2115 C.2     1  UNL1        0.2420
      3 N           4.9746   -2.5281   23.2340 N.am    1  UNL1       -0.2760
      4 C           4.7080   -1.7546   24.4912 C.3     1  UNL1        0.0983
      5 C           3.6352   -0.7065   24.5137 C.3     1  UNL1        0.0476
      6 C           2.8290   -0.4318   23.2790 C.ar    1  UNL1       -0.0229
      7 C           1.7562    0.6163   23.3015 C.ar    1  UNL1       -0.0045
      8 C           0.9500    0.8909   22.0668 C.ar    1  UNL1       -0.0003
      9 C           1.2165    0.1174   20.8095 C.ar    1  UNL1       -0.0003
     10 C           2.2893   -0.9307   20.7870 C.ar    1  UNL1       -0.0030
     11 C           3.0955   -1.2053   22.0217 C.ar    1  UNL1       -0.0082
     12 C           4.1683   -2.2535   21.9992 C.3     1  UNL1        0.0975
     13 C           4.4349   -3.0270   20.7420 C.3     1  UNL1        0.0224
     14 C           3.8451   -4.3591   20.3846 C.3     1  UNL1        0.0020
     15 C           4.3837   -4.7596   19.0431 C.3     1  UNL1        0.0001
     16 C           5.3064   -3.6751   18.5715 C.3     1  UNL1        0.0001
     17 C           5.3380   -2.6043   19.6215 C.3     1  UNL1        0.0020
     18 C           6.8536   -3.8509   24.4462 C.3     1  UNL1        0.1552
     19 N           6.2493   -4.6257   25.5795 N.3     1  UNL1       -0.2879
     20 H           5.4862   -5.1763   25.1859 H       1  UNL1        0.1238
     21 C           7.0974   -5.5702   26.3787 C.3     1  UNL1        0.0961
     22 C           7.1294   -5.4668   27.8748 C.3     1  UNL1        0.1027
     23 O           5.6797   -5.7914   27.6670 O.3     1  UNL1       -0.3854
     24 C           8.5679   -5.1781   27.5629 C.3     1  UNL1        0.0283
     25 C           9.5350   -4.8987   28.6750 C.3     1  UNL1        0.0024
     26 C           9.0635   -4.9080   30.0989 C.3     1  UNL1        0.0002
     27 C           7.6250   -5.1966   30.4108 C.3     1  UNL1        0.0024
     28 C           6.6579   -5.4760   29.2987 C.3     1  UNL1        0.0283
     29 H           5.5033   -5.8905   26.7184 H       1  UNL1        0.2103
@<TRIPOS>BOND
     1     1     2    2
     2     2    18    1
     3    18    19    1
     4    19    21    1
     5    21    22    1
     6    22    23    1
     7    22    24    1
     8    24    25    1
     9    25    26    1
    10    26    27    1
    11    27    28    1
    12     2     3   am
    13     3     4    1
    14     4     5    1
    15     5     6    1
    16     6     7   ar
    17     7     8   ar
    18     8     9   ar
    19     9    10   ar
    20    10    11   ar
    21    11    12    1
    22    12    13    1
    23    13    14    1
    24    14    15    1
    25    15    16    1
    26    16    17    1
    27    28    22    1
    28    12     3    1
    29    17    13    1
    30    11     6   ar
    31    19    20    1
    32    23    29    1
@<TRIPOS>MOLECULE
*****
 29 32 0 0 0
SMALL
GASTEIGER

@<TRIPOS>ATOM
      1 O           6.2185   -1.2368   21.6432 O.2     1  UNL1       -0.2734
      2 C           7.0798   -2.2164   20.9026 C.2     1  UNL1        0.2420
      3 N           7.5289   -3.4792   21.5761 N.am    1  UNL1       -0.2760
      4 C           8.3902   -4.4588   20.8354 C.3     1  UNL1        0.0983
      5 C           8.8393   -5.7216   21.5089 C.3     1  UNL1        0.0476
      6 C           8.4271   -6.0049   22.9231 C.ar    1  UNL1       -0.0229
      7 C           8.8762   -7.2677   23.5965 C.ar    1  UNL1       -0.0045
      8 C           8.4639   -7.5509   25.0106 C.ar    1  UNL1       -0.0003
      9 C           7.6026   -6.5714   25.7513 C.ar    1  UNL1       -0.0003
     10 C           7.1535   -5.3086   25.0779 C.ar    1  UNL1       -0.0030
     11 C           7.5657   -5.0253   23.6637 C.ar    1  UNL1       -0.0082
     12 C           7.1166   -3.7625   22.9902 C.3     1  UNL1        0.0975
     13 C           6.2553   -2.7829   23.7309 C.3     1  UNL1        0.0224
     14 C           4.7568   -2.7258   23.6983 C.3     1  UNL1        0.0020
     15 C           4.3166   -1.5960   24.5814 C.3     1  UNL1        0.0001
     16 C           5.5431   -0.9550   25.1599 C.3     1  UNL1        0.0001
     17 C           6.7413   -1.6885   24.6342 C.3     1  UNL1        0.0020
     18 C           7.4920   -1.9331   19.4884 C.3     1  UNL1        0.1552
     19 N           6.6343   -2.3992   18.3496 N.3     1  UNL1       -0.2879
     20 H           7.0200   -3.2899   18.0359 H       1  UNL1        0.1238
     21 C           5.1640   -2.6128   18.5564 C.3     1  UNL1        0.0961
     22 C           4.1989   -1.4966   18.2874 C.3     1  UNL1        0.1027
     23 O           5.0840   -1.3714   17.0829 O.3     1  UNL1       -0.3854
     24 C           3.6489   -2.0094   19.5853 C.3     1  UNL1        0.0283
     25 C           2.4412   -1.3625   20.1960 C.3     1  UNL1        0.0024
     26 C           1.7834   -0.2027   19.5087 C.3     1  UNL1        0.0002
     27 C           2.3334    0.3101   18.2108 C.3     1  UNL1        0.0024
     28 C           3.5411   -0.3368   17.6001 C.3     1  UNL1        0.0283
     29 H           5.7772   -2.0490   17.1193 H       1  UNL1        0.2103
@<TRIPOS>BOND
     1     1     2    2
     2     2    18    1
     3    18    19    1
     4    19    21    1
     5    21    22    1
     6    22    23    1
     7    22    24    1
     8    24    25    1
     9    25    26    1
    10    26    27    1
    11    27    28    1
    12     2     3   am
    13     3     4    1
    14     4     5    1
    15     5     6    1
    16     6     7   ar
    17     7     8   ar
    18     8     9   ar
    19     9    10   ar
    20    10    11   ar
    21    11    12    1
    22    12    13    1
    23    13    14    1
    24    14    15    1
    25    15    16    1
    26    16    17    1
    27    28    22    1
    28    12     3    1
    29    17    13    1
    30    11     6   ar
    31    19    20    1
    32    23    29    1
@<TRIPOS>MOLECULE
*****
 29 32 0 0 0
SMALL
GASTEIGER

@<TRIPOS>ATOM
      1 O         -11.2796   -4.4863   18.0181 O.2     1  UNL1       -0.2734
      2 C         -12.4343   -5.0562   18.7874 C.2     1  UNL1        0.2420
      3 N         -13.6406   -4.2094   19.0663 N.am    1  UNL1       -0.2760
      4 C         -14.7954   -4.7794   19.8356 C.3     1  UNL1        0.0983
      5 C         -16.0017   -3.9327   20.1146 C.3     1  UNL1        0.0476
      6 C         -16.0533   -2.5160   19.6242 C.ar    1  UNL1       -0.0229
      7 C         -17.2596   -1.6693   19.9032 C.ar    1  UNL1       -0.0045
      8 C         -17.3112   -0.2527   19.4129 C.ar    1  UNL1       -0.0003
      9 C         -16.1565    0.3173   18.6436 C.ar    1  UNL1       -0.0003
     10 C         -14.9502   -0.5294   18.3646 C.ar    1  UNL1       -0.0030
     11 C         -14.8986   -1.9460   18.8549 C.ar    1  UNL1       -0.0082
     12 C         -13.6922   -2.7928   18.5760 C.3     1  UNL1        0.0975
     13 C         -12.5375   -2.2229   17.8067 C.3     1  UNL1        0.0224
     14 C         -12.3484   -2.2919   16.3203 C.3     1  UNL1        0.0020
     15 C         -11.0632   -1.5956   15.9836 C.3     1  UNL1        0.0001
     16 C         -10.4580   -1.0961   17.2621 C.3     1  UNL1        0.0001
     17 C         -11.3692   -1.4839   18.3887 C.3     1  UNL1        0.0020
     18 C         -12.3827   -6.4728   19.2777 C.3     1  UNL1        0.1552
     19 N         -12.5696   -7.6072   18.3143 N.3     1  UNL1       -0.2879
     20 H         -12.3569   -8.4646   18.8242 H       1  UNL1        0.1238
     21 C         -13.8985   -7.8163   17.6506 C.3     1  UNL1        0.0961
     22 C         -15.1144   -8.1038   18.4806 C.3     1  UNL1        0.1027
     23 O         -14.1449   -9.0693   19.0956 O.3     1  UNL1       -0.3854
     24 C         -15.6614   -7.0385   17.5774 C.3     1  UNL1        0.0283
     25 C         -17.0878   -6.5960   17.7178 C.3     1  UNL1        0.0024
     26 C         -17.9670   -7.2188   18.7614 C.3     1  UNL1        0.0002
     27 C         -17.4199   -8.2841   19.6646 C.3     1  UNL1        0.0024
     28 C         -15.9936   -8.7266   19.5242 C.3     1  UNL1        0.0283
     29 H         -13.2874   -8.9957   18.6482 H       1  UNL1        0.2103
@<TRIPOS>BOND
     1     1     2    2
     2     2    18    1
     3    18    19    1
     4    19    21    1
     5    21    22    1
     6    22    23    1
     7    22    24    1
     8    24    25    1
     9    25    26    1
    10    26    27    1
    11    27    28    1
    12     2     3   am
    13     3     4    1
    14     4     5    1
    15     5     6    1
    16     6     7   ar
    17     7     8   ar
    18     8     9   ar
    19     9    10   ar
    20    10    11   ar
    21    11    12    1
    22    12    13    1
    23    13    14    1
    24    14    15    1
    25    15    16    1
    26    16    17    1
    27    28    22    1
    28    12     3    1
    29    17    13    1
    30    11     6   ar
    31    19    20    1
    32    23    29    1
@<TRIPOS>MOLECULE
*****
 29 32 0 0 0
SMALL
GASTEIGER

@<TRIPOS>ATOM
      1 O           2.8815   -2.2764   19.8072 O.2     1  UNL1       -0.2734
      2 C           4.1379   -2.3061   18.9883 C.2     1  UNL1        0.2420
      3 N           4.7021   -1.0315   18.4339 N.am    1  UNL1       -0.2760
      4 C           5.9585   -1.0612   17.6151 C.3     1  UNL1        0.0983
      5 C           6.5227    0.2133   17.0607 C.3     1  UNL1        0.0476
      6 C           5.8305    1.5175   17.3252 C.ar    1  UNL1       -0.0229
      7 C           6.3947    2.7920   16.7708 C.ar    1  UNL1       -0.0045
      8 C           5.7025    4.0961   17.0353 C.ar    1  UNL1       -0.0003
      9 C           4.4460    4.1258   17.8542 C.ar    1  UNL1       -0.0003
     10 C           3.8819    2.8513   18.4085 C.ar    1  UNL1       -0.0030
     11 C           4.5741    1.5472   18.1440 C.ar    1  UNL1       -0.0082
     12 C           4.0099    0.2726   18.6984 C.3     1  UNL1        0.0975
     13 C           2.7535    0.3023   19.5173 C.3     1  UNL1        0.0224
     14 C           1.3530    0.2187   18.9866 C.3     1  UNL1        0.0020
     15 C           0.4109    0.2855   20.1520 C.3     1  UNL1        0.0001
     16 C           1.2291    0.4104   21.4029 C.3     1  UNL1        0.0001
     17 C           2.6769    0.4208   21.0106 C.3     1  UNL1        0.0020
     18 C           4.8301   -3.6102   18.7238 C.3     1  UNL1        0.1552
     19 N           5.5382   -4.3228   19.8377 N.3     1  UNL1       -0.2879
     20 H           6.2337   -4.9299   19.4038 H       1  UNL1        0.1238
     21 C           6.2510   -3.5364   20.8977 C.3     1  UNL1        0.0961
     22 C           5.4802   -2.9533   22.0448 C.3     1  UNL1        0.1027
     23 O           4.9052   -4.3385   22.0220 O.3     1  UNL1       -0.3854
     24 C           6.3228   -1.7706   21.6691 C.3     1  UNL1        0.0283
     25 C           6.1950   -0.4858   22.4326 C.3     1  UNL1        0.0024
     26 C           5.2245   -0.3837   23.5718 C.3     1  UNL1        0.0002
     27 C           4.3818   -1.5664   23.9474 C.3     1  UNL1        0.0024
     28 C           4.5096   -2.8512   23.1839 C.3     1  UNL1        0.0283
     29 H           5.3203   -4.8493   21.3094 H       1  UNL1        0.2103
@<TRIPOS>BOND
     1     1     2    2
     2     2    18    1
     3    18    19    1
     4    19    21    1
     5    21    22    1
     6    22    23    1
     7    22    24    1
     8    24    25    1
     9    25    26    1
    10    26    27    1
    11    27    28    1
    12     2     3   am
    13     3     4    1
    14     4     5    1
    15     5     6    1
    16     6     7   ar
    17     7     8   ar
    18     8     9   ar
    19     9    10   ar
    20    10    11   ar
    21    11    12    1
    22    12    13    1
    23    13    14    1
    24    14    15    1
    25    15    16    1
    26    16    17    1
    27    28    22    1
    28    12     3    1
    29    17    13    1
    30    11     6   ar
    31    19    20    1
    32    23    29    1
