@<TRIPOS>MOLECULE
*****
 32 35 0 0 0
SMALL
GASTEIGER

@<TRIPOS>ATOM
      1 C         -14.2840   -0.6544   18.7525 C.2     1  UNL1        0.2534
      2 O         -13.3610    0.5164   18.5875 O.2     1  UNL1       -0.2695
      3 N         -15.7627   -0.4328   18.8720 N.am    1  UNL1       -0.2965
      4 H         -16.3685   -1.2012   18.9803 H       1  UNL1        0.1501
      5 C         -10.0374   -7.2550   18.9033 C.3     1  UNL1        0.0537
      6 C         -11.2146   -6.3254   18.9053 C.ar    1  UNL1        0.0771
      7 N         -12.6065   -6.8782   18.9883 N.ar    1  UNL1       -0.1522
      8 N         -13.7838   -5.9486   18.9903 N.ar    1  UNL1       -0.1416
      9 C         -13.5691   -4.4663   18.9095 C.ar    1  UNL1        0.1333
     10 S         -14.5277   -3.3127   18.8918 S.2     1  UNL1       -0.0604
     11 C         -13.7282   -2.0470   18.7980 C.ar    1  UNL1        0.0971
     12 C         -12.2755   -2.4183   18.7577 C.ar    1  UNL1        0.0538
     13 N         -11.1234   -1.4623   18.6647 N.pl3   1  UNL1       -0.3564
     14 C         -12.1772   -3.9135   18.8266 C.ar    1  UNL1        0.0363
     15 C         -10.9999   -4.8431   18.8245 C.ar    1  UNL1       -0.0033
     16 C          -9.6079   -4.2903   18.7416 C.3     1  UNL1        0.0324
     17 H         -11.2902   -0.4928   18.6242 H       1  UNL1        0.1424
     18 H         -10.2004   -1.8042   18.6443 H       1  UNL1        0.1424
     19 C         -16.3183    0.9597   18.8265 C.3     1  UNL1        0.1166
     20 C         -16.4271    1.7654   20.0871 C.ar    1  UNL1       -0.0026
     21 C         -17.2185    1.2392   21.2476 C.ar    1  UNL1       -0.0026
     22 C         -17.3272    2.0449   22.5081 C.ar    1  UNL1       -0.0002
     23 C         -16.6446    3.3768   22.6082 C.ar    1  UNL1        0.0015
     24 C         -15.8532    3.9030   21.4477 C.ar    1  UNL1       -0.0002
     25 C         -15.7445    3.0973   20.1872 C.ar    1  UNL1       -0.0026
     26 C         -16.7533    4.1825   23.8688 C.ar    1  UNL1        0.0193
     27 C         -15.5122    4.6253   24.5853 C.ar    1  UNL1        0.0055
     28 C         -15.6210    5.4310   25.8460 C.ar    1  UNL1        0.0497
     29 C         -16.9709    5.7939   26.3900 C.ar    1  UNL1        0.2223
     30 F         -17.0797    6.5995   27.6505 F       1  UNL1       -0.1832
     31 N         -18.2121    5.3511   25.6734 N.ar    1  UNL1       -0.2165
     32 C         -18.1033    4.5454   24.4128 C.ar    1  UNL1        0.1012
@<TRIPOS>BOND
     1     5     6    1
     2     6     7   ar
     3     7     8   ar
     4     8     9   ar
     5     9    10   ar
     6    10    11   ar
     7    11     1    1
     8     1     2    2
     9     1     3   am
    10     3    19    1
    11    19    20    1
    12    20    21   ar
    13    21    22   ar
    14    22    23   ar
    15    23    26    1
    16    26    27   ar
    17    27    28   ar
    18    28    29   ar
    19    29    30    1
    20    29    31   ar
    21    31    32   ar
    22    23    24   ar
    23    24    25   ar
    24    11    12   ar
    25    12    13    1
    26    12    14   ar
    27    14    15   ar
    28    15    16    1
    29    15     6   ar
    30    14     9   ar
    31    25    20   ar
    32    32    26   ar
    33     3     4    1
    34    13    17    1
    35    13    18    1
@<TRIPOS>MOLECULE
*****
 32 35 0 0 0
SMALL
GASTEIGER

@<TRIPOS>ATOM
      1 C          -1.7408    4.2418   18.5219 C.2     1  UNL1        0.2534
      2 O          -1.7748    3.7553   17.1034 O.2     1  UNL1       -0.2695
      3 N          -0.4254    4.4974   19.1959 N.am    1  UNL1       -0.2965
      4 H          -0.4031    4.8167   20.1269 H       1  UNL1        0.1501
      5 C          -7.8393    4.5428   23.4557 C.3     1  UNL1        0.0537
      6 C          -6.9719    4.7855   22.2563 C.ar    1  UNL1        0.0771
      7 N          -7.4567    5.6711   21.1469 N.ar    1  UNL1       -0.1522
      8 N          -6.5893    5.9138   19.9475 N.ar    1  UNL1       -0.1416
      9 C          -5.2370    5.2711   19.8574 C.ar    1  UNL1        0.1333
     10 S          -4.1680    5.3250   18.8066 S.2     1  UNL1       -0.0604
     11 C          -3.0224    4.4728   19.2665 C.ar    1  UNL1        0.0971
     12 C          -3.3835    3.8921   20.6015 C.ar    1  UNL1        0.0538
     13 N          -2.5264    2.9785   21.4266 N.pl3   1  UNL1       -0.3564
     14 C          -4.7522    4.3855   20.9668 C.ar    1  UNL1        0.0363
     15 C          -5.6196    4.1427   22.1662 C.ar    1  UNL1       -0.0033
     16 C          -5.1347    3.2571   23.2756 C.3     1  UNL1        0.0324
     17 H          -1.6374    2.7094   21.1000 H       1  UNL1        0.1424
     18 H          -2.8527    2.6480   22.2946 H       1  UNL1        0.1424
     19 C           0.8561    4.2664   18.4514 C.3     1  UNL1        0.1166
     20 C           1.5236    2.9242   18.5057 C.ar    1  UNL1       -0.0026
     21 C           0.7001    1.6837   18.6872 C.ar    1  UNL1       -0.0026
     22 C           1.3676    0.3416   18.7415 C.ar    1  UNL1       -0.0002
     23 C           2.8588    0.2399   18.6143 C.ar    1  UNL1        0.0015
     24 C           3.6823    1.4804   18.4328 C.ar    1  UNL1       -0.0002
     25 C           3.0148    2.8225   18.3784 C.ar    1  UNL1       -0.0026
     26 C           3.5263   -1.1023   18.6686 C.ar    1  UNL1        0.0193
     27 C           3.0068   -2.1614   19.5951 C.ar    1  UNL1        0.0055
     28 C           3.6744   -3.5036   19.6495 C.ar    1  UNL1        0.0497
     29 C           4.8614   -3.7867   18.7772 C.ar    1  UNL1        0.2223
     30 F           5.5290   -5.1288   18.8315 F       1  UNL1       -0.1832
     31 N           5.3809   -2.7275   17.8507 N.ar    1  UNL1       -0.2165
     32 C           4.7134   -1.3854   17.7964 C.ar    1  UNL1        0.1012
@<TRIPOS>BOND
     1     5     6    1
     2     6     7   ar
     3     7     8   ar
     4     8     9   ar
     5     9    10   ar
     6    10    11   ar
     7    11     1    1
     8     1     2    2
     9     1     3   am
    10     3    19    1
    11    19    20    1
    12    20    21   ar
    13    21    22   ar
    14    22    23   ar
    15    23    26    1
    16    26    27   ar
    17    27    28   ar
    18    28    29   ar
    19    29    30    1
    20    29    31   ar
    21    31    32   ar
    22    23    24   ar
    23    24    25   ar
    24    11    12   ar
    25    12    13    1
    26    12    14   ar
    27    14    15   ar
    28    15    16    1
    29    15     6   ar
    30    14     9   ar
    31    25    20   ar
    32    32    26   ar
    33     3     4    1
    34    13    17    1
    35    13    18    1
@<TRIPOS>MOLECULE
*****
 32 35 0 0 0
SMALL
GASTEIGER

@<TRIPOS>ATOM
      1 C          -2.2620    3.2405   25.3980 C.2     1  UNL1        0.2534
      2 O          -1.9188    2.9891   26.8364 O.2     1  UNL1       -0.2695
      3 N          -1.2380    2.9978   24.3291 N.am    1  UNL1       -0.2965
      4 H          -1.4633    3.1628   23.3851 H       1  UNL1        0.1501
      5 C          -9.4056    6.4465   24.8369 C.3     1  UNL1        0.0537
      6 C          -8.1615    5.6844   24.4883 C.ar    1  UNL1        0.0771
      7 N          -8.0417    5.0156   23.1511 N.ar    1  UNL1       -0.1522
      8 N          -6.7977    4.2534   22.8025 N.ar    1  UNL1       -0.1416
      9 C          -5.6735    4.1601   23.7911 C.ar    1  UNL1        0.1333
     10 S          -4.3361    3.4837   23.7293 S.2     1  UNL1       -0.0604
     11 C          -3.6294    3.7344   25.0285 C.ar    1  UNL1        0.0971
     12 C          -4.5300    4.5658   25.8931 C.ar    1  UNL1        0.0538
     13 N          -4.2215    5.0492   27.2792 N.pl3   1  UNL1       -0.3564
     14 C          -5.7933    4.8289   25.1284 C.ar    1  UNL1        0.0363
     15 C          -7.0374    5.5910   25.4770 C.ar    1  UNL1       -0.0033
     16 C          -7.1572    6.2598   26.8143 C.3     1  UNL1        0.0324
     17 H          -3.3600    4.8234   27.6989 H       1  UNL1        0.1424
     18 H          -4.8804    5.5924   27.7691 H       1  UNL1        0.1424
     19 C           0.1292    2.5039   24.6987 C.3     1  UNL1        0.1166
     20 C           0.8662    1.5772   23.7777 C.ar    1  UNL1       -0.0026
     21 C           1.9706    0.7128   24.3098 C.ar    1  UNL1       -0.0026
     22 C           2.7075   -0.2139   23.3888 C.ar    1  UNL1       -0.0002
     23 C           2.3400   -0.2762   21.9359 C.ar    1  UNL1        0.0015
     24 C           1.2356    0.5882   21.4038 C.ar    1  UNL1       -0.0002
     25 C           0.4987    1.5149   22.3248 C.ar    1  UNL1       -0.0026
     26 C           3.0770   -1.2030   21.0149 C.ar    1  UNL1        0.0193
     27 C           3.9117   -2.3141   21.5794 C.ar    1  UNL1        0.0055
     28 C           4.6487   -3.2408   20.6584 C.ar    1  UNL1        0.0497
     29 C           4.5509   -3.0564   19.1730 C.ar    1  UNL1        0.2223
     30 F           5.2878   -3.9831   18.2521 F       1  UNL1       -0.1832
     31 N           3.7161   -1.9452   18.6086 N.ar    1  UNL1       -0.2165
     32 C           2.9792   -1.0186   19.5295 C.ar    1  UNL1        0.1012
@<TRIPOS>BOND
     1     5     6    1
     2     6     7   ar
     3     7     8   ar
     4     8     9   ar
     5     9    10   ar
     6    10    11   ar
     7    11     1    1
     8     1     2    2
     9     1     3   am
    10     3    19    1
    11    19    20    1
    12    20    21   ar
    13    21    22   ar
    14    22    23   ar
    15    23    26    1
    16    26    27   ar
    17    27    28   ar
    18    28    29   ar
    19    29    30    1
    20    29    31   ar
    21    31    32   ar
    22    23    24   ar
    23    24    25   ar
    24    11    12   ar
    25    12    13    1
    26    12    14   ar
    27    14    15   ar
    28    15    16    1
    29    15     6   ar
    30    14     9   ar
    31    25    20   ar
    32    32    26   ar
    33     3     4    1
    34    13    17    1
    35    13    18    1
@<TRIPOS>MOLECULE
*****
 32 35 0 0 0
SMALL
GASTEIGER

@<TRIPOS>ATOM
      1 C         -15.0883   -1.4108   19.1854 C.2     1  UNL1        0.2534
      2 O         -16.3848   -1.9149   19.7467 O.2     1  UNL1       -0.2695
      3 N         -14.9682    0.0165   18.7403 N.am    1  UNL1       -0.2965
      4 H         -14.1172    0.3473   18.3719 H       1  UNL1        0.1501
      5 C          -9.9567   -7.3351   18.7451 C.3     1  UNL1        0.0537
      6 C         -10.5198   -5.9450   18.7675 C.ar    1  UNL1        0.0771
      7 N          -9.6083   -4.7640   18.6111 N.ar    1  UNL1       -0.1522
      8 N         -10.1713   -3.3739   18.6335 N.ar    1  UNL1       -0.1416
      9 C         -11.6458   -3.1647   18.8123 C.ar    1  UNL1        0.1333
     10 S         -12.4830   -1.9216   18.8744 S.2     1  UNL1       -0.0604
     11 C         -13.9119   -2.3343   19.0692 C.ar    1  UNL1        0.0971
     12 C         -13.9579   -3.8324   19.1275 C.ar    1  UNL1        0.0538
     13 N         -15.1882   -4.6703   19.3122 N.pl3   1  UNL1       -0.3564
     14 C         -12.5573   -4.3456   18.9687 C.ar    1  UNL1        0.0363
     15 C         -11.9943   -5.7358   18.9463 C.ar    1  UNL1       -0.0033
     16 C         -12.9058   -6.9168   19.1028 C.3     1  UNL1        0.0324
     17 H         -16.0679   -4.2386   19.4081 H       1  UNL1        0.1424
     18 H         -15.1162   -5.6518   19.3375 H       1  UNL1        0.1424
     19 C         -16.1445    0.9399   18.8564 C.3     1  UNL1        0.1166
     20 C         -16.3415    1.7505   20.1031 C.ar    1  UNL1       -0.0026
     21 C         -15.7233    3.1123   20.2178 C.ar    1  UNL1       -0.0026
     22 C         -15.9204    3.9228   21.4644 C.ar    1  UNL1       -0.0002
     23 C         -16.7356    3.3715   22.5964 C.ar    1  UNL1        0.0015
     24 C         -17.3537    2.0097   22.4818 C.ar    1  UNL1       -0.0002
     25 C         -17.1567    1.1991   21.2352 C.ar    1  UNL1       -0.0026
     26 C         -16.9326    4.1821   23.8431 C.ar    1  UNL1        0.0193
     27 C         -15.7443    4.6372   24.6374 C.ar    1  UNL1        0.0055
     28 C         -15.9413    5.4478   25.8841 C.ar    1  UNL1        0.0497
     29 C         -17.3266    5.8033   26.3365 C.ar    1  UNL1        0.2223
     30 F         -17.5236    6.6138   27.5831 F       1  UNL1       -0.1832
     31 N         -18.5149    5.3482   25.5421 N.ar    1  UNL1       -0.2165
     32 C         -18.3178    4.5376   24.2955 C.ar    1  UNL1        0.1012
@<TRIPOS>BOND
     1     5     6    1
     2     6     7   ar
     3     7     8   ar
     4     8     9   ar
     5     9    10   ar
     6    10    11   ar
     7    11     1    1
     8     1     2    2
     9     1     3   am
    10     3    19    1
    11    19    20    1
    12    20    21   ar
    13    21    22   ar
    14    22    23   ar
    15    23    26    1
    16    26    27   ar
    17    27    28   ar
    18    28    29   ar
    19    29    30    1
    20    29    31   ar
    21    31    32   ar
    22    23    24   ar
    23    24    25   ar
    24    11    12   ar
    25    12    13    1
    26    12    14   ar
    27    14    15   ar
    28    15    16    1
    29    15     6   ar
    30    14     9   ar
    31    25    20   ar
    32    32    26   ar
    33     3     4    1
    34    13    17    1
    35    13    18    1
@<TRIPOS>MOLECULE
*****
 32 35 0 0 0
SMALL
GASTEIGER

@<TRIPOS>ATOM
      1 C         -15.9722    3.3419   21.0951 C.2     1  UNL1        0.2534
      2 O         -14.8342    3.9659   20.3431 O.2     1  UNL1       -0.2695
      3 N         -16.6857    2.1523   20.5244 N.am    1  UNL1       -0.2965
      4 H         -17.4326    1.7427   21.0179 H       1  UNL1        0.1501
      5 C         -16.7413    6.6759   28.1603 C.3     1  UNL1        0.0537
      6 C         -17.0795    5.9718   26.8797 C.ar    1  UNL1        0.0771
      7 N         -18.4914    5.5432   26.6098 N.ar    1  UNL1       -0.1522
      8 N         -18.8297    4.8391   25.3293 N.ar    1  UNL1       -0.1416
      9 C         -17.7561    4.5635   24.3187 C.ar    1  UNL1        0.1333
     10 S         -17.7886    3.8932   22.9772 S.2     1  UNL1       -0.0604
     11 C         -16.3968    3.9075   22.4180 C.ar    1  UNL1        0.0971
     12 C         -15.5041    4.5867   23.4139 C.ar    1  UNL1        0.0538
     13 N         -14.0301    4.8195   23.2618 N.pl3   1  UNL1       -0.3564
     14 C         -16.3442    4.9921   24.5886 C.ar    1  UNL1        0.0363
     15 C         -16.0059    5.6963   25.8691 C.ar    1  UNL1       -0.0033
     16 C         -14.5940    6.1249   26.1390 C.3     1  UNL1        0.0324
     17 H         -13.5648    4.5149   22.4494 H       1  UNL1        0.1424
     18 H         -13.5279    5.2770   23.9744 H       1  UNL1        0.1424
     19 C         -16.2611    1.5867   19.2016 C.3     1  UNL1        0.1166
     20 C         -15.2957    0.4397   19.1513 C.ar    1  UNL1       -0.0026
     21 C         -15.6725   -0.8844   19.7470 C.ar    1  UNL1       -0.0026
     22 C         -14.7071   -2.0313   19.6967 C.ar    1  UNL1       -0.0002
     23 C         -13.3649   -1.8541   19.0508 C.ar    1  UNL1        0.0015
     24 C         -12.9881   -0.5300   18.4551 C.ar    1  UNL1       -0.0002
     25 C         -13.9535    0.6169   18.5054 C.ar    1  UNL1       -0.0026
     26 C         -12.3995   -3.0011   19.0005 C.ar    1  UNL1        0.0193
     27 C         -10.9877   -2.7738   18.5477 C.ar    1  UNL1        0.0055
     28 C         -10.0223   -3.9208   18.4974 C.ar    1  UNL1        0.0497
     29 C         -10.4687   -5.2950   18.9001 C.ar    1  UNL1        0.2223
     30 F          -9.5034   -6.4420   18.8499 F       1  UNL1       -0.1832
     31 N         -11.8806   -5.5223   19.3530 N.ar    1  UNL1       -0.2165
     32 C         -12.8459   -4.3753   19.4032 C.ar    1  UNL1        0.1012
@<TRIPOS>BOND
     1     5     6    1
     2     6     7   ar
     3     7     8   ar
     4     8     9   ar
     5     9    10   ar
     6    10    11   ar
     7    11     1    1
     8     1     2    2
     9     1     3   am
    10     3    19    1
    11    19    20    1
    12    20    21   ar
    13    21    22   ar
    14    22    23   ar
    15    23    26    1
    16    26    27   ar
    17    27    28   ar
    18    28    29   ar
    19    29    30    1
    20    29    31   ar
    21    31    32   ar
    22    23    24   ar
    23    24    25   ar
    24    11    12   ar
    25    12    13    1
    26    12    14   ar
    27    14    15   ar
    28    15    16    1
    29    15     6   ar
    30    14     9   ar
    31    25    20   ar
    32    32    26   ar
    33     3     4    1
    34    13    17    1
    35    13    18    1
@<TRIPOS>MOLECULE
*****
 32 35 0 0 0
SMALL
GASTEIGER

@<TRIPOS>ATOM
      1 C          -2.9669    3.3583   21.6813 C.2     1  UNL1        0.2534
      2 O          -3.9036    2.9577   20.5804 O.2     1  UNL1       -0.2695
      3 N          -1.4841    3.2599   21.4774 N.am    1  UNL1       -0.2965
      4 H          -0.8693    3.5228   22.2000 H       1  UNL1        0.1501
      5 C          -7.0264    6.3641   27.6904 C.3     1  UNL1        0.0537
      6 C          -5.9264    5.7109   26.9074 C.ar    1  UNL1        0.0771
      7 N          -4.6721    5.2691   27.6013 N.ar    1  UNL1       -0.1522
      8 N          -3.5720    4.6159   26.8182 N.ar    1  UNL1       -0.1416
      9 C          -3.7262    4.4046   25.3412 C.ar    1  UNL1        0.1333
     10 S          -2.8193    3.7933   24.3146 S.2     1  UNL1       -0.0604
     11 C          -3.5130    3.8575   22.9862 C.ar    1  UNL1        0.0971
     12 C          -4.8487    4.5083   23.1918 C.ar    1  UNL1        0.0538
     13 N          -5.8729    4.7743   22.1286 N.pl3   1  UNL1       -0.3564
     14 C          -4.9805    4.8464   24.6473 C.ar    1  UNL1        0.0363
     15 C          -6.0805    5.4996   25.4304 C.ar    1  UNL1       -0.0033
     16 C          -7.3348    5.9415   24.7364 C.3     1  UNL1        0.0324
     17 H          -5.6934    4.5142   21.1962 H       1  UNL1        0.1424
     18 H          -6.7245    5.2091   22.3632 H       1  UNL1        0.1424
     19 C          -0.9380    2.7607   20.1726 C.3     1  UNL1        0.1166
     20 C           0.1252    1.7026   20.1601 C.ar    1  UNL1       -0.0026
     21 C           0.5393    1.0404   21.4406 C.ar    1  UNL1       -0.0026
     22 C           1.6024   -0.0177   21.4281 C.ar    1  UNL1       -0.0002
     23 C           2.2515   -0.4135   20.1350 C.ar    1  UNL1        0.0015
     24 C           1.8373    0.2488   18.8544 C.ar    1  UNL1       -0.0002
     25 C           0.7742    1.3069   18.8670 C.ar    1  UNL1       -0.0026
     26 C           3.3147   -1.4716   20.1224 C.ar    1  UNL1        0.0193
     27 C           3.8198   -2.0426   21.4142 C.ar    1  UNL1        0.0055
     28 C           4.8830   -3.1007   21.4017 C.ar    1  UNL1        0.0497
     29 C           5.4410   -3.5877   20.0974 C.ar    1  UNL1        0.2223
     30 F           6.5042   -4.6458   20.0848 F       1  UNL1       -0.1832
     31 N           4.9359   -3.0167   18.8055 N.ar    1  UNL1       -0.2165
     32 C           3.8727   -1.9586   18.8181 C.ar    1  UNL1        0.1012
@<TRIPOS>BOND
     1     5     6    1
     2     6     7   ar
     3     7     8   ar
     4     8     9   ar
     5     9    10   ar
     6    10    11   ar
     7    11     1    1
     8     1     2    2
     9     1     3   am
    10     3    19    1
    11    19    20    1
    12    20    21   ar
    13    21    22   ar
    14    22    23   ar
    15    23    26    1
    16    26    27   ar
    17    27    28   ar
    18    28    29   ar
    19    29    30    1
    20    29    31   ar
    21    31    32   ar
    22    23    24   ar
    23    24    25   ar
    24    11    12   ar
    25    12    13    1
    26    12    14   ar
    27    14    15   ar
    28    15    16    1
    29    15     6   ar
    30    14     9   ar
    31    25    20   ar
    32    32    26   ar
    33     3     4    1
    34    13    17    1
    35    13    18    1
@<TRIPOS>MOLECULE
*****
 32 35 0 0 0
SMALL
GASTEIGER

@<TRIPOS>ATOM
      1 C           6.5853   -4.5758   24.0930 C.2     1  UNL1        0.2534
      2 O           7.3868   -5.3212   23.0674 O.2     1  UNL1       -0.2695
      3 N           5.4342   -3.7147   23.6646 N.am    1  UNL1       -0.2965
      4 H           4.9082   -3.2255   24.3377 H       1  UNL1        0.1501
      5 C           8.8749   -6.5675   31.3328 C.3     1  UNL1        0.0537
      6 C           8.3251   -5.7685   30.1885 C.ar    1  UNL1        0.0771
      7 N           7.8311   -4.3711   30.4184 N.ar    1  UNL1       -0.1522
      8 N           7.2813   -3.5721   29.2741 N.ar    1  UNL1       -0.1416
      9 C           7.2256   -4.1707   27.8998 C.ar    1  UNL1        0.1333
     10 S           6.7405   -3.6289   26.5879 S.2     1  UNL1       -0.0604
     11 C           6.9348   -4.6915   25.5472 C.ar    1  UNL1        0.0971
     12 C           7.5400   -5.8901   26.2159 C.ar    1  UNL1        0.0538
     13 N           7.9019   -7.1834   25.5479 N.pl3   1  UNL1       -0.3564
     14 C           7.7197   -5.5682   27.6699 C.ar    1  UNL1        0.0363
     15 C           8.2695   -6.3671   28.8143 C.ar    1  UNL1       -0.0033
     16 C           8.7636   -7.7646   28.5843 C.3     1  UNL1        0.0324
     17 H           7.7449   -7.2999   24.5830 H       1  UNL1        0.1424
     18 H           8.2964   -7.9159   26.0744 H       1  UNL1        0.1424
     19 C           5.0847   -3.5991   22.2105 C.3     1  UNL1        0.1166
     20 C           4.1387   -2.5302   21.7492 C.ar    1  UNL1       -0.0026
     21 C           3.6958   -2.4880   20.3167 C.ar    1  UNL1       -0.0026
     22 C           2.7498   -1.4191   19.8555 C.ar    1  UNL1       -0.0002
     23 C           2.2468   -0.3926   20.8267 C.ar    1  UNL1        0.0015
     24 C           2.6898   -0.4349   22.2591 C.ar    1  UNL1       -0.0002
     25 C           3.6358   -1.5037   22.7204 C.ar    1  UNL1       -0.0026
     26 C           1.3008    0.6762   20.3654 C.ar    1  UNL1        0.0193
     27 C           1.4275    1.2442   18.9829 C.ar    1  UNL1        0.0055
     28 C           0.4815    2.3130   18.5216 C.ar    1  UNL1        0.0497
     29 C          -0.5911    2.8139   19.4428 C.ar    1  UNL1        0.2223
     30 F          -1.5371    3.8827   18.9816 F       1  UNL1       -0.1832
     31 N          -0.7177    2.2459   20.8254 N.ar    1  UNL1       -0.2165
     32 C           0.2283    1.1771   21.2867 C.ar    1  UNL1        0.1012
@<TRIPOS>BOND
     1     5     6    1
     2     6     7   ar
     3     7     8   ar
     4     8     9   ar
     5     9    10   ar
     6    10    11   ar
     7    11     1    1
     8     1     2    2
     9     1     3   am
    10     3    19    1
    11    19    20    1
    12    20    21   ar
    13    21    22   ar
    14    22    23   ar
    15    23    26    1
    16    26    27   ar
    17    27    28   ar
    18    28    29   ar
    19    29    30    1
    20    29    31   ar
    21    31    32   ar
    22    23    24   ar
    23    24    25   ar
    24    11    12   ar
    25    12    13    1
    26    12    14   ar
    27    14    15   ar
    28    15    16    1
    29    15     6   ar
    30    14     9   ar
    31    25    20   ar
    32    32    26   ar
    33     3     4    1
    34    13    17    1
    35    13    18    1
@<TRIPOS>MOLECULE
*****
 32 35 0 0 0
SMALL
GASTEIGER

@<TRIPOS>ATOM
      1 C           6.5303   -3.9664   24.3390 C.2     1  UNL1        0.2534
      2 O           7.7468   -4.0287   23.4636 O.2     1  UNL1       -0.2695
      3 N           5.1901   -3.6587   23.7398 N.am    1  UNL1       -0.2965
      4 H           4.3917   -3.6178   24.3144 H       1  UNL1        0.1501
      5 C           6.7619   -3.8076   32.1840 C.3     1  UNL1        0.0537
      6 C           6.8569   -4.3046   30.7720 C.ar    1  UNL1        0.0771
      7 N           7.2615   -5.7235   30.5019 N.ar    1  UNL1       -0.1522
      8 N           7.3566   -6.2205   29.0899 N.ar    1  UNL1       -0.1416
      9 C           7.0470   -5.2986   27.9479 C.ar    1  UNL1        0.1333
     10 S           7.0543   -5.5038   26.4620 S.2     1  UNL1       -0.0604
     11 C           6.6542   -4.2116   25.8137 C.ar    1  UNL1        0.0971
     12 C           6.3996   -3.2079   26.8989 C.ar    1  UNL1        0.0538
     13 N           5.9765   -1.7826   26.7000 N.pl3   1  UNL1       -0.3564
     14 C           6.6424   -3.8797   28.2179 C.ar    1  UNL1        0.0363
     15 C           6.5474   -3.3827   29.6299 C.ar    1  UNL1       -0.0033
     16 C           6.1428   -1.9637   29.8999 C.3     1  UNL1        0.0324
     17 H           5.8418   -1.4315   25.7902 H       1  UNL1        0.1424
     18 H           5.8336   -1.1983   27.4793 H       1  UNL1        0.1424
     19 C           5.0663   -3.4135   22.2652 C.3     1  UNL1        0.1166
     20 C           4.1148   -2.3719   21.7554 C.ar    1  UNL1       -0.0026
     21 C           3.7121   -2.3669   20.3105 C.ar    1  UNL1       -0.0026
     22 C           2.7607   -1.3253   19.8007 C.ar    1  UNL1       -0.0002
     23 C           2.2120   -0.2888   20.7359 C.ar    1  UNL1        0.0015
     24 C           2.6148   -0.2937   22.1807 C.ar    1  UNL1       -0.0002
     25 C           3.5662   -1.3353   22.6905 C.ar    1  UNL1       -0.0026
     26 C           1.2605    0.7528   20.2260 C.ar    1  UNL1        0.0193
     27 C           1.4329    1.3150   18.8461 C.ar    1  UNL1        0.0055
     28 C           0.4815    2.3566   18.3363 C.ar    1  UNL1        0.0497
     29 C          -0.6424    2.8360   19.2064 C.ar    1  UNL1        0.2223
     30 F          -1.5939    3.8775   18.6967 F       1  UNL1       -0.1832
     31 N          -0.8148    2.2737   20.5864 N.ar    1  UNL1       -0.2165
     32 C           0.1367    1.2322   21.0962 C.ar    1  UNL1        0.1012
@<TRIPOS>BOND
     1     5     6    1
     2     6     7   ar
     3     7     8   ar
     4     8     9   ar
     5     9    10   ar
     6    10    11   ar
     7    11     1    1
     8     1     2    2
     9     1     3   am
    10     3    19    1
    11    19    20    1
    12    20    21   ar
    13    21    22   ar
    14    22    23   ar
    15    23    26    1
    16    26    27   ar
    17    27    28   ar
    18    28    29   ar
    19    29    30    1
    20    29    31   ar
    21    31    32   ar
    22    23    24   ar
    23    24    25   ar
    24    11    12   ar
    25    12    13    1
    26    12    14   ar
    27    14    15   ar
    28    15    16    1
    29    15     6   ar
    30    14     9   ar
    31    25    20   ar
    32    32    26   ar
    33     3     4    1
    34    13    17    1
    35    13    18    1
@<TRIPOS>MOLECULE
*****
 32 35 0 0 0
SMALL
GASTEIGER

@<TRIPOS>ATOM
      1 C           6.2872   -3.7857   23.9648 C.2     1  UNL1        0.2534
      2 O           7.1763   -4.9763   23.7598 O.2     1  UNL1       -0.2695
      3 N           6.0860   -3.2283   25.3428 N.am    1  UNL1       -0.2965
      4 H           5.5025   -2.4469   25.4774 H       1  UNL1        0.1501
      5 C           3.8914   -0.9413   17.0516 C.3     1  UNL1        0.0537
      6 C           3.9181   -1.2855   18.5113 C.ar    1  UNL1        0.0771
      7 N           2.7802   -0.8772   19.3991 N.ar    1  UNL1       -0.1522
      8 N           2.8070   -1.2214   20.8589 N.ar    1  UNL1       -0.1416
      9 C           3.9717   -1.9739   21.4308 C.ar    1  UNL1        0.1333
     10 S           4.2743   -2.4499   22.8206 S.2     1  UNL1       -0.0604
     11 C           5.5993   -3.1525   22.7918 C.ar    1  UNL1        0.0971
     12 C           6.1156   -3.1107   21.3841 C.ar    1  UNL1        0.0538
     13 N           7.4104   -3.6947   20.9022 N.pl3   1  UNL1       -0.3564
     14 C           5.1096   -2.3822   20.5429 C.ar    1  UNL1        0.0363
     15 C           5.0828   -2.0380   19.0832 C.ar    1  UNL1       -0.0033
     16 C           6.2209   -2.4464   18.1953 C.3     1  UNL1        0.0324
     17 H           8.0073   -4.1569   21.5340 H       1  UNL1        0.1424
     18 H           7.6633   -3.6158   19.9540 H       1  UNL1        0.1424
     19 C           6.7739   -3.8615   26.5157 C.3     1  UNL1        0.1166
     20 C           6.4891   -3.3736   27.9053 C.ar    1  UNL1       -0.0026
     21 C           5.7948   -2.0601   28.1114 C.ar    1  UNL1       -0.0026
     22 C           5.5101   -1.5722   29.5010 C.ar    1  UNL1       -0.0002
     23 C           5.9196   -2.3979   30.6844 C.ar    1  UNL1        0.0015
     24 C           6.6139   -3.7114   30.4783 C.ar    1  UNL1       -0.0002
     25 C           6.8987   -4.1993   29.0888 C.ar    1  UNL1       -0.0026
     26 C           5.6348   -1.9100   32.0740 C.ar    1  UNL1        0.0193
     27 C           6.6213   -1.0233   32.7745 C.ar    1  UNL1        0.0055
     28 C           6.3365   -0.5354   34.1641 C.ar    1  UNL1        0.0497
     29 C           5.0652   -0.9342   34.8531 C.ar    1  UNL1        0.2223
     30 F           4.7804   -0.4463   36.2426 F       1  UNL1       -0.1832
     31 N           4.0787   -1.8208   34.1526 N.ar    1  UNL1       -0.2165
     32 C           4.3635   -2.3087   32.7630 C.ar    1  UNL1        0.1012
@<TRIPOS>BOND
     1     5     6    1
     2     6     7   ar
     3     7     8   ar
     4     8     9   ar
     5     9    10   ar
     6    10    11   ar
     7    11     1    1
     8     1     2    2
     9     1     3   am
    10     3    19    1
    11    19    20    1
    12    20    21   ar
    13    21    22   ar
    14    22    23   ar
    15    23    26    1
    16    26    27   ar
    17    27    28   ar
    18    28    29   ar
    19    29    30    1
    20    29    31   ar
    21    31    32   ar
    22    23    24   ar
    23    24    25   ar
    24    11    12   ar
    25    12    13    1
    26    12    14   ar
    27    14    15   ar
    28    15    16    1
    29    15     6   ar
    30    14     9   ar
    31    25    20   ar
    32    32    26   ar
    33     3     4    1
    34    13    17    1
    35    13    18    1
