@<TRIPOS>MOLECULE
*****
 24 28 0 0 0
SMALL
GASTEIGER

@<TRIPOS>ATOM
      1 N          -6.7821  -19.6321   20.9053 N.am    1  UNL1       -0.2214
      2 C          -5.6764  -18.8919   21.5979 C.3     1  UNL1        0.1428
      3 C          -4.3782  -19.5463   21.2287 C.3     1  UNL1        0.1706
      4 C          -3.1645  -20.3006   20.7728 C.3     1  UNL1        0.1145
      5 N          -1.8021  -19.8836   21.2421 N.3     1  UNL1       -0.2697
      6 C          -1.6535  -18.7123   22.1672 C.3     1  UNL1        0.0723
      7 C          -2.8672  -17.9579   22.6230 C.3     1  UNL1        0.0209
      8 C          -4.2296  -18.3749   22.1538 C.3     1  UNL1        0.0427
      9 C          -3.7424  -19.3517   21.4477 C.3     1  UNL1        0.0209
     10 C          -3.0951  -19.7540   21.2045 C.3     1  UNL1        0.0723
     11 O          -4.6815  -20.6908   20.3078 O.3     1  UNL1       -0.4384
     12 C          -6.1671  -20.7439   20.1079 C.2     1  UNL1        0.4086
     13 O          -6.9078  -21.7348   19.2597 O.2     1  UNL1       -0.2258
     14 C         -13.8490  -17.9704   23.8918 C.3     1  UNL1        0.0721
     15 C         -12.6332  -18.2727   23.0670 C.ar    1  UNL1        0.1193
     16 O         -12.5830  -18.3625   21.5706 O.2     1  UNL1       -0.4581
     17 C         -11.1728  -18.6836   21.1725 C.ar    1  UNL1        0.1446
     18 C         -10.5305  -18.8910   19.8329 C.ar    1  UNL1        0.0387
     19 C          -9.0670  -19.2072   19.7438 C.ar    1  UNL1        0.0181
     20 C          -8.2457  -19.3159   20.9943 C.ar    1  UNL1        0.0573
     21 C          -8.8880  -19.1085   22.3338 C.ar    1  UNL1        0.0178
     22 C         -10.3516  -18.7923   22.4229 C.ar    1  UNL1        0.0344
     23 C         -11.2541  -18.5384   23.5938 C.ar    1  UNL1        0.0115
     24 C         -10.8488  -18.5484   25.0380 C.3     1  UNL1        0.0340
@<TRIPOS>BOND
     1    14    15    1
     2    15    16   ar
     3    16    17   ar
     4    17    18   ar
     5    18    19   ar
     6    19    20   ar
     7    20     1    1
     8     1     2    1
     9     3     2    1
    10     3     4    1
    11     4     5    1
    12     5     6    1
    13     6     7    1
    14     7     8    1
    15     8     9    1
    16     9    10    1
    17     3    11    1
    18    11    12    1
    19    12    13    2
    20    20    21   ar
    21    21    22   ar
    22    22    23   ar
    23    23    24    1
    24    23    15   ar
    25    22    17   ar
    26    12     1   am
    27     8     3    1
    28    10     5    1
@<TRIPOS>MOLECULE
*****
 24 28 0 0 0
SMALL
GASTEIGER

@<TRIPOS>ATOM
      1 N          -6.9402  -19.1788   21.4581 N.am    1  UNL1       -0.2214
      2 C          -5.5379  -19.0820   21.9816 C.3     1  UNL1        0.1428
      3 C          -4.6121  -18.9606   20.8076 C.3     1  UNL1        0.1706
      4 C          -3.8141  -18.8464   19.5427 C.3     1  UNL1        0.1145
      5 N          -2.3204  -18.7246   19.6066 N.3     1  UNL1       -0.2697
      6 C          -1.6247  -18.7171   20.9355 C.3     1  UNL1        0.0723
      7 C          -2.4227  -18.8313   22.2004 C.3     1  UNL1        0.0209
      8 C          -3.9164  -18.9530   22.1365 C.3     1  UNL1        0.0427
      9 C          -3.9151  -18.9038   20.8375 C.3     1  UNL1        0.0209
     10 C          -3.4895  -18.8429   20.1628 C.3     1  UNL1        0.0723
     11 O          -5.4423  -18.9824   19.5585 O.3     1  UNL1       -0.4384
     12 C          -6.8812  -19.1172   19.9605 C.2     1  UNL1        0.4086
     13 O          -8.0548  -19.1795   19.0285 O.2     1  UNL1       -0.2258
     14 C         -14.1401  -17.8828   24.3048 C.3     1  UNL1        0.0721
     15 C         -12.7558  -18.3425   23.9554 C.ar    1  UNL1        0.1193
     16 O         -12.0135  -19.4748   24.6011 O.2     1  UNL1       -0.4581
     17 C         -10.6695  -19.5828   23.9437 C.ar    1  UNL1        0.1446
     18 C          -9.5148  -20.5137   24.1671 C.ar    1  UNL1        0.0387
     19 C          -8.2717  -20.3791   23.3386 C.ar    1  UNL1        0.0181
     20 C          -8.1833  -19.3135   22.2866 C.ar    1  UNL1        0.0573
     21 C          -9.3380  -18.3825   22.0632 C.ar    1  UNL1        0.0178
     22 C         -10.5811  -18.5172   22.8918 C.ar    1  UNL1        0.0344
     23 C         -11.8706  -17.7507   22.8990 C.ar    1  UNL1        0.0115
     24 C         -12.2143  -16.5952   22.0065 C.3     1  UNL1        0.0340
@<TRIPOS>BOND
     1    14    15    1
     2    15    16   ar
     3    16    17   ar
     4    17    18   ar
     5    18    19   ar
     6    19    20   ar
     7    20     1    1
     8     1     2    1
     9     3     2    1
    10     3     4    1
    11     4     5    1
    12     5     6    1
    13     6     7    1
    14     7     8    1
    15     8     9    1
    16     9    10    1
    17     3    11    1
    18    11    12    1
    19    12    13    2
    20    20    21   ar
    21    21    22   ar
    22    22    23   ar
    23    23    24    1
    24    23    15   ar
    25    22    17   ar
    26    12     1   am
    27     8     3    1
    28    10     5    1
@<TRIPOS>MOLECULE
*****
 24 28 0 0 0
SMALL
GASTEIGER

@<TRIPOS>ATOM
      1 N          -9.5989  -18.6228   21.7330 N.am    1  UNL1       -0.2214
      2 C         -10.2940  -18.8407   23.0443 C.3     1  UNL1        0.1428
      3 C         -11.7003  -18.3357   22.9131 C.3     1  UNL1        0.1706
      4 C         -13.0703  -17.7923   22.6340 C.3     1  UNL1        0.1145
      5 N         -14.1184  -17.8135   23.7068 N.3     1  UNL1       -0.2697
      6 C         -13.7967  -18.3782   25.0587 C.3     1  UNL1        0.0723
      7 C         -12.4267  -18.9215   25.3377 C.3     1  UNL1        0.0209
      8 C         -11.3785  -18.9003   24.2650 C.3     1  UNL1        0.0427
      9 C         -12.1895  -18.3456   23.4137 C.3     1  UNL1        0.0209
     10 C         -12.9201  -18.0558   23.2649 C.3     1  UNL1        0.0723
     11 O         -11.8744  -17.8056   21.5207 O.3     1  UNL1       -0.4384
     12 C         -10.5757  -17.9831   20.7914 C.2     1  UNL1        0.4086
     13 O         -10.3018  -17.5899   19.3700 O.2     1  UNL1       -0.2258
     14 C          -1.7585  -18.8522   22.0443 C.3     1  UNL1        0.0721
     15 C          -3.2258  -18.9956   21.7682 C.ar    1  UNL1        0.1193
     16 O          -3.8435  -19.8614   20.7105 O.2     1  UNL1       -0.4581
     17 C          -5.3327  -19.6993   20.7900 C.ar    1  UNL1        0.1446
     18 C          -6.4521  -20.3065   19.9975 C.ar    1  UNL1        0.0387
     19 C          -7.8742  -19.9477   20.3118 C.ar    1  UNL1        0.0181
     20 C          -8.1768  -18.9817   21.4187 C.ar    1  UNL1        0.0573
     21 C          -7.0574  -18.3745   22.2112 C.ar    1  UNL1        0.0178
     22 C          -5.6353  -18.7333   21.8968 C.ar    1  UNL1        0.0344
     23 C          -4.3332  -18.2984   22.5014 C.ar    1  UNL1        0.0115
     24 C          -4.1676  -17.3353   23.6394 C.3     1  UNL1        0.0340
@<TRIPOS>BOND
     1    14    15    1
     2    15    16   ar
     3    16    17   ar
     4    17    18   ar
     5    18    19   ar
     6    19    20   ar
     7    20     1    1
     8     1     2    1
     9     3     2    1
    10     3     4    1
    11     4     5    1
    12     5     6    1
    13     6     7    1
    14     7     8    1
    15     8     9    1
    16     9    10    1
    17     3    11    1
    18    11    12    1
    19    12    13    2
    20    20    21   ar
    21    21    22   ar
    22    22    23   ar
    23    23    24    1
    24    23    15   ar
    25    22    17   ar
    26    12     1   am
    27     8     3    1
    28    10     5    1
@<TRIPOS>MOLECULE
*****
 24 28 0 0 0
SMALL
GASTEIGER

@<TRIPOS>ATOM
      1 N          -5.6561  -19.1946   20.7336 N.am    1  UNL1       -0.2214
      2 C          -4.6852  -18.5204   19.8101 C.3     1  UNL1        0.1428
      3 C          -3.2982  -18.8880   20.2471 C.3     1  UNL1        0.1706
      4 C          -1.9783  -19.3401   20.7981 C.3     1  UNL1        0.1145
      5 N          -0.7018  -18.8860   20.1545 N.3     1  UNL1       -0.2697
      6 C          -0.7450  -17.9799   18.9600 C.3     1  UNL1        0.0723
      7 C          -2.0648  -17.5277   18.4090 C.3     1  UNL1        0.0209
      8 C          -3.3414  -17.9818   19.0526 C.3     1  UNL1        0.0427
      9 C          -2.7024  -18.6761   19.9468 C.3     1  UNL1        0.0209
     10 C          -1.9985  -18.9172   20.2406 C.3     1  UNL1        0.0723
     11 O          -3.4119  -19.7893   21.4407 O.3     1  UNL1       -0.4384
     12 C          -4.8691  -19.9788   21.7414 C.2     1  UNL1        0.4086
     13 O          -5.4393  -20.8071   22.8544 O.2     1  UNL1       -0.2258
     14 C         -13.1019  -17.6809   22.7061 C.3     1  UNL1        0.0721
     15 C         -11.7935  -18.0704   22.0847 C.ar    1  UNL1        0.1193
     16 O         -11.6105  -18.6937   20.7327 O.2     1  UNL1       -0.4581
     17 C         -10.1421  -18.9136   20.5185 C.ar    1  UNL1        0.1446
     18 C          -9.3712  -19.4946   19.3705 C.ar    1  UNL1        0.0387
     19 C          -7.8759  -19.5883   19.4421 C.ar    1  UNL1        0.0181
     20 C          -7.1515  -19.1009   20.6619 C.ar    1  UNL1        0.0573
     21 C          -7.9224  -18.5199   21.8099 C.ar    1  UNL1        0.0178
     22 C          -9.4178  -18.4262   21.7382 C.ar    1  UNL1        0.0344
     23 C         -10.4384  -17.9051   22.7062 C.ar    1  UNL1        0.0115
     24 C         -10.1538  -17.3212   24.0582 C.3     1  UNL1        0.0340
@<TRIPOS>BOND
     1    14    15    1
     2    15    16   ar
     3    16    17   ar
     4    17    18   ar
     5    18    19   ar
     6    19    20   ar
     7    20     1    1
     8     1     2    1
     9     3     2    1
    10     3     4    1
    11     4     5    1
    12     5     6    1
    13     6     7    1
    14     7     8    1
    15     8     9    1
    16     9    10    1
    17     3    11    1
    18    11    12    1
    19    12    13    2
    20    20    21   ar
    21    21    22   ar
    22    22    23   ar
    23    23    24    1
    24    23    15   ar
    25    22    17   ar
    26    12     1   am
    27     8     3    1
    28    10     5    1
@<TRIPOS>MOLECULE
*****
 24 28 0 0 0
SMALL
GASTEIGER

@<TRIPOS>ATOM
      1 N          -7.7468  -18.8713   20.8081 N.am    1  UNL1       -0.2214
      2 C          -8.6394  -17.9668   21.6051 C.3     1  UNL1        0.1428
      3 C         -10.0327  -18.0970   21.0650 C.3     1  UNL1        0.1706
      4 C         -11.3676  -18.3302   20.4220 C.3     1  UNL1        0.1145
      5 N         -12.5795  -17.6031   20.9245 N.3     1  UNL1       -0.2697
      6 C         -12.4565  -16.6427   22.0701 C.3     1  UNL1        0.0723
      7 C         -11.1217  -16.4094   22.7131 C.3     1  UNL1        0.0209
      8 C          -9.9097  -17.1365   22.2106 C.3     1  UNL1        0.0427
      9 C         -10.5983  -17.7576   21.2996 C.3     1  UNL1        0.0209
     10 C         -11.3102  -17.8820   20.9566 C.3     1  UNL1        0.0723
     11 O         -10.0013  -19.0819   19.9342 O.3     1  UNL1       -0.4384
     12 C          -8.5886  -19.5605   19.7754 C.2     1  UNL1        0.4086
     13 O          -8.1029  -20.5539   18.7619 O.2     1  UNL1       -0.2258
     14 C           0.0112  -18.3638   19.7235 C.3     1  UNL1        0.0721
     15 C          -1.4007  -18.6204   20.1598 C.ar    1  UNL1        0.1193
     16 O          -1.8223  -19.4271   21.3520 O.2     1  UNL1       -0.4581
     17 C          -3.3213  -19.4207   21.4096 C.ar    1  UNL1        0.1446
     18 C          -4.2917  -20.0483   22.3658 C.ar    1  UNL1        0.0387
     19 C          -5.7669  -19.8652   22.1653 C.ar    1  UNL1        0.0181
     20 C          -6.2716  -19.0545   21.0086 C.ar    1  UNL1        0.0573
     21 C          -5.3012  -18.4269   20.0524 C.ar    1  UNL1        0.0178
     22 C          -3.8260  -18.6100   20.2530 C.ar    1  UNL1        0.0344
     23 C          -2.6390  -18.1154   19.4805 C.ar    1  UNL1        0.0115
     24 C          -2.6827  -17.2650   18.2456 C.3     1  UNL1        0.0340
@<TRIPOS>BOND
     1    14    15    1
     2    15    16   ar
     3    16    17   ar
     4    17    18   ar
     5    18    19   ar
     6    19    20   ar
     7    20     1    1
     8     1     2    1
     9     3     2    1
    10     3     4    1
    11     4     5    1
    12     5     6    1
    13     6     7    1
    14     7     8    1
    15     8     9    1
    16     9    10    1
    17     3    11    1
    18    11    12    1
    19    12    13    2
    20    20    21   ar
    21    21    22   ar
    22    22    23   ar
    23    23    24    1
    24    23    15   ar
    25    22    17   ar
    26    12     1   am
    27     8     3    1
    28    10     5    1
@<TRIPOS>MOLECULE
*****
 24 28 0 0 0
SMALL
GASTEIGER

@<TRIPOS>ATOM
      1 N          -8.6236  -19.2632   22.3645 N.am    1  UNL1       -0.2214
      2 C          -9.5473  -18.1564   21.9500 C.3     1  UNL1        0.1428
      3 C         -10.7963  -18.2619   22.7739 C.3     1  UNL1        0.1706
      4 C         -11.9793  -18.4921   23.6669 C.3     1  UNL1        0.1145
      5 N         -13.1709  -17.5849   23.5820 N.3     1  UNL1       -0.2697
      6 C         -13.1794  -16.4475   22.6041 C.3     1  UNL1        0.0723
      7 C         -11.9964  -16.2174   21.7112 C.3     1  UNL1        0.0209
      8 C         -10.8048  -17.1246   21.7960 C.3     1  UNL1        0.0427
      9 C         -11.3524  -17.8386   22.7343 C.3     1  UNL1        0.0209
     10 C         -11.9833  -17.9613   23.2106 C.3     1  UNL1        0.0723
     11 O         -10.6445  -19.4340   23.6977 O.3     1  UNL1       -0.4384
     12 C          -9.3017  -20.0528   23.4446 C.2     1  UNL1        0.4086
     13 O          -8.7364  -21.2508   24.1482 O.2     1  UNL1       -0.2258
     14 C          -0.9290  -18.6640   20.9309 C.3     1  UNL1        0.0721
     15 C          -2.3885  -18.9985   21.0194 C.ar    1  UNL1        0.1193
     16 O          -3.0869  -20.1003   20.2791 O.2     1  UNL1       -0.4581
     17 C          -4.5360  -20.0727   20.6658 C.ar    1  UNL1        0.1446
     18 C          -5.7015  -20.9218   20.2527 C.ar    1  UNL1        0.0387
     19 C          -7.0640  -20.6521   20.8189 C.ar    1  UNL1        0.0181
     20 C          -7.2611  -19.5331   21.7982 C.ar    1  UNL1        0.0573
     21 C          -6.0956  -18.6839   22.2113 C.ar    1  UNL1        0.0178
     22 C          -4.7331  -18.9538   21.6450 C.ar    1  UNL1        0.0344
     23 C          -3.4058  -18.2898   21.8636 C.ar    1  UNL1        0.0115
     24 C          -3.1423  -17.1223   22.7677 C.3     1  UNL1        0.0340
@<TRIPOS>BOND
     1    14    15    1
     2    15    16   ar
     3    16    17   ar
     4    17    18   ar
     5    18    19   ar
     6    19    20   ar
     7    20     1    1
     8     1     2    1
     9     3     2    1
    10     3     4    1
    11     4     5    1
    12     5     6    1
    13     6     7    1
    14     7     8    1
    15     8     9    1
    16     9    10    1
    17     3    11    1
    18    11    12    1
    19    12    13    2
    20    20    21   ar
    21    21    22   ar
    22    22    23   ar
    23    23    24    1
    24    23    15   ar
    25    22    17   ar
    26    12     1   am
    27     8     3    1
    28    10     5    1
@<TRIPOS>MOLECULE
*****
 24 28 0 0 0
SMALL
GASTEIGER

@<TRIPOS>ATOM
      1 N          -8.8661  -17.0864   22.8170 N.am    1  UNL1       -0.2214
      2 C          -9.8667  -17.8666   23.6170 C.3     1  UNL1        0.1428
      3 C         -11.2368  -17.3826   23.2446 C.3     1  UNL1        0.1706
      4 C         -12.5359  -16.7990   22.7737 C.3     1  UNL1        0.1145
      5 N         -13.8322  -17.3055   23.3333 N.3     1  UNL1       -0.2697
      6 C         -13.8294  -18.3955   24.3637 C.3     1  UNL1        0.0723
      7 C         -12.5304  -18.9791   24.8346 C.3     1  UNL1        0.0209
      8 C         -11.2340  -18.4726   24.2751 C.3     1  UNL1        0.0427
      9 C         -11.8418  -17.6189   23.5057 C.3     1  UNL1        0.0209
     10 C         -12.5346  -17.3077   23.2546 C.3     1  UNL1        0.0723
     11 O         -11.0829  -16.3032   22.2145 O.3     1  UNL1       -0.4384
     12 C          -9.6178  -16.1201   21.9502 C.2     1  UNL1        0.4086
     13 O          -9.0109  -15.1424   20.9880 O.2     1  UNL1       -0.2258
     14 C          -1.6285  -19.7807   21.4102 C.3     1  UNL1        0.0721
     15 C          -2.8786  -19.0824   21.8567 C.ar    1  UNL1        0.1193
     16 O          -2.9535  -17.9495   22.8369 O.2     1  UNL1       -0.4581
     17 C          -4.3946  -17.5612   22.9875 C.ar    1  UNL1        0.1446
     18 C          -5.0693  -16.5099   23.8178 C.ar    1  UNL1        0.0387
     19 C          -6.5598  -16.3516   23.7610 C.ar    1  UNL1        0.0181
     20 C          -7.3756  -17.2446   22.8739 C.ar    1  UNL1        0.0573
     21 C          -6.7008  -18.2959   22.0436 C.ar    1  UNL1        0.0178
     22 C          -5.2103  -18.4542   22.1004 C.ar    1  UNL1        0.0344
     23 C          -4.2734  -19.3944   21.4015 C.ar    1  UNL1        0.0115
     24 C          -4.6629  -20.4595   20.4198 C.3     1  UNL1        0.0340
@<TRIPOS>BOND
     1    14    15    1
     2    15    16   ar
     3    16    17   ar
     4    17    18   ar
     5    18    19   ar
     6    19    20   ar
     7    20     1    1
     8     1     2    1
     9     3     2    1
    10     3     4    1
    11     4     5    1
    12     5     6    1
    13     6     7    1
    14     7     8    1
    15     8     9    1
    16     9    10    1
    17     3    11    1
    18    11    12    1
    19    12    13    2
    20    20    21   ar
    21    21    22   ar
    22    22    23   ar
    23    23    24    1
    24    23    15   ar
    25    22    17   ar
    26    12     1   am
    27     8     3    1
    28    10     5    1
@<TRIPOS>MOLECULE
*****
 24 28 0 0 0
SMALL
GASTEIGER

@<TRIPOS>ATOM
      1 N          -6.4954  -17.2724   22.7157 N.am    1  UNL1       -0.2214
      2 C          -5.7323  -18.3167   21.9559 C.3     1  UNL1        0.1428
      3 C          -4.2813  -18.1804   22.3107 C.3     1  UNL1        0.1706
      4 C          -2.8728  -17.9255   22.7592 C.3     1  UNL1        0.1145
      5 N          -1.7523  -18.7695   22.2281 N.3     1  UNL1       -0.2697
      6 C          -2.0402  -19.8684   21.2486 C.3     1  UNL1        0.0723
      7 C          -3.4487  -20.1233   20.8002 C.3     1  UNL1        0.0209
      8 C          -4.5692  -19.2793   21.3313 C.3     1  UNL1        0.0427
      9 C          -3.7584  -18.5743   22.0629 C.3     1  UNL1        0.0209
     10 C          -3.0072  -18.4383   22.3021 C.3     1  UNL1        0.0723
     11 O          -4.1476  -17.0519   23.2898 O.3     1  UNL1       -0.4384
     12 C          -5.5160  -16.4908   23.5402 C.2     1  UNL1        0.4086
     13 O          -5.8468  -15.3485   24.4544 O.2     1  UNL1       -0.2258
     14 C         -14.1846  -18.1220   24.0485 C.3     1  UNL1        0.0721
     15 C         -12.7970  -17.7413   23.6248 C.ar    1  UNL1        0.1193
     16 O         -12.4353  -16.6228   22.6932 O.2     1  UNL1       -0.4581
     17 C         -10.9421  -16.6025   22.5509 C.ar    1  UNL1        0.1446
     18 C         -10.0210  -15.7198   21.7621 C.ar    1  UNL1        0.0387
     19 C          -8.5387  -15.9431   21.8170 C.ar    1  UNL1        0.0181
     20 C          -7.9777  -17.0491   22.6608 C.ar    1  UNL1        0.0573
     21 C          -8.8989  -17.9318   23.4496 C.ar    1  UNL1        0.0178
     22 C         -10.3811  -17.7084   23.3946 C.ar    1  UNL1        0.0344
     23 C         -11.5275  -18.4123   24.0584 C.ar    1  UNL1        0.0115
     24 C         -11.4227  -19.5818   24.9918 C.3     1  UNL1        0.0340
@<TRIPOS>BOND
     1    14    15    1
     2    15    16   ar
     3    16    17   ar
     4    17    18   ar
     5    18    19   ar
     6    19    20   ar
     7    20     1    1
     8     1     2    1
     9     3     2    1
    10     3     4    1
    11     4     5    1
    12     5     6    1
    13     6     7    1
    14     7     8    1
    15     8     9    1
    16     9    10    1
    17     3    11    1
    18    11    12    1
    19    12    13    2
    20    20    21   ar
    21    21    22   ar
    22    22    23   ar
    23    23    24    1
    24    23    15   ar
    25    22    17   ar
    26    12     1   am
    27     8     3    1
    28    10     5    1
@<TRIPOS>MOLECULE
*****
 24 28 0 0 0
SMALL
GASTEIGER

@<TRIPOS>ATOM
      1 N          -5.2285  -18.5223   21.7083 N.am    1  UNL1       -0.2214
      2 C          -3.9881  -17.6897   21.5738 C.3     1  UNL1        0.1428
      3 C          -2.9394  -18.5254   20.9016 C.3     1  UNL1        0.1706
      4 C          -1.9972  -19.4764   20.2250 C.3     1  UNL1        0.1145
      5 N          -0.6014  -19.0397   19.8922 N.3     1  UNL1       -0.2697
      6 C          -0.1476  -17.6519   20.2360 C.3     1  UNL1        0.0723
      7 C          -1.0898  -16.7009   20.9126 C.3     1  UNL1        0.0209
      8 C          -2.4857  -17.1376   21.2454 C.3     1  UNL1        0.0427
      9 C          -2.2880  -18.3216   20.7463 C.3     1  UNL1        0.0209
     10 C          -1.7855  -18.8288   20.3854 C.3     1  UNL1        0.0723
     11 O          -3.5318  -19.8745   20.6205 O.3     1  UNL1       -0.4384
     12 C          -4.9465  -19.8726   21.1191 C.2     1  UNL1        0.4086
     13 O          -5.9100  -21.0196   21.0420 O.2     1  UNL1       -0.2258
     14 C         -12.8771  -18.1431   23.4338 C.3     1  UNL1        0.0721
     15 C         -11.3915  -17.9958   23.2886 C.ar    1  UNL1        0.1193
     16 O         -10.5319  -16.9902   23.9956 O.2     1  UNL1       -0.4581
     17 C          -9.1136  -17.2011   23.5548 C.ar    1  UNL1        0.1446
     18 C          -7.8355  -16.5056   23.9188 C.ar    1  UNL1        0.0387
     19 C          -6.5404  -16.9459   23.3033 C.ar    1  UNL1        0.0181
     20 C          -6.5236  -18.0819   22.3238 C.ar    1  UNL1        0.0573
     21 C          -7.8017  -18.7774   21.9598 C.ar    1  UNL1        0.0178
     22 C          -9.0968  -18.3370   22.5754 C.ar    1  UNL1        0.0344
     23 C         -10.5046  -18.8281   22.4108 C.ar    1  UNL1        0.0115
     24 C         -10.9476  -19.9540   21.5242 C.3     1  UNL1        0.0340
@<TRIPOS>BOND
     1    14    15    1
     2    15    16   ar
     3    16    17   ar
     4    17    18   ar
     5    18    19   ar
     6    19    20   ar
     7    20     1    1
     8     1     2    1
     9     3     2    1
    10     3     4    1
    11     4     5    1
    12     5     6    1
    13     6     7    1
    14     7     8    1
    15     8     9    1
    16     9    10    1
    17     3    11    1
    18    11    12    1
    19    12    13    2
    20    20    21   ar
    21    21    22   ar
    22    22    23   ar
    23    23    24    1
    24    23    15   ar
    25    22    17   ar
    26    12     1   am
    27     8     3    1
    28    10     5    1
