@<TRIPOS>MOLECULE
*****
 40 45 0 0 0
SMALL
GASTEIGER

@<TRIPOS>ATOM
      1 C           3.1564   -0.3570   26.5906 C.3     1  UNL1        0.0609
      2 C           4.0278   -0.9990   27.6291 C.3     1  UNL1        0.0375
      3 C           3.7870   -0.7246   29.0840 C.3     1  UNL1        0.0949
      4 N           2.6749    0.1917   29.5004 N.am    1  UNL1       -0.2773
      5 C           2.4341    0.4660   30.9554 C.2     1  UNL1        0.2553
      6 O           1.3219    1.3824   31.3718 O.2     1  UNL1       -0.2720
      7 C           1.8035    0.8337   28.4619 C.3     1  UNL1        0.0949
      8 C           2.0442    0.5594   27.0070 C.3     1  UNL1        0.0375
      9 C           5.8649   -3.5474   20.7574 C.3     1  UNL1        0.1301
     10 N           4.9060   -2.3985   20.8600 N.ar    1  UNL1       -0.3289
     11 C           4.3897   -1.7918   22.1310 C.ar    1  UNL1        0.0346
     12 C           3.4597   -0.6728   21.7660 C.ar    1  UNL1       -0.0077
     13 C           3.4014   -0.5880   20.2696 C.ar    1  UNL1        0.0129
     14 C           2.6498    0.3227   19.3445 C.ar    1  UNL1        0.0012
     15 C           2.7920    0.1668   17.8595 C.ar    1  UNL1        0.0001
     16 C           3.6859   -0.8997   17.2995 C.ar    1  UNL1        0.0015
     17 C           4.4375   -1.8104   18.2246 C.ar    1  UNL1        0.0172
     18 C           4.2952   -1.6545   19.7096 C.ar    1  UNL1        0.0594
     19 C           2.6916    0.2393   22.6761 C.3     1  UNL1        0.0448
     20 C           2.6638    0.2578   24.1757 C.3     1  UNL1        0.0768
     21 N           3.3972   -0.6313   25.1357 N.3     1  UNL1       -0.2732
     22 C           4.3395   -1.7585   24.8332 C.3     1  UNL1        0.0783
     23 C           4.7812   -2.2750   23.4960 C.3     1  UNL1        0.0608
     24 C           3.3055   -0.1760   31.9939 C.3     1  UNL1        0.2042
     25 F           2.7895   -1.3986   31.2947 F       1  UNL1       -0.2306
     26 C           3.5188    1.2698   32.3324 C.3     1  UNL1        0.0590
     27 C           4.4243    1.6487   33.4666 C.3     1  UNL1        0.0756
     28 N           5.1165    0.5821   34.2623 N.3     1  UNL1       -0.2688
     29 C           4.9032   -0.8635   33.9238 C.3     1  UNL1        0.0756
     30 C           3.9976   -1.2426   32.7896 C.3     1  UNL1        0.0590
     31 C           6.0220    0.9611   35.3964 C.3     1  UNL1        0.0993
     32 C           5.4423    1.3010   36.7375 C.ar    1  UNL1       -0.0018
     33 C           6.1786    2.2267   37.6601 C.ar    1  UNL1        0.0179
     34 C           5.5989    2.5665   39.0011 C.ar    1  UNL1        0.1000
     35 N           4.2830    1.9807   39.4197 N.ar    1  UNL1       -0.2296
     36 C           3.5467    1.0550   38.4971 C.ar    1  UNL1        0.1251
     37 N           2.2309    0.4691   38.9157 N.pl3   1  UNL1       -0.3426
     38 C           4.1265    0.7152   37.1561 C.ar    1  UNL1        0.0310
     39 H           1.8504    0.6922   39.7959 H       1  UNL1        0.1437
     40 H           1.7476   -0.1385   38.3102 H       1  UNL1        0.1437
@<TRIPOS>BOND
     1     9    10    1
     2    10    11   ar
     3    11    12   ar
     4    12    13   ar
     5    13    14   ar
     6    14    15   ar
     7    15    16   ar
     8    16    17   ar
     9    17    18   ar
    10    12    19    1
    11    19    20    1
    12    20    21    1
    13    21     1    1
    14     1     2    1
    15     2     3    1
    16     3     4    1
    17     4     5   am
    18     5     6    2
    19     5    24    1
    20    24    25    1
    21    24    26    1
    22    26    27    1
    23    27    28    1
    24    28    31    1
    25    31    32    1
    26    32    33   ar
    27    33    34   ar
    28    34    35   ar
    29    35    36   ar
    30    36    37    1
    31    36    38   ar
    32    28    29    1
    33    29    30    1
    34     4     7    1
    35     7     8    1
    36    21    22    1
    37    22    23    1
    38    18    10   ar
    39     8     1    1
    40    23    11    1
    41    18    13   ar
    42    30    24    1
    43    38    32   ar
    44    37    39    1
    45    37    40    1
@<TRIPOS>MOLECULE
*****
 40 45 0 0 0
SMALL
GASTEIGER

@<TRIPOS>ATOM
      1 C           5.9811   -3.2849   23.2127 C.3     1  UNL1        0.0609
      2 C           4.5820   -2.7566   23.3278 C.3     1  UNL1        0.0375
      3 C           3.9583   -2.0279   22.1745 C.3     1  UNL1        0.0949
      4 N           4.7337   -1.8275   20.9063 N.am    1  UNL1       -0.2773
      5 C           4.1100   -1.0988   19.7530 C.2     1  UNL1        0.2553
      6 O           4.8854   -0.8985   18.4847 O.2     1  UNL1       -0.2720
      7 C           6.1328   -2.3559   20.7912 C.3     1  UNL1        0.0949
      8 C           6.7566   -3.0846   21.9444 C.3     1  UNL1        0.0375
      9 C           9.4631   -8.4888   26.7250 C.3     1  UNL1        0.1301
     10 N           8.8887   -7.2041   27.2444 N.ar    1  UNL1       -0.3289
     11 C           8.1716   -6.1669   26.4321 C.ar    1  UNL1        0.0346
     12 C           7.7704   -5.0528   27.3529 C.ar    1  UNL1       -0.0077
     13 C           8.2395   -5.4016   28.7343 C.ar    1  UNL1        0.0129
     14 C           8.1267   -4.6802   30.0446 C.ar    1  UNL1        0.0012
     15 C           8.7050   -5.2885   31.2878 C.ar    1  UNL1        0.0001
     16 C           9.3961   -6.6180   31.2207 C.ar    1  UNL1        0.0015
     17 C           9.5090   -7.3394   29.9104 C.ar    1  UNL1        0.0172
     18 C           8.9307   -6.7311   28.6673 C.ar    1  UNL1        0.0594
     19 C           7.0326   -3.7885   27.0253 C.3     1  UNL1        0.0448
     20 C           6.5139   -3.3260   25.6960 C.3     1  UNL1        0.0768
     21 N           6.6048   -4.0136   24.3660 N.3     1  UNL1       -0.2732
     22 C           7.2369   -5.3335   24.0368 C.3     1  UNL1        0.0783
     23 C           7.9342   -6.2918   24.9562 C.3     1  UNL1        0.0608
     24 C           2.7108   -0.5705   19.8680 C.3     1  UNL1        0.2042
     25 F           2.4233   -2.0305   19.6798 F       1  UNL1       -0.2306
     26 C           3.4844    0.7062   20.0163 C.3     1  UNL1        0.0590
     27 C           2.7588    2.0040   20.2142 C.3     1  UNL1        0.0756
     28 N           1.2598    2.0253   20.2639 N.3     1  UNL1       -0.2688
     29 C           0.4863    0.7487   20.1156 C.3     1  UNL1        0.0756
     30 C           1.2118   -0.5492   19.9177 C.3     1  UNL1        0.0590
     31 C           0.5343    3.3232   20.4618 C.3     1  UNL1        0.0993
     32 C          -0.8816    3.4706   19.9890 C.ar    1  UNL1       -0.0018
     33 C          -1.1656    4.0923   18.6538 C.ar    1  UNL1        0.0179
     34 C          -2.5815    4.2397   18.1811 C.ar    1  UNL1        0.1000
     35 N          -3.7134    3.7654   19.0435 N.ar    1  UNL1       -0.2296
     36 C          -3.4294    3.1436   20.3788 C.ar    1  UNL1        0.1251
     37 N          -4.5613    2.6693   21.2412 N.pl3   1  UNL1       -0.3426
     38 C          -2.0135    2.9963   20.8515 C.ar    1  UNL1        0.0310
     39 H          -5.4906    2.7660   20.9309 H       1  UNL1        0.1437
     40 H          -4.3749    2.2612   22.1176 H       1  UNL1        0.1437
@<TRIPOS>BOND
     1     9    10    1
     2    10    11   ar
     3    11    12   ar
     4    12    13   ar
     5    13    14   ar
     6    14    15   ar
     7    15    16   ar
     8    16    17   ar
     9    17    18   ar
    10    12    19    1
    11    19    20    1
    12    20    21    1
    13    21     1    1
    14     1     2    1
    15     2     3    1
    16     3     4    1
    17     4     5   am
    18     5     6    2
    19     5    24    1
    20    24    25    1
    21    24    26    1
    22    26    27    1
    23    27    28    1
    24    28    31    1
    25    31    32    1
    26    32    33   ar
    27    33    34   ar
    28    34    35   ar
    29    35    36   ar
    30    36    37    1
    31    36    38   ar
    32    28    29    1
    33    29    30    1
    34     4     7    1
    35     7     8    1
    36    21    22    1
    37    22    23    1
    38    18    10   ar
    39     8     1    1
    40    23    11    1
    41    18    13   ar
    42    30    24    1
    43    38    32   ar
    44    37    39    1
    45    37    40    1
@<TRIPOS>MOLECULE
*****
 40 45 0 0 0
SMALL
GASTEIGER

@<TRIPOS>ATOM
      1 C           4.2430   -0.8636   27.9857 C.3     1  UNL1        0.0609
      2 C           3.5057   -0.5665   29.2578 C.3     1  UNL1        0.0375
      3 C           4.1271   -0.9029   30.5809 C.3     1  UNL1        0.0949
      4 N           5.4857   -1.5364   30.6320 N.am    1  UNL1       -0.2773
      5 C           6.1071   -1.8728   31.9552 C.2     1  UNL1        0.2553
      6 O           7.4659   -2.5064   32.0063 O.2     1  UNL1       -0.2720
      7 C           6.2230   -1.8335   29.3599 C.3     1  UNL1        0.0949
      8 C           5.6017   -1.4971   28.0368 C.3     1  UNL1        0.0375
      9 C          -0.0256    2.4615   23.2673 C.3     1  UNL1        0.1301
     10 N           0.9785    1.3698   23.0437 N.ar    1  UNL1       -0.3289
     11 C           1.8334    0.7290   24.0966 C.ar    1  UNL1        0.0346
     12 C           2.6872   -0.3096   23.4315 C.ar    1  UNL1       -0.0077
     13 C           2.3601   -0.3106   21.9676 C.ar    1  UNL1        0.0129
     14 C           2.8874   -1.1225   20.8219 C.ar    1  UNL1        0.0012
     15 C           2.3586   -0.8965   19.4366 C.ar    1  UNL1        0.0001
     16 C           1.3026    0.1414   19.1969 C.ar    1  UNL1        0.0015
     17 C           0.7753    0.9534   20.3426 C.ar    1  UNL1        0.0172
     18 C           1.3040    0.7274   21.7279 C.ar    1  UNL1        0.0594
     19 C           3.7054   -1.2201   24.0514 C.3     1  UNL1        0.0448
     20 C           4.1212   -1.3170   25.4893 C.3     1  UNL1        0.0768
     21 N           3.6216   -0.5272   26.6626 N.3     1  UNL1       -0.2732
     22 C           2.5826    0.5545   26.6877 C.3     1  UNL1        0.0783
     23 C           1.7868    1.1135   25.5457 C.3     1  UNL1        0.0608
     24 C           5.3699   -1.5757   33.2272 C.3     1  UNL1        0.2042
     25 F           4.6606   -2.8268   32.8011 F       1  UNL1       -0.2306
     26 C           6.3353   -0.4277   33.2115 C.3     1  UNL1        0.0590
     27 C           6.3170    0.5828   34.3199 C.3     1  UNL1        0.0756
     28 N           5.3334    0.4454   35.4440 N.3     1  UNL1       -0.2688
     29 C           4.3680   -0.7025   35.4597 C.3     1  UNL1        0.0756
     30 C           4.3862   -1.7131   34.3513 C.3     1  UNL1        0.0590
     31 C           5.3151    1.4559   36.5523 C.3     1  UNL1        0.0993
     32 C           4.0094    1.8932   37.1472 C.ar    1  UNL1       -0.0018
     33 C           3.4045    1.1183   38.2803 C.ar    1  UNL1        0.0179
     34 C           2.0988    1.5556   38.8751 C.ar    1  UNL1        0.1000
     35 N           1.3979    2.7676   38.3369 N.ar    1  UNL1       -0.2296
     36 C           2.0028    3.5425   37.2038 C.ar    1  UNL1        0.1251
     37 N           1.3018    4.7545   36.6656 N.pl3   1  UNL1       -0.3426
     38 C           3.3085    3.1052   36.6090 C.ar    1  UNL1        0.0310
     39 H           0.4448    5.0415   37.0560 H       1  UNL1        0.1437
     40 H           1.6988    5.2631   35.9219 H       1  UNL1        0.1437
@<TRIPOS>BOND
     1     9    10    1
     2    10    11   ar
     3    11    12   ar
     4    12    13   ar
     5    13    14   ar
     6    14    15   ar
     7    15    16   ar
     8    16    17   ar
     9    17    18   ar
    10    12    19    1
    11    19    20    1
    12    20    21    1
    13    21     1    1
    14     1     2    1
    15     2     3    1
    16     3     4    1
    17     4     5   am
    18     5     6    2
    19     5    24    1
    20    24    25    1
    21    24    26    1
    22    26    27    1
    23    27    28    1
    24    28    31    1
    25    31    32    1
    26    32    33   ar
    27    33    34   ar
    28    34    35   ar
    29    35    36   ar
    30    36    37    1
    31    36    38   ar
    32    28    29    1
    33    29    30    1
    34     4     7    1
    35     7     8    1
    36    21    22    1
    37    22    23    1
    38    18    10   ar
    39     8     1    1
    40    23    11    1
    41    18    13   ar
    42    30    24    1
    43    38    32   ar
    44    37    39    1
    45    37    40    1
@<TRIPOS>MOLECULE
*****
 40 45 0 0 0
SMALL
GASTEIGER

@<TRIPOS>ATOM
      1 C           5.7176   -2.0619   27.7243 C.3     1  UNL1        0.0609
      2 C           4.7764   -1.5553   28.7767 C.3     1  UNL1        0.0375
      3 C           5.1642   -1.6217   30.2242 C.3     1  UNL1        0.0949
      4 N           6.4929   -2.1945   30.6192 N.am    1  UNL1       -0.2773
      5 C           6.8806   -2.2608   32.0668 C.2     1  UNL1        0.2553
      6 O           8.2095   -2.8336   32.4619 O.2     1  UNL1       -0.2720
      7 C           7.4341   -2.7010   29.5668 C.3     1  UNL1        0.0949
      8 C           7.0464   -2.6347   28.1193 C.3     1  UNL1        0.0375
      9 C           5.9421   -3.4421   20.6826 C.3     1  UNL1        0.1301
     10 N           5.0081   -2.5572   21.4537 N.ar    1  UNL1       -0.3289
     11 C           5.0344   -2.3262   22.9356 C.ar    1  UNL1        0.0346
     12 C           3.9263   -1.3742   23.2760 C.ar    1  UNL1       -0.0077
     13 C           3.2151   -1.0170   22.0046 C.ar    1  UNL1        0.0129
     14 C           2.0452   -0.1203   21.7269 C.ar    1  UNL1        0.0012
     15 C           1.5437    0.0451   20.3229 C.ar    1  UNL1        0.0001
     16 C           2.2123   -0.6860   19.1966 C.ar    1  UNL1        0.0015
     17 C           3.3823   -1.5826   19.4743 C.ar    1  UNL1        0.0172
     18 C           3.8837   -1.7481   20.8783 C.ar    1  UNL1        0.0594
     19 C           3.5386   -0.8326   24.6200 C.3     1  UNL1        0.0448
     20 C           4.1632   -1.1091   25.9555 C.3     1  UNL1        0.0768
     21 N           5.3298   -1.9955   26.2768 N.3     1  UNL1       -0.2732
     22 C           6.1599   -2.8244   25.3419 C.3     1  UNL1        0.0783
     23 C           6.0285   -2.9716   23.8550 C.3     1  UNL1        0.0608
     24 C           5.9395   -1.7542   33.1193 C.3     1  UNL1        0.2042
     25 F           5.1833   -2.9630   32.6535 F       1  UNL1       -0.2306
     26 C           7.0227   -0.7213   33.2195 C.3     1  UNL1        0.0590
     27 C           6.9019    0.3982   34.2104 C.3     1  UNL1        0.0756
     28 N           5.6981    0.4849   35.1011 N.3     1  UNL1       -0.2688
     29 C           4.6151   -0.5479   35.0009 C.3     1  UNL1        0.0756
     30 C           4.7357   -1.6675   34.0100 C.3     1  UNL1        0.0590
     31 C           5.5775    1.6046   36.0921 C.3     1  UNL1        0.0993
     32 C           4.2634    1.8734   36.7636 C.ar    1  UNL1       -0.0018
     33 C           3.4825    3.1064   36.4172 C.ar    1  UNL1        0.0179
     34 C           2.1685    3.3752   37.0887 C.ar    1  UNL1        0.1000
     35 N           1.6353    2.4111   38.1066 N.ar    1  UNL1       -0.2296
     36 C           2.4162    1.1781   38.4530 C.ar    1  UNL1        0.1251
     37 N           1.8830    0.2140   39.4710 N.pl3   1  UNL1       -0.3426
     38 C           3.7302    0.9093   37.7815 C.ar    1  UNL1        0.0310
     39 H           1.0205    0.3904   39.9117 H       1  UNL1        0.1437
     40 H           2.3955   -0.5953   39.6983 H       1  UNL1        0.1437
@<TRIPOS>BOND
     1     9    10    1
     2    10    11   ar
     3    11    12   ar
     4    12    13   ar
     5    13    14   ar
     6    14    15   ar
     7    15    16   ar
     8    16    17   ar
     9    17    18   ar
    10    12    19    1
    11    19    20    1
    12    20    21    1
    13    21     1    1
    14     1     2    1
    15     2     3    1
    16     3     4    1
    17     4     5   am
    18     5     6    2
    19     5    24    1
    20    24    25    1
    21    24    26    1
    22    26    27    1
    23    27    28    1
    24    28    31    1
    25    31    32    1
    26    32    33   ar
    27    33    34   ar
    28    34    35   ar
    29    35    36   ar
    30    36    37    1
    31    36    38   ar
    32    28    29    1
    33    29    30    1
    34     4     7    1
    35     7     8    1
    36    21    22    1
    37    22    23    1
    38    18    10   ar
    39     8     1    1
    40    23    11    1
    41    18    13   ar
    42    30    24    1
    43    38    32   ar
    44    37    39    1
    45    37    40    1
@<TRIPOS>MOLECULE
*****
 40 45 0 0 0
SMALL
GASTEIGER

@<TRIPOS>ATOM
      1 C           5.6929   -1.9988   28.2362 C.3     1  UNL1        0.0609
      2 C           5.5596   -1.2113   26.9666 C.3     1  UNL1        0.0375
      3 C           5.9580   -1.8257   25.6575 C.3     1  UNL1        0.0949
      4 N           6.4897   -3.2277   25.6181 N.am    1  UNL1       -0.2773
      5 C           6.8881   -3.8421   24.3089 C.2     1  UNL1        0.2553
      6 O           7.4199   -5.2442   24.2694 O.2     1  UNL1       -0.2720
      7 C           6.6230   -4.0153   26.8877 C.3     1  UNL1        0.0949
      8 C           6.2246   -3.4009   28.1967 C.3     1  UNL1        0.0375
      9 C           1.9402    2.0065   32.8638 C.3     1  UNL1        0.1301
     10 N           3.1329    1.1300   33.1070 N.ar    1  UNL1       -0.3289
     11 C           3.8593    0.3226   32.0725 C.ar    1  UNL1        0.0346
     12 C           4.9840   -0.3993   32.7536 C.ar    1  UNL1       -0.0077
     13 C           4.9527   -0.0380   34.2092 C.ar    1  UNL1        0.0129
     14 C           5.8181   -0.4476   35.3638 C.ar    1  UNL1        0.0012
     15 C           5.5394    0.0880   36.7369 C.ar    1  UNL1        0.0001
     16 C           4.3953    1.0332   36.9553 C.ar    1  UNL1        0.0015
     17 C           3.5299    1.4428   35.8007 C.ar    1  UNL1        0.0172
     18 C           3.8086    0.9072   34.4276 C.ar    1  UNL1        0.0594
     19 C           5.9968   -1.3298   32.1548 C.3     1  UNL1        0.0448
     20 C           6.1349   -1.7682   30.7269 C.3     1  UNL1        0.0768
     21 N           5.2944   -1.3844   29.5453 N.3     1  UNL1       -0.2732
     22 C           4.1083   -0.4674   29.4996 C.3     1  UNL1        0.0783
     23 C           3.4696    0.2923   30.6243 C.3     1  UNL1        0.0608
     24 C           6.7548   -3.0545   23.0393 C.3     1  UNL1        0.2042
     25 F           8.0347   -2.4794   23.5694 F       1  UNL1       -0.2306
     26 C           5.5212   -3.9032   22.9501 C.3     1  UNL1        0.0590
     27 C           4.5988   -3.7645   21.7754 C.3     1  UNL1        0.0756
     28 N           4.9100   -2.7772   20.6899 N.3     1  UNL1       -0.2688
     29 C           6.1435   -1.9285   20.7791 C.3     1  UNL1        0.0756
     30 C           7.0660   -2.0672   21.9538 C.3     1  UNL1        0.0590
     31 C           3.9875   -2.6385   19.5152 C.3     1  UNL1        0.0993
     32 C           3.1906   -1.3810   19.3318 C.ar    1  UNL1       -0.0018
     33 C           3.6995   -0.2954   18.4303 C.ar    1  UNL1        0.0179
     34 C           2.9026    0.9620   18.2469 C.ar    1  UNL1        0.1000
     35 N           1.5968    1.1340   18.9649 N.ar    1  UNL1       -0.2296
     36 C           1.0879    0.0483   19.8663 C.ar    1  UNL1        0.1251
     37 N          -0.2178    0.2203   20.5842 N.pl3   1  UNL1       -0.3426
     38 C           1.8848   -1.2091   20.0497 C.ar    1  UNL1        0.0310
     39 H          -0.7408    1.0456   20.4638 H       1  UNL1        0.1437
     40 H          -0.5518   -0.4922   21.1758 H       1  UNL1        0.1437
@<TRIPOS>BOND
     1     9    10    1
     2    10    11   ar
     3    11    12   ar
     4    12    13   ar
     5    13    14   ar
     6    14    15   ar
     7    15    16   ar
     8    16    17   ar
     9    17    18   ar
    10    12    19    1
    11    19    20    1
    12    20    21    1
    13    21     1    1
    14     1     2    1
    15     2     3    1
    16     3     4    1
    17     4     5   am
    18     5     6    2
    19     5    24    1
    20    24    25    1
    21    24    26    1
    22    26    27    1
    23    27    28    1
    24    28    31    1
    25    31    32    1
    26    32    33   ar
    27    33    34   ar
    28    34    35   ar
    29    35    36   ar
    30    36    37    1
    31    36    38   ar
    32    28    29    1
    33    29    30    1
    34     4     7    1
    35     7     8    1
    36    21    22    1
    37    22    23    1
    38    18    10   ar
    39     8     1    1
    40    23    11    1
    41    18    13   ar
    42    30    24    1
    43    38    32   ar
    44    37    39    1
    45    37    40    1
@<TRIPOS>MOLECULE
*****
 40 45 0 0 0
SMALL
GASTEIGER

@<TRIPOS>ATOM
      1 C           5.5020   -1.9070   27.7756 C.3     1  UNL1        0.0609
      2 C           4.6181   -1.2957   28.8221 C.3     1  UNL1        0.0375
      3 C           5.0253   -1.3371   30.2651 C.3     1  UNL1        0.0949
      4 N           6.3163   -1.9897   30.6617 N.am    1  UNL1       -0.2773
      5 C           6.7234   -2.0311   32.1049 C.2     1  UNL1        0.2553
      6 O           8.0145   -2.6838   32.5015 O.2     1  UNL1       -0.2720
      7 C           7.2001   -2.6010   29.6152 C.3     1  UNL1        0.0949
      8 C           6.7930   -2.5596   28.1722 C.3     1  UNL1        0.0375
      9 C           1.9215    0.1580   21.9056 C.3     1  UNL1        0.1301
     10 N           3.0028   -0.8711   22.0528 N.ar    1  UNL1       -0.3289
     11 C           3.7005   -1.2406   23.3282 C.ar    1  UNL1        0.0346
     12 C           4.7052   -2.3092   23.0141 C.ar    1  UNL1       -0.0077
     13 C           4.6284   -2.6001   21.5446 C.ar    1  UNL1        0.0129
     14 C           5.3806   -3.5595   20.6707 C.ar    1  UNL1        0.0012
     15 C           5.0807   -3.6300   19.2027 C.ar    1  UNL1        0.0001
     16 C           4.0286   -2.7412   18.6086 C.ar    1  UNL1        0.0015
     17 C           3.2764   -1.7818   19.4825 C.ar    1  UNL1        0.0172
     18 C           3.5763   -1.7113   20.9505 C.ar    1  UNL1        0.0594
     19 C           5.6500   -3.0079   23.9466 C.3     1  UNL1        0.0448
     20 C           5.8233   -2.8104   25.4234 C.3     1  UNL1        0.0768
     21 N           5.0948   -1.8656   26.3325 N.3     1  UNL1       -0.2732
     22 C           4.0129   -0.8848   25.9893 C.3     1  UNL1        0.0783
     23 C           3.3924   -0.6067   24.6523 C.3     1  UNL1        0.0608
     24 C           5.8396   -1.4198   33.1513 C.3     1  UNL1        0.2042
     25 F           5.2665   -2.8052   33.1031 F       1  UNL1       -0.2306
     26 C           6.7197   -0.2467   32.8361 C.3     1  UNL1        0.0590
     27 C           6.5168    1.0564   33.5506 C.3     1  UNL1        0.0756
     28 N           5.4339    1.1866   34.5804 N.3     1  UNL1       -0.2688
     29 C           4.5539    0.0135   34.8956 C.3     1  UNL1        0.0756
     30 C           4.7567   -1.2897   34.1811 C.3     1  UNL1        0.0590
     31 C           5.2311    2.4898   35.2949 C.3     1  UNL1        0.0993
     32 C           4.5805    2.5108   36.6463 C.ar    1  UNL1       -0.0018
     33 C           5.4121    2.3332   37.8820 C.ar    1  UNL1        0.0179
     34 C           4.7615    2.3542   39.2332 C.ar    1  UNL1        0.1000
     35 N           3.2792    2.5529   39.3490 N.ar    1  UNL1       -0.2296
     36 C           2.4476    2.7306   38.1133 C.ar    1  UNL1        0.1251
     37 N           0.9653    2.9293   38.2291 N.pl3   1  UNL1       -0.3426
     38 C           3.0982    2.7095   36.7620 C.ar    1  UNL1        0.0310
     39 H           0.5383    2.9431   39.1161 H       1  UNL1        0.1437
     40 H           0.4195    3.0459   37.4181 H       1  UNL1        0.1437
@<TRIPOS>BOND
     1     9    10    1
     2    10    11   ar
     3    11    12   ar
     4    12    13   ar
     5    13    14   ar
     6    14    15   ar
     7    15    16   ar
     8    16    17   ar
     9    17    18   ar
    10    12    19    1
    11    19    20    1
    12    20    21    1
    13    21     1    1
    14     1     2    1
    15     2     3    1
    16     3     4    1
    17     4     5   am
    18     5     6    2
    19     5    24    1
    20    24    25    1
    21    24    26    1
    22    26    27    1
    23    27    28    1
    24    28    31    1
    25    31    32    1
    26    32    33   ar
    27    33    34   ar
    28    34    35   ar
    29    35    36   ar
    30    36    37    1
    31    36    38   ar
    32    28    29    1
    33    29    30    1
    34     4     7    1
    35     7     8    1
    36    21    22    1
    37    22    23    1
    38    18    10   ar
    39     8     1    1
    40    23    11    1
    41    18    13   ar
    42    30    24    1
    43    38    32   ar
    44    37    39    1
    45    37    40    1
@<TRIPOS>MOLECULE
*****
 40 45 0 0 0
SMALL
GASTEIGER

@<TRIPOS>ATOM
      1 C           1.7399    0.9699   25.9221 C.3     1  UNL1        0.0609
      2 C           2.9336    1.1541   26.8116 C.3     1  UNL1        0.0375
      3 C           2.7480    1.3223   28.2906 C.3     1  UNL1        0.0949
      4 N           1.3688    1.3064   28.8799 N.am    1  UNL1       -0.2773
      5 C           1.1832    1.4746   30.3589 C.2     1  UNL1        0.2553
      6 O          -0.1961    1.4587   30.9483 O.2     1  UNL1       -0.2720
      7 C           0.1751    1.1222   27.9904 C.3     1  UNL1        0.0949
      8 C           0.3607    0.9540   26.5115 C.3     1  UNL1        0.0375
      9 C           0.7825    2.1173   18.9002 C.3     1  UNL1        0.1301
     10 N           1.6890    1.1447   19.5948 N.ar    1  UNL1       -0.3289
     11 C           1.8255    0.9718   21.0785 C.ar    1  UNL1        0.0346
     12 C           2.8390   -0.1055   21.3282 C.ar    1  UNL1       -0.0077
     13 C           3.3287   -0.5984   19.9989 C.ar    1  UNL1        0.0129
     14 C           4.3300   -1.6510   19.6255 C.ar    1  UNL1        0.0012
     15 C           4.6206   -1.9309   18.1808 C.ar    1  UNL1        0.0001
     16 C           3.9098   -1.1582   17.1095 C.ar    1  UNL1        0.0015
     17 C           2.9085   -0.1057   17.4828 C.ar    1  UNL1        0.0172
     18 C           2.6180    0.1742   18.9275 C.ar    1  UNL1        0.0594
     19 C           3.3257   -0.6456   22.6403 C.3     1  UNL1        0.0448
     20 C           2.9192   -0.2419   24.0265 C.3     1  UNL1        0.0768
     21 N           1.9256    0.8017   24.4432 N.3     1  UNL1       -0.2732
     22 C           1.0930    1.6993   23.5764 C.3     1  UNL1        0.0783
     23 C           1.0485    1.7750   22.0790 C.3     1  UNL1        0.0608
     24 C           2.3769    1.6587   31.2484 C.3     1  UNL1        0.2042
     25 F           1.9165    3.0816   31.1324 F       1  UNL1       -0.2306
     26 C           2.4227    0.1718   31.0555 C.3     1  UNL1        0.0590
     27 C           3.5023   -0.6366   31.7119 C.3     1  UNL1        0.0756
     28 N           4.5360    0.0417   32.5611 N.3     1  UNL1       -0.2688
     29 C           4.4902    1.5285   32.7540 C.3     1  UNL1        0.0756
     30 C           3.4106    2.3370   32.0977 C.3     1  UNL1        0.0590
     31 C           5.6156   -0.7669   33.2174 C.3     1  UNL1        0.0993
     32 C           6.3636   -1.8002   32.4281 C.ar    1  UNL1       -0.0018
     33 C           7.3848   -1.3756   31.4147 C.ar    1  UNL1        0.0179
     34 C           8.1327   -2.4089   30.6255 C.ar    1  UNL1        0.1000
     35 N           7.8595   -3.8667   30.8496 N.ar    1  UNL1       -0.2296
     36 C           6.8382   -4.2912   31.8630 C.ar    1  UNL1        0.1251
     37 N           6.5650   -5.7490   32.0870 N.pl3   1  UNL1       -0.3426
     38 C           6.0903   -3.2580   32.6522 C.ar    1  UNL1        0.0310
     39 H           7.0559   -6.4271   31.5690 H       1  UNL1        0.1437
     40 H           5.8947   -6.0276   32.7521 H       1  UNL1        0.1437
@<TRIPOS>BOND
     1     9    10    1
     2    10    11   ar
     3    11    12   ar
     4    12    13   ar
     5    13    14   ar
     6    14    15   ar
     7    15    16   ar
     8    16    17   ar
     9    17    18   ar
    10    12    19    1
    11    19    20    1
    12    20    21    1
    13    21     1    1
    14     1     2    1
    15     2     3    1
    16     3     4    1
    17     4     5   am
    18     5     6    2
    19     5    24    1
    20    24    25    1
    21    24    26    1
    22    26    27    1
    23    27    28    1
    24    28    31    1
    25    31    32    1
    26    32    33   ar
    27    33    34   ar
    28    34    35   ar
    29    35    36   ar
    30    36    37    1
    31    36    38   ar
    32    28    29    1
    33    29    30    1
    34     4     7    1
    35     7     8    1
    36    21    22    1
    37    22    23    1
    38    18    10   ar
    39     8     1    1
    40    23    11    1
    41    18    13   ar
    42    30    24    1
    43    38    32   ar
    44    37    39    1
    45    37    40    1
@<TRIPOS>MOLECULE
*****
 40 45 0 0 0
SMALL
GASTEIGER

@<TRIPOS>ATOM
      1 C           2.4792    0.5770   26.8272 C.3     1  UNL1        0.0609
      2 C           3.6416    1.0496   27.6490 C.3     1  UNL1        0.0375
      3 C           3.4211    1.5337   29.0515 C.3     1  UNL1        0.0949
      4 N           2.0381    1.5451   29.6321 N.am    1  UNL1       -0.2773
      5 C           1.8176    2.0292   31.0347 C.2     1  UNL1        0.2553
      6 O           0.4346    2.0406   31.6154 O.2     1  UNL1       -0.2720
      7 C           0.8757    1.0724   28.8104 C.3     1  UNL1        0.0949
      8 C           1.0962    0.5884   27.4079 C.3     1  UNL1        0.0375
      9 C           1.7611    0.2342   19.6922 C.3     1  UNL1        0.1301
     10 N           2.6115   -0.5952   20.6081 N.ar    1  UNL1       -0.3289
     11 C           2.7002   -0.4529   22.0987 C.ar    1  UNL1        0.0346
     12 C           3.6660   -1.4824   22.6059 C.ar    1  UNL1       -0.0077
     13 C           4.1743   -2.2609   21.4289 C.ar    1  UNL1        0.0129
     14 C           5.1464   -3.3982   21.3218 C.ar    1  UNL1        0.0012
     15 C           5.4668   -3.9873   19.9801 C.ar    1  UNL1        0.0001
     16 C           4.8150   -3.4390   18.7453 C.ar    1  UNL1        0.0015
     17 C           3.8429   -2.3017   18.8523 C.ar    1  UNL1        0.0172
     18 C           3.5226   -1.7126   20.1941 C.ar    1  UNL1        0.0594
     19 C           4.0958   -1.7457   24.0188 C.3     1  UNL1        0.0448
     20 C           3.6658   -1.0447   25.2732 C.3     1  UNL1        0.0768
     21 N           2.6998    0.0929   25.4247 N.3     1  UNL1       -0.2732
     22 C           1.9253    0.8103   24.3591 C.3     1  UNL1        0.0783
     23 C           1.9255    0.5674   22.8789 C.3     1  UNL1        0.0608
     24 C           2.9800    2.5019   31.8565 C.3     1  UNL1        0.2042
     25 F           2.8188    3.6742   30.9348 F       1  UNL1       -0.2306
     26 C           2.7375    1.1653   32.4928 C.3     1  UNL1        0.0590
     27 C           3.6015    0.7087   33.6308 C.3     1  UNL1        0.0756
     28 N           4.7079    1.5885   34.1325 N.3     1  UNL1       -0.2688
     29 C           4.9504    2.9250   33.4962 C.3     1  UNL1        0.0756
     30 C           4.0865    3.3817   32.3582 C.3     1  UNL1        0.0590
     31 C           5.5719    1.1318   35.2705 C.3     1  UNL1        0.0993
     32 C           5.1589    1.4121   36.6850 C.ar    1  UNL1       -0.0018
     33 C           5.9768    2.3383   37.5356 C.ar    1  UNL1        0.0179
     34 C           5.5638    2.6185   38.9500 C.ar    1  UNL1        0.1000
     35 N           4.3330    1.9727   39.5141 N.ar    1  UNL1       -0.2296
     36 C           3.5152    1.0466   38.6635 C.ar    1  UNL1        0.1251
     37 N           2.2844    0.4008   39.2275 N.pl3   1  UNL1       -0.3426
     38 C           3.9281    0.7663   37.2490 C.ar    1  UNL1        0.0310
     39 H           2.0134    0.5848   40.1559 H       1  UNL1        0.1437
     40 H           1.7476   -0.2071   38.6693 H       1  UNL1        0.1437
@<TRIPOS>BOND
     1     9    10    1
     2    10    11   ar
     3    11    12   ar
     4    12    13   ar
     5    13    14   ar
     6    14    15   ar
     7    15    16   ar
     8    16    17   ar
     9    17    18   ar
    10    12    19    1
    11    19    20    1
    12    20    21    1
    13    21     1    1
    14     1     2    1
    15     2     3    1
    16     3     4    1
    17     4     5   am
    18     5     6    2
    19     5    24    1
    20    24    25    1
    21    24    26    1
    22    26    27    1
    23    27    28    1
    24    28    31    1
    25    31    32    1
    26    32    33   ar
    27    33    34   ar
    28    34    35   ar
    29    35    36   ar
    30    36    37    1
    31    36    38   ar
    32    28    29    1
    33    29    30    1
    34     4     7    1
    35     7     8    1
    36    21    22    1
    37    22    23    1
    38    18    10   ar
    39     8     1    1
    40    23    11    1
    41    18    13   ar
    42    30    24    1
    43    38    32   ar
    44    37    39    1
    45    37    40    1
@<TRIPOS>MOLECULE
*****
 40 45 0 0 0
SMALL
GASTEIGER

@<TRIPOS>ATOM
      1 C           2.2348    0.6685   28.3739 C.3     1  UNL1        0.0609
      2 C           1.9537    0.6090   29.8461 C.3     1  UNL1        0.0375
      3 C           2.9553   -0.0083   30.7765 C.3     1  UNL1        0.0949
      4 N           4.2379   -0.5662   30.2347 N.am    1  UNL1       -0.2773
      5 C           5.2395   -1.1836   31.1652 C.2     1  UNL1        0.2553
      6 O           6.5222   -1.7415   30.6234 O.2     1  UNL1       -0.2720
      7 C           4.5190   -0.5067   28.7625 C.3     1  UNL1        0.0949
      8 C           3.5175    0.1106   27.8321 C.3     1  UNL1        0.0375
      9 C          -0.5416    3.1117   22.2206 C.3     1  UNL1        0.1301
     10 N          -1.1407    3.0855   23.5955 N.ar    1  UNL1       -0.3289
     11 C          -0.4833    2.5519   24.8337 C.ar    1  UNL1        0.0346
     12 C          -1.4386    2.7250   25.9770 C.ar    1  UNL1       -0.0077
     13 C          -2.6865    3.3657   25.4456 C.ar    1  UNL1        0.0129
     14 C          -3.9666    3.7749   26.1117 C.ar    1  UNL1        0.0012
     15 C          -5.0625    4.4070   25.3059 C.ar    1  UNL1        0.0001
     16 C          -4.8784    4.6299   23.8340 C.ar    1  UNL1        0.0015
     17 C          -3.5983    4.2206   23.1679 C.ar    1  UNL1        0.0172
     18 C          -2.5023    3.5885   23.9737 C.ar    1  UNL1        0.0594
     19 C          -1.2512    2.3502   27.4174 C.3     1  UNL1        0.0448
     20 C          -0.0621    1.7098   28.0700 C.3     1  UNL1        0.0768
     21 N           1.2333    1.2859   27.4435 N.3     1  UNL1       -0.2732
     22 C           1.6594    1.3978   26.0097 C.3     1  UNL1        0.0783
     23 C           0.8955    1.9612   24.8482 C.3     1  UNL1        0.0608
     24 C           4.9584   -1.2431   32.6374 C.3     1  UNL1        0.2042
     25 F           4.5992   -2.6460   32.2467 F       1  UNL1       -0.2306
     26 C           5.4153    0.1806   32.5168 C.3     1  UNL1        0.0590
     27 C           5.4663    1.0574   33.7327 C.3     1  UNL1        0.0756
     28 N           5.0604    0.5107   35.0693 N.3     1  UNL1       -0.2688
     29 C           4.6036   -0.9129   35.1899 C.3     1  UNL1        0.0756
     30 C           4.5526   -1.7899   33.9740 C.3     1  UNL1        0.0590
     31 C           5.1114    1.3876   36.2852 C.3     1  UNL1        0.0993
     32 C           3.8529    1.6958   37.0409 C.ar    1  UNL1       -0.0018
     33 C           3.1731    3.0203   36.8575 C.ar    1  UNL1        0.0179
     34 C           1.9146    3.3283   37.6132 C.ar    1  UNL1        0.1000
     35 N           1.3359    2.3120   38.5524 N.ar    1  UNL1       -0.2296
     36 C           2.0157    0.9875   38.7359 C.ar    1  UNL1        0.1251
     37 N           1.4369   -0.0288   39.6751 N.pl3   1  UNL1       -0.3426
     38 C           3.2742    0.6795   37.9802 C.ar    1  UNL1        0.0310
     39 H           0.6109    0.1735   40.1711 H       1  UNL1        0.1437
     40 H           1.8831   -0.8981   39.7956 H       1  UNL1        0.1437
@<TRIPOS>BOND
     1     9    10    1
     2    10    11   ar
     3    11    12   ar
     4    12    13   ar
     5    13    14   ar
     6    14    15   ar
     7    15    16   ar
     8    16    17   ar
     9    17    18   ar
    10    12    19    1
    11    19    20    1
    12    20    21    1
    13    21     1    1
    14     1     2    1
    15     2     3    1
    16     3     4    1
    17     4     5   am
    18     5     6    2
    19     5    24    1
    20    24    25    1
    21    24    26    1
    22    26    27    1
    23    27    28    1
    24    28    31    1
    25    31    32    1
    26    32    33   ar
    27    33    34   ar
    28    34    35   ar
    29    35    36   ar
    30    36    37    1
    31    36    38   ar
    32    28    29    1
    33    29    30    1
    34     4     7    1
    35     7     8    1
    36    21    22    1
    37    22    23    1
    38    18    10   ar
    39     8     1    1
    40    23    11    1
    41    18    13   ar
    42    30    24    1
    43    38    32   ar
    44    37    39    1
    45    37    40    1
