@<TRIPOS>MOLECULE
*****
 43 47 0 0 0
SMALL
GASTEIGER

@<TRIPOS>ATOM
      1 C           1.9754    1.3765   18.5885 C.ar    1  UNL1        0.2338
      2 N           0.7385    2.2247   18.5642 N.ar    1  UNL1       -0.1786
      3 C           0.8454    3.6998   18.3144 C.ar    1  UNL1        0.2198
      4 N           2.1893    4.3269   18.0889 N.ar    1  UNL1       -0.2070
      5 C           3.4262    3.4788   18.1133 C.ar    1  UNL1        0.1181
      6 S           4.8764    3.8133   17.9257 S.2     1  UNL1       -0.0673
      7 C           5.6657    2.5448   18.0595 C.ar    1  UNL1        0.0371
      8 C           4.7034    1.4263   18.3299 C.ar    1  UNL1        0.0137
      9 C           3.3193    2.0036   18.3631 C.ar    1  UNL1        0.0780
     10 N          -0.3916    4.5480   18.2900 N.pl3   1  UNL1       -0.3044
     11 H          -0.4293    5.3472   17.7164 H       1  UNL1        0.1496
     12 C          -1.5713    4.1783   19.1396 C.3     1  UNL1        0.0745
     13 C          -1.3918    3.9413   20.6098 C.3     1  UNL1        0.0369
     14 C          -2.5715    3.5717   21.4594 C.3     1  UNL1        0.0741
     15 N          -3.9306    3.4391   20.8388 N.3     1  UNL1       -0.2689
     16 C          -4.1101    3.6761   19.3686 C.3     1  UNL1        0.0741
     17 C          -2.9304    4.0458   18.5190 C.3     1  UNL1        0.0369
     18 C          -5.1103    3.0695   21.6884 C.3     1  UNL1        0.0991
     19 C          -5.3172    3.7369   23.0156 C.ar    1  UNL1       -0.0061
     20 C          -4.6035    3.2253   24.2318 C.ar    1  UNL1       -0.0015
     21 C          -4.8104    3.8928   25.5590 C.ar    1  UNL1        0.0196
     22 C          -5.7309    5.0718   25.6702 C.ar    1  UNL1        0.1217
     23 C          -6.4446    5.5835   24.4541 C.ar    1  UNL1        0.0196
     24 C          -6.2378    4.9160   23.1268 C.ar    1  UNL1       -0.0015
     25 S          -5.9378    5.7393   26.9975 S.O2    1  UNL1        0.0572
     26 N          -6.1447    6.4068   28.3248 N.3     1  UNL1       -0.2035
     27 O          -7.0427    6.5660   26.4095 O.2     1  UNL1       -0.1532
     28 O          -4.8329    4.9126   27.5854 O.2     1  UNL1       -0.1532
     29 H          -6.8999    7.0881   28.2487 H       1  UNL1        0.1442
     30 H          -5.2860    6.8809   28.6044 H       1  UNL1        0.1442
     31 O           1.8685   -0.0986   18.8384 O.3     1  UNL1       -0.4366
     32 C           3.9918   -2.1794   18.4353 C.3     1  UNL1        0.0342
     33 C           3.6156   -1.7505   19.8226 C.ar    1  UNL1        0.0124
     34 C           4.3011   -2.3620   21.0084 C.ar    1  UNL1       -0.0012
     35 C           3.9250   -1.9331   22.3958 C.ar    1  UNL1        0.0003
     36 C           2.8634   -0.8928   22.5973 C.ar    1  UNL1       -0.0012
     37 C           2.1778   -0.2813   21.4114 C.ar    1  UNL1        0.0124
     38 C           1.1163    0.7590   21.6129 C.3     1  UNL1        0.0342
     39 C           2.5540   -0.7101   20.0242 C.ar    1  UNL1        0.1391
     40 C           4.6105   -2.5447   23.5816 C.2     1  UNL1        0.0109
     41 C           5.7502   -3.4986   23.3794 C.2     1  UNL1        0.0780
     42 C           6.4358   -4.1102   24.5652 C.1     1  UNL1        0.1011
     43 N           7.1213   -4.7218   25.7510 N.1     1  UNL1       -0.1908
@<TRIPOS>BOND
     1    32    33    1
     2    33    34   ar
     3    34    35   ar
     4    35    40    1
     5    40    41    2
     6    41    42    1
     7    42    43    3
     8    35    36   ar
     9    36    37   ar
    10    37    38    1
    11    37    39   ar
    12    39    31    1
    13    31     1    1
    14     1     2   ar
    15     2     3   ar
    16     3    10    1
    17    10    12    1
    18    12    13    1
    19    13    14    1
    20    14    15    1
    21    15    18    1
    22    18    19    1
    23    19    20   ar
    24    20    21   ar
    25    21    22   ar
    26    22    25    1
    27    25    26    1
    28    25    27    2
    29    25    28    2
    30    22    23   ar
    31    23    24   ar
    32    15    16    1
    33    16    17    1
    34     3     4   ar
    35     4     5   ar
    36     5     6   ar
    37     6     7   ar
    38     7     8   ar
    39     8     9   ar
    40    39    33   ar
    41     9     1   ar
    42    17    12    1
    43     9     5   ar
    44    24    19   ar
    45    10    11    1
    46    26    29    1
    47    26    30    1
@<TRIPOS>MOLECULE
*****
 43 47 0 0 0
SMALL
GASTEIGER

@<TRIPOS>ATOM
      1 C           7.7021   -3.7747   28.2953 C.ar    1  UNL1        0.2338
      2 N           7.2023   -3.5445   29.6906 N.ar    1  UNL1       -0.1786
      3 C           7.0563   -4.7005   30.6352 C.ar    1  UNL1        0.2198
      4 N           7.4101   -6.0868   30.1845 N.ar    1  UNL1       -0.2070
      5 C           7.9100   -6.3169   28.7891 C.ar    1  UNL1        0.1181
      6 S           8.3337   -7.5617   28.0673 S.2     1  UNL1       -0.0673
      7 C           8.7415   -7.1750   26.6766 C.ar    1  UNL1        0.0371
      8 C           8.5699   -5.6912   26.5388 C.ar    1  UNL1        0.0137
      9 C           8.0560   -5.1609   27.8445 C.ar    1  UNL1        0.0780
     10 N           6.5564   -4.4703   32.0307 N.pl3   1  UNL1       -0.3044
     11 H           6.4220   -5.2337   32.6376 H       1  UNL1        0.1496
     12 C           6.2612   -3.0770   32.5013 C.3     1  UNL1        0.0745
     13 C           7.3868   -2.1496   32.8521 C.3     1  UNL1        0.0369
     14 C           7.0916   -0.7562   33.3227 C.3     1  UNL1        0.0741
     15 N           5.6709   -0.2903   33.4426 N.3     1  UNL1       -0.2689
     16 C           4.5453   -1.2177   33.0919 C.3     1  UNL1        0.0741
     17 C           4.8405   -2.6110   32.6212 C.3     1  UNL1        0.0369
     18 C           5.3757    1.1031   33.9133 C.3     1  UNL1        0.0991
     19 C           4.5346    1.3191   35.1364 C.ar    1  UNL1       -0.0061
     20 C           3.4454    2.3505   35.1251 C.ar    1  UNL1       -0.0015
     21 C           2.6045    2.5664   36.3482 C.ar    1  UNL1        0.0196
     22 C           2.8525    1.7510   37.5825 C.ar    1  UNL1        0.1217
     23 C           3.9416    0.7197   37.5938 C.ar    1  UNL1        0.0196
     24 C           4.7826    0.5037   36.3707 C.ar    1  UNL1       -0.0015
     25 S           2.0114    1.9670   38.8056 S.O2    1  UNL1        0.0572
     26 N           1.1704    2.1830   40.0287 N.3     1  UNL1       -0.2035
     27 O           2.8627    0.9917   39.5633 O.2     1  UNL1       -0.1532
     28 O           1.1602    2.9424   38.0480 O.2     1  UNL1       -0.1532
     29 H           1.5255    1.6067   40.7917 H       1  UNL1        0.1442
     30 H           0.2047    1.9234   39.8275 H       1  UNL1        0.1442
     31 O           7.8481   -2.6187   27.3506 O.3     1  UNL1       -0.4366
     32 C           8.1535   -3.1938   24.4221 C.3     1  UNL1        0.0342
     33 C           6.8902   -2.5693   24.9361 C.ar    1  UNL1        0.0124
     34 C           5.7796   -2.2324   23.9859 C.ar    1  UNL1       -0.0012
     35 C           4.5163   -1.6078   24.4999 C.ar    1  UNL1        0.0003
     36 C           4.3637   -1.3202   25.9640 C.ar    1  UNL1       -0.0012
     37 C           5.4743   -1.6572   26.9144 C.ar    1  UNL1        0.0124
     38 C           5.3216   -1.3696   28.3785 C.3     1  UNL1        0.0342
     39 C           6.7375   -2.2817   26.4004 C.ar    1  UNL1        0.1391
     40 C           3.4057   -1.2709   23.5495 C.2     1  UNL1        0.0109
     41 C           3.6064   -1.4368   22.0723 C.2     1  UNL1        0.0780
     42 C           2.4958   -1.0999   21.1220 C.1     1  UNL1        0.1011
     43 N           1.3852   -0.7630   20.1717 N.1     1  UNL1       -0.1908
@<TRIPOS>BOND
     1    32    33    1
     2    33    34   ar
     3    34    35   ar
     4    35    40    1
     5    40    41    2
     6    41    42    1
     7    42    43    3
     8    35    36   ar
     9    36    37   ar
    10    37    38    1
    11    37    39   ar
    12    39    31    1
    13    31     1    1
    14     1     2   ar
    15     2     3   ar
    16     3    10    1
    17    10    12    1
    18    12    13    1
    19    13    14    1
    20    14    15    1
    21    15    18    1
    22    18    19    1
    23    19    20   ar
    24    20    21   ar
    25    21    22   ar
    26    22    25    1
    27    25    26    1
    28    25    27    2
    29    25    28    2
    30    22    23   ar
    31    23    24   ar
    32    15    16    1
    33    16    17    1
    34     3     4   ar
    35     4     5   ar
    36     5     6   ar
    37     6     7   ar
    38     7     8   ar
    39     8     9   ar
    40    39    33   ar
    41     9     1   ar
    42    17    12    1
    43     9     5   ar
    44    24    19   ar
    45    10    11    1
    46    26    29    1
    47    26    30    1
@<TRIPOS>MOLECULE
*****
 43 47 0 0 0
SMALL
GASTEIGER

@<TRIPOS>ATOM
      1 C           0.9477    2.1349   25.3243 C.ar    1  UNL1        0.2338
      2 N           1.3800    1.1483   26.3682 N.ar    1  UNL1       -0.1786
      3 C           0.4932    0.8635   27.5439 C.ar    1  UNL1        0.2198
      4 N          -0.8259    1.5654   27.6759 N.ar    1  UNL1       -0.2070
      5 C          -1.2582    2.5520   26.6320 C.ar    1  UNL1        0.1181
      6 S          -2.4939    3.3912   26.4947 S.2     1  UNL1       -0.0673
      7 C          -2.3708    4.1946   25.2340 C.ar    1  UNL1        0.0371
      8 C          -1.0590    3.8520   24.5922 C.ar    1  UNL1        0.0137
      9 C          -0.3714    2.8368   25.4562 C.ar    1  UNL1        0.0780
     10 N           0.9255   -0.1232   28.5878 N.pl3   1  UNL1       -0.3044
     11 H           0.6232   -1.0587   28.5361 H       1  UNL1        0.1496
     12 C           1.8185    0.3155   29.7104 C.3     1  UNL1        0.0745
     13 C           2.5048   -0.7074   30.5663 C.3     1  UNL1        0.0369
     14 C           3.3978   -0.2687   31.6889 C.3     1  UNL1        0.0741
     15 N           3.6044    1.1929   31.9555 N.3     1  UNL1       -0.2689
     16 C           2.9181    2.2157   31.0996 C.3     1  UNL1        0.0741
     17 C           2.0251    1.7770   29.9770 C.3     1  UNL1        0.0369
     18 C           4.4974    1.6317   33.0781 C.3     1  UNL1        0.0991
     19 C           3.9432    1.7766   34.4644 C.ar    1  UNL1       -0.0061
     20 C           2.9723    2.8778   34.7727 C.ar    1  UNL1       -0.0015
     21 C           2.4182    3.0226   36.1590 C.ar    1  UNL1        0.0196
     22 C           2.8347    2.0664   37.2370 C.ar    1  UNL1        0.1217
     23 C           3.8055    0.9653   36.9287 C.ar    1  UNL1        0.0196
     24 C           4.3597    0.8203   35.5424 C.ar    1  UNL1       -0.0015
     25 S           2.2805    2.2113   38.6233 S.O2    1  UNL1        0.0572
     26 N           1.7263    2.3563   40.0096 N.3     1  UNL1       -0.2035
     27 O           3.4459    1.4412   39.1697 O.2     1  UNL1       -0.1532
     28 O           1.1151    2.9815   38.0769 O.2     1  UNL1       -0.1532
     29 H           2.3478    1.8954   40.6741 H       1  UNL1        0.1442
     30 H           0.8026    1.9259   40.0532 H       1  UNL1        0.1442
     31 O           1.8345    2.4197   24.1485 O.3     1  UNL1       -0.4366
     32 C           0.0734    1.8392   21.7901 C.3     1  UNL1        0.0342
     33 C           1.3143    1.0277   22.0174 C.ar    1  UNL1        0.0124
     34 C           1.6746   -0.0742   21.0655 C.ar    1  UNL1       -0.0012
     35 C           2.9155   -0.8858   21.2928 C.ar    1  UNL1        0.0003
     36 C           3.7960   -0.5955   22.4719 C.ar    1  UNL1       -0.0012
     37 C           3.4357    0.5063   23.4239 C.ar    1  UNL1        0.0124
     38 C           4.3162    0.7966   24.6030 C.3     1  UNL1        0.0342
     39 C           2.1948    1.3179   23.1966 C.ar    1  UNL1        0.1391
     40 C           3.2758   -1.9876   20.3408 C.2     1  UNL1        0.0109
     41 C           4.0260   -3.1893   20.8339 C.2     1  UNL1        0.0780
     42 C           4.3863   -4.2912   19.8819 C.1     1  UNL1        0.1011
     43 N           4.7465   -5.3929   18.9299 N.1     1  UNL1       -0.1908
@<TRIPOS>BOND
     1    32    33    1
     2    33    34   ar
     3    34    35   ar
     4    35    40    1
     5    40    41    2
     6    41    42    1
     7    42    43    3
     8    35    36   ar
     9    36    37   ar
    10    37    38    1
    11    37    39   ar
    12    39    31    1
    13    31     1    1
    14     1     2   ar
    15     2     3   ar
    16     3    10    1
    17    10    12    1
    18    12    13    1
    19    13    14    1
    20    14    15    1
    21    15    18    1
    22    18    19    1
    23    19    20   ar
    24    20    21   ar
    25    21    22   ar
    26    22    25    1
    27    25    26    1
    28    25    27    2
    29    25    28    2
    30    22    23   ar
    31    23    24   ar
    32    15    16    1
    33    16    17    1
    34     3     4   ar
    35     4     5   ar
    36     5     6   ar
    37     6     7   ar
    38     7     8   ar
    39     8     9   ar
    40    39    33   ar
    41     9     1   ar
    42    17    12    1
    43     9     5   ar
    44    24    19   ar
    45    10    11    1
    46    26    29    1
    47    26    30    1
@<TRIPOS>MOLECULE
*****
 43 47 0 0 0
SMALL
GASTEIGER

@<TRIPOS>ATOM
      1 C           5.5185   -1.5106   22.5948 C.ar    1  UNL1        0.2338
      2 N           6.5009   -2.4015   23.2956 N.ar    1  UNL1       -0.1786
      3 C           6.7253   -3.8015   22.8064 C.ar    1  UNL1        0.2198
      4 N           5.9673   -4.3108   21.6164 N.ar    1  UNL1       -0.2070
      5 C           4.9849   -3.4199   20.9156 C.ar    1  UNL1        0.1181
      6 S           4.0986   -3.6431   19.7262 S.2     1  UNL1       -0.0673
      7 C           3.3264   -2.3808   19.4803 C.ar    1  UNL1        0.0371
      8 C           3.7354   -1.3776   20.5178 C.ar    1  UNL1        0.0137
      9 C           4.7605   -2.0198   21.4048 C.ar    1  UNL1        0.0780
     10 N           7.7078   -4.6925   23.5072 N.pl3   1  UNL1       -0.3044
     11 H           8.2934   -5.2867   22.9845 H       1  UNL1        0.1496
     12 C           7.7981   -4.6780   25.0045 C.3     1  UNL1        0.0745
     13 C           6.9038   -5.5657   25.8183 C.3     1  UNL1        0.0369
     14 C           6.9940   -5.5512   27.3155 C.3     1  UNL1        0.0741
     15 N           7.9785   -4.6491   27.9989 N.3     1  UNL1       -0.2689
     16 C           8.8728   -3.7615   27.1850 C.3     1  UNL1        0.0741
     17 C           8.7826   -3.7760   25.6878 C.3     1  UNL1        0.0369
     18 C           8.0688   -4.6346   29.4962 C.3     1  UNL1        0.0991
     19 C           7.1416   -3.7673   30.2950 C.ar    1  UNL1       -0.0061
     20 C           6.8608   -4.0938   31.7319 C.ar    1  UNL1       -0.0015
     21 C           5.9337   -3.2265   32.5307 C.ar    1  UNL1        0.0196
     22 C           5.2872   -2.0328   31.8926 C.ar    1  UNL1        0.1217
     23 C           5.5680   -1.7063   30.4558 C.ar    1  UNL1        0.0196
     24 C           6.4951   -2.5736   29.6569 C.ar    1  UNL1       -0.0015
     25 S           4.3600   -1.1655   32.6914 S.O2    1  UNL1        0.0572
     26 N           3.4328   -0.2982   33.4903 N.3     1  UNL1       -0.2035
     27 O           4.8929    0.0492   31.9911 O.2     1  UNL1       -0.1532
     28 O           3.8271   -2.3802   33.3917 O.2     1  UNL1       -0.1532
     29 H           3.5643    0.6771   33.2224 H       1  UNL1        0.1442
     30 H           3.6358   -0.4083   34.4838 H       1  UNL1        0.1442
     31 O           5.2940   -0.1105   23.0841 O.3     1  UNL1       -0.4366
     32 C           7.3743    0.4105   25.1820 C.3     1  UNL1        0.0342
     33 C           5.9216    0.3905   25.5549 C.ar    1  UNL1        0.0124
     34 C           5.5089    0.6310   26.9768 C.ar    1  UNL1       -0.0012
     35 C           4.0561    0.6110   27.3498 C.ar    1  UNL1        0.0003
     36 C           3.0160    0.3505   26.3009 C.ar    1  UNL1       -0.0012
     37 C           3.4286    0.1100   24.8789 C.ar    1  UNL1        0.0124
     38 C           2.3886   -0.1505   23.8301 C.3     1  UNL1        0.0342
     39 C           4.8814    0.1300   24.5060 C.ar    1  UNL1        0.1391
     40 C           3.6435    0.8516   28.7718 C.2     1  UNL1        0.0109
     41 C           2.2011    1.0953   29.1032 C.2     1  UNL1        0.0780
     42 C           1.7885    1.3359   30.5252 C.1     1  UNL1        0.1011
     43 N           1.3758    1.5764   31.9471 N.1     1  UNL1       -0.1908
@<TRIPOS>BOND
     1    32    33    1
     2    33    34   ar
     3    34    35   ar
     4    35    40    1
     5    40    41    2
     6    41    42    1
     7    42    43    3
     8    35    36   ar
     9    36    37   ar
    10    37    38    1
    11    37    39   ar
    12    39    31    1
    13    31     1    1
    14     1     2   ar
    15     2     3   ar
    16     3    10    1
    17    10    12    1
    18    12    13    1
    19    13    14    1
    20    14    15    1
    21    15    18    1
    22    18    19    1
    23    19    20   ar
    24    20    21   ar
    25    21    22   ar
    26    22    25    1
    27    25    26    1
    28    25    27    2
    29    25    28    2
    30    22    23   ar
    31    23    24   ar
    32    15    16    1
    33    16    17    1
    34     3     4   ar
    35     4     5   ar
    36     5     6   ar
    37     6     7   ar
    38     7     8   ar
    39     8     9   ar
    40    39    33   ar
    41     9     1   ar
    42    17    12    1
    43     9     5   ar
    44    24    19   ar
    45    10    11    1
    46    26    29    1
    47    26    30    1
@<TRIPOS>MOLECULE
*****
 43 47 0 0 0
SMALL
GASTEIGER

@<TRIPOS>ATOM
      1 C           4.6416   -0.5786   28.8722 C.ar    1  UNL1        0.2338
      2 N           3.1732   -0.3136   28.7186 N.ar    1  UNL1       -0.1786
      3 C           2.2464   -0.5323   29.8775 C.ar    1  UNL1        0.2198
      4 N           2.7880   -1.0160   31.1901 N.ar    1  UNL1       -0.2070
      5 C           4.2563   -1.2810   31.3437 C.ar    1  UNL1        0.1181
      6 S           5.0736   -1.7596   32.5069 S.2     1  UNL1       -0.0673
      7 C           6.5055   -1.8367   32.0668 C.ar    1  UNL1        0.0371
      8 C           6.5732   -1.4058   30.6316 C.ar    1  UNL1        0.0137
      9 C           5.1832   -1.0623   30.1847 C.ar    1  UNL1        0.0780
     10 N           0.7779   -0.2674   29.7239 N.pl3   1  UNL1       -0.3044
     11 H           0.1227   -0.8585   30.1604 H       1  UNL1        0.1496
     12 C           0.3077    0.8983   28.9054 C.3     1  UNL1        0.0745
     13 C          -0.5151    0.6661   27.6729 C.3     1  UNL1        0.0369
     14 C          -0.9853    1.8318   26.8543 C.3     1  UNL1        0.0741
     15 N          -0.6326    3.2297   27.2682 N.3     1  UNL1       -0.2689
     16 C           0.1902    3.4620   28.5006 C.3     1  UNL1        0.0741
     17 C           0.6604    2.2963   29.3192 C.3     1  UNL1        0.0369
     18 C          -1.1028    4.3955   26.4496 C.3     1  UNL1        0.0991
     19 C          -2.4288    4.3353   25.7512 C.ar    1  UNL1       -0.0061
     20 C          -2.4848    4.1870   24.2595 C.ar    1  UNL1       -0.0015
     21 C          -3.8108    4.1268   23.5611 C.ar    1  UNL1        0.0196
     22 C          -5.0810    4.2147   24.3542 C.ar    1  UNL1        0.1217
     23 C          -5.0250    4.3629   25.8458 C.ar    1  UNL1        0.0196
     24 C          -3.6990    4.4232   26.5443 C.ar    1  UNL1       -0.0015
     25 S          -6.4070    4.1545   23.6557 S.O2    1  UNL1        0.0572
     26 N          -7.7331    4.0942   22.9572 N.3     1  UNL1       -0.2035
     27 O          -5.7707    3.4240   22.5106 O.2     1  UNL1       -0.1532
     28 O          -7.0434    4.8849   24.8009 O.2     1  UNL1       -0.1532
     29 H          -7.6257    3.6122   22.0647 H       1  UNL1        0.1442
     30 H          -8.0744    5.0413   22.7933 H       1  UNL1        0.1442
     31 O           5.5684   -0.3599   27.7132 O.3     1  UNL1       -0.4366
     32 C           3.6464    0.4986   25.5756 C.3     1  UNL1        0.0342
     33 C           4.4563   -0.7514   25.3981 C.ar    1  UNL1        0.0124
     34 C           4.3053   -1.5722   24.1517 C.ar    1  UNL1       -0.0012
     35 C           5.1153   -2.8223   23.9741 C.ar    1  UNL1        0.0003
     36 C           6.0762   -3.2515   25.0428 C.ar    1  UNL1       -0.0012
     37 C           6.2272   -2.4307   26.2893 C.ar    1  UNL1        0.0124
     38 C           7.1882   -2.8599   27.3580 C.3     1  UNL1        0.0342
     39 C           5.4173   -1.1807   26.4669 C.ar    1  UNL1        0.1391
     40 C           4.9642   -3.6431   22.7276 C.2     1  UNL1        0.0109
     41 C           4.4363   -3.0119   21.4735 C.2     1  UNL1        0.0780
     42 C           4.2852   -3.8327   20.2270 C.1     1  UNL1        0.1011
     43 N           4.1342   -4.6535   18.9806 N.1     1  UNL1       -0.1908
@<TRIPOS>BOND
     1    32    33    1
     2    33    34   ar
     3    34    35   ar
     4    35    40    1
     5    40    41    2
     6    41    42    1
     7    42    43    3
     8    35    36   ar
     9    36    37   ar
    10    37    38    1
    11    37    39   ar
    12    39    31    1
    13    31     1    1
    14     1     2   ar
    15     2     3   ar
    16     3    10    1
    17    10    12    1
    18    12    13    1
    19    13    14    1
    20    14    15    1
    21    15    18    1
    22    18    19    1
    23    19    20   ar
    24    20    21   ar
    25    21    22   ar
    26    22    25    1
    27    25    26    1
    28    25    27    2
    29    25    28    2
    30    22    23   ar
    31    23    24   ar
    32    15    16    1
    33    16    17    1
    34     3     4   ar
    35     4     5   ar
    36     5     6   ar
    37     6     7   ar
    38     7     8   ar
    39     8     9   ar
    40    39    33   ar
    41     9     1   ar
    42    17    12    1
    43     9     5   ar
    44    24    19   ar
    45    10    11    1
    46    26    29    1
    47    26    30    1
@<TRIPOS>MOLECULE
*****
 43 47 0 0 0
SMALL
GASTEIGER

@<TRIPOS>ATOM
      1 C           2.5185   -0.4528   29.7221 C.ar    1  UNL1        0.2338
      2 N           2.7625   -0.9130   28.3154 N.ar    1  UNL1       -0.1786
      3 C           4.1043   -1.4593   27.9272 C.ar    1  UNL1        0.2198
      4 N           5.2024   -1.5454   28.9455 N.ar    1  UNL1       -0.2070
      5 C           4.9584   -1.0852   30.3522 C.ar    1  UNL1        0.1181
      6 S           5.8420   -1.0485   31.5637 S.2     1  UNL1       -0.0673
      7 C           5.0461   -0.4796   32.7008 C.ar    1  UNL1        0.0371
      8 C           3.6707   -0.1646   32.1920 C.ar    1  UNL1        0.0137
      9 C           3.6164   -0.5389   30.7404 C.ar    1  UNL1        0.0780
     10 N           4.3483   -1.9195   26.5204 N.pl3   1  UNL1       -0.3044
     11 H           4.7583   -2.7991   26.3544 H       1  UNL1        0.1496
     12 C           3.9677   -1.0397   25.3668 C.3     1  UNL1        0.0745
     13 C           3.5406   -1.6518   24.0657 C.3     1  UNL1        0.0369
     14 C           3.1599   -0.7719   22.9120 C.3     1  UNL1        0.0741
     15 N           3.2063    0.7201   23.0594 N.3     1  UNL1       -0.2689
     16 C           3.6334    1.3322   24.3605 C.3     1  UNL1        0.0741
     17 C           4.0140    0.4523   25.5142 C.3     1  UNL1        0.0369
     18 C           2.8256    1.6000   21.9058 C.3     1  UNL1        0.0991
     19 C           1.4535    2.2028   21.8432 C.ar    1  UNL1       -0.0061
     20 C           0.5343    1.8590   20.7087 C.ar    1  UNL1       -0.0015
     21 C          -0.8377    2.4618   20.6462 C.ar    1  UNL1        0.0196
     22 C          -1.2907    3.4084   21.7181 C.ar    1  UNL1        0.1217
     23 C          -0.3716    3.7521   22.8526 C.ar    1  UNL1        0.0196
     24 C           1.0006    3.1493   22.9151 C.ar    1  UNL1       -0.0015
     25 S          -2.6628    4.0111   21.6556 S.O2    1  UNL1        0.0572
     26 N          -4.0350    4.6139   21.5930 N.3     1  UNL1       -0.2035
     27 O          -3.1427    2.8360   20.8564 O.2     1  UNL1       -0.1532
     28 O          -2.1830    5.1863   22.4548 O.2     1  UNL1       -0.1532
     29 H          -4.6536    3.9971   21.0664 H       1  UNL1        0.1442
     30 H          -3.9866    5.5221   21.1311 H       1  UNL1        0.1442
     31 O           1.1765    0.0935   30.1103 O.3     1  UNL1       -0.4366
     32 C          -1.3390   -0.7855   28.7320 C.3     1  UNL1        0.0342
     33 C          -0.8017    0.5961   28.5029 C.ar    1  UNL1        0.0124
     34 C          -1.5222    1.5382   27.5846 C.ar    1  UNL1       -0.0012
     35 C          -0.9849    2.9199   27.3555 C.ar    1  UNL1        0.0003
     36 C           0.2727    3.3594   28.0446 C.ar    1  UNL1       -0.0012
     37 C           0.9933    2.4172   28.9629 C.ar    1  UNL1        0.0124
     38 C           2.2510    2.8567   29.6521 C.3     1  UNL1        0.0342
     39 C           0.4560    1.0356   29.1921 C.ar    1  UNL1        0.1391
     40 C          -1.7055    3.8621   26.4372 C.2     1  UNL1        0.0109
     41 C          -3.2051    3.8875   26.4149 C.2     1  UNL1        0.0780
     42 C          -3.9257    4.8296   25.4966 C.1     1  UNL1        0.1011
     43 N          -4.6463    5.7717   24.5783 N.1     1  UNL1       -0.1908
@<TRIPOS>BOND
     1    32    33    1
     2    33    34   ar
     3    34    35   ar
     4    35    40    1
     5    40    41    2
     6    41    42    1
     7    42    43    3
     8    35    36   ar
     9    36    37   ar
    10    37    38    1
    11    37    39   ar
    12    39    31    1
    13    31     1    1
    14     1     2   ar
    15     2     3   ar
    16     3    10    1
    17    10    12    1
    18    12    13    1
    19    13    14    1
    20    14    15    1
    21    15    18    1
    22    18    19    1
    23    19    20   ar
    24    20    21   ar
    25    21    22   ar
    26    22    25    1
    27    25    26    1
    28    25    27    2
    29    25    28    2
    30    22    23   ar
    31    23    24   ar
    32    15    16    1
    33    16    17    1
    34     3     4   ar
    35     4     5   ar
    36     5     6   ar
    37     6     7   ar
    38     7     8   ar
    39     8     9   ar
    40    39    33   ar
    41     9     1   ar
    42    17    12    1
    43     9     5   ar
    44    24    19   ar
    45    10    11    1
    46    26    29    1
    47    26    30    1
@<TRIPOS>MOLECULE
*****
 43 47 0 0 0
SMALL
GASTEIGER

@<TRIPOS>ATOM
      1 C           4.8621   -1.0513   30.1113 C.ar    1  UNL1        0.2338
      2 N           3.4530   -0.6208   30.3923 N.ar    1  UNL1       -0.1786
      3 C           2.4608   -0.5241   29.2716 C.ar    1  UNL1        0.2198
      4 N           2.8776   -0.8579   27.8698 N.ar    1  UNL1       -0.2070
      5 C           4.2867   -1.2884   27.5889 C.ar    1  UNL1        0.1181
      6 S           4.9827   -1.6782   26.3186 S.2     1  UNL1       -0.0673
      7 C           6.4051   -2.0158   26.6543 C.ar    1  UNL1        0.0371
      8 C           6.5883   -1.8347   28.1320 C.ar    1  UNL1        0.0137
      9 C           5.2790   -1.3851   28.7096 C.ar    1  UNL1        0.0780
     10 N           1.0516   -0.0935   29.5526 N.pl3   1  UNL1       -0.3044
     11 H           0.5037   -0.5938   30.1998 H       1  UNL1        0.1496
     12 C           0.4771    1.0994   28.8476 C.3     1  UNL1        0.0745
     13 C          -0.5076    0.9090   27.7322 C.3     1  UNL1        0.0369
     14 C          -1.0821    2.1018   27.0271 C.3     1  UNL1        0.0741
     15 N          -0.6719    3.4850   27.4375 N.3     1  UNL1       -0.2689
     16 C           0.3128    3.6754   28.5529 C.3     1  UNL1        0.0741
     17 C           0.8873    2.4826   29.2579 C.3     1  UNL1        0.0369
     18 C          -1.2463    4.6780   26.7324 C.3     1  UNL1        0.0991
     19 C          -2.5326    4.5517   25.9711 C.ar    1  UNL1       -0.0061
     20 C          -2.5110    4.4397   24.4754 C.ar    1  UNL1       -0.0015
     21 C          -3.7972    4.3134   23.7142 C.ar    1  UNL1        0.0196
     22 C          -5.1051    4.2990   24.4486 C.ar    1  UNL1        0.1217
     23 C          -5.1267    4.4110   25.9442 C.ar    1  UNL1        0.0196
     24 C          -3.8405    4.5373   26.7055 C.ar    1  UNL1       -0.0015
     25 S          -6.3914    4.1727   23.6873 S.O2    1  UNL1        0.0572
     26 N          -7.6776    4.0464   22.9260 N.3     1  UNL1       -0.2035
     27 O          -7.0793    5.0310   24.7072 O.2     1  UNL1       -0.1532
     28 O          -5.7035    3.3145   22.6674 O.2     1  UNL1       -0.1532
     29 H          -8.4102    4.5680   23.4073 H       1  UNL1        0.1442
     30 H          -7.9428    3.0632   22.8673 H       1  UNL1        0.1442
     31 O           5.8544   -1.1481   31.2321 O.3     1  UNL1       -0.4366
     32 C           4.5954   -2.9718   33.2543 C.3     1  UNL1        0.0342
     33 C           4.8714   -1.5397   33.6049 C.ar    1  UNL1        0.0124
     34 C           4.5178   -1.0194   34.9666 C.ar    1  UNL1       -0.0012
     35 C           4.7938    0.4128   35.3172 C.ar    1  UNL1        0.0003
     36 C           5.4233    1.3246   34.3062 C.ar    1  UNL1       -0.0012
     37 C           5.7768    0.8043   32.9444 C.ar    1  UNL1        0.0124
     38 C           6.4063    1.7161   31.9334 C.3     1  UNL1        0.0342
     39 C           5.5009   -0.6278   32.5938 C.ar    1  UNL1        0.1391
     40 C           4.4402    0.9331   36.6791 C.2     1  UNL1        0.0109
     41 C           3.2570    1.8385   36.8520 C.2     1  UNL1        0.0780
     42 C           2.9034    2.3587   38.2138 C.1     1  UNL1        0.1011
     43 N           2.5499    2.8789   39.5756 N.1     1  UNL1       -0.1908
@<TRIPOS>BOND
     1    32    33    1
     2    33    34   ar
     3    34    35   ar
     4    35    40    1
     5    40    41    2
     6    41    42    1
     7    42    43    3
     8    35    36   ar
     9    36    37   ar
    10    37    38    1
    11    37    39   ar
    12    39    31    1
    13    31     1    1
    14     1     2   ar
    15     2     3   ar
    16     3    10    1
    17    10    12    1
    18    12    13    1
    19    13    14    1
    20    14    15    1
    21    15    18    1
    22    18    19    1
    23    19    20   ar
    24    20    21   ar
    25    21    22   ar
    26    22    25    1
    27    25    26    1
    28    25    27    2
    29    25    28    2
    30    22    23   ar
    31    23    24   ar
    32    15    16    1
    33    16    17    1
    34     3     4   ar
    35     4     5   ar
    36     5     6   ar
    37     6     7   ar
    38     7     8   ar
    39     8     9   ar
    40    39    33   ar
    41     9     1   ar
    42    17    12    1
    43     9     5   ar
    44    24    19   ar
    45    10    11    1
    46    26    29    1
    47    26    30    1
@<TRIPOS>MOLECULE
*****
 43 47 0 0 0
SMALL
GASTEIGER

@<TRIPOS>ATOM
      1 C           3.7622    0.1518   23.2495 C.ar    1  UNL1        0.2338
      2 N           3.3697    0.6124   24.6219 N.ar    1  UNL1       -0.1786
      3 C           1.9620    1.0550   24.8905 C.ar    1  UNL1        0.2198
      4 N           0.9465    1.0370   23.7865 N.ar    1  UNL1       -0.2070
      5 C           1.3390    0.5764   22.4140 C.ar    1  UNL1        0.1181
      6 S           0.5620    0.4504   21.1372 S.2     1  UNL1       -0.0673
      7 C           1.4896   -0.0702   20.0795 C.ar    1  UNL1        0.0371
      8 C           2.8399   -0.2658   20.7027 C.ar    1  UNL1        0.0137
      9 C           2.7469    0.1338   22.1455 C.ar    1  UNL1        0.0780
     10 N           1.5694    1.5157   26.2630 N.pl3   1  UNL1       -0.3044
     11 H           0.8078    2.1290   26.3774 H       1  UNL1        0.1496
     12 C           2.3374    1.0419   27.4613 C.3     1  UNL1        0.0745
     13 C           3.6397    1.6924   27.8228 C.3     1  UNL1        0.0369
     14 C           4.4076    1.2187   29.0211 C.3     1  UNL1        0.0741
     15 N           3.8732    0.0943   29.8579 N.3     1  UNL1       -0.2689
     16 C           2.5708   -0.5562   29.4964 C.3     1  UNL1        0.0741
     17 C           1.8029   -0.0824   28.2981 C.3     1  UNL1        0.0369
     18 C           4.6411   -0.3795   31.0562 C.3     1  UNL1        0.0991
     19 C           5.4188   -1.6604   30.9900 C.ar    1  UNL1       -0.0061
     20 C           6.0469   -2.0906   29.6975 C.ar    1  UNL1       -0.0015
     21 C           6.8246   -3.3714   29.6314 C.ar    1  UNL1        0.0196
     22 C           6.9744   -4.2221   30.8577 C.ar    1  UNL1        0.1217
     23 C           6.3464   -3.7920   32.1502 C.ar    1  UNL1        0.0196
     24 C           5.5686   -2.5111   32.2164 C.ar    1  UNL1       -0.0015
     25 S           7.7522   -5.5030   30.7916 S.O2    1  UNL1        0.0572
     26 N           8.5299   -6.7839   30.7255 N.3     1  UNL1       -0.2035
     27 O           6.8421   -6.1087   31.8187 O.2     1  UNL1       -0.1532
     28 O           8.6622   -4.8974   29.7645 O.2     1  UNL1       -0.1532
     29 H           8.1228   -7.4625   31.3690 H       1  UNL1        0.1442
     30 H           9.4998   -6.6067   30.9870 H       1  UNL1        0.1442
     31 O           5.1700   -0.2909   22.9810 O.3     1  UNL1       -0.4366
     32 C           4.7166   -3.1701   22.2706 C.3     1  UNL1        0.0342
     33 C           5.5604   -2.8146   23.4587 C.ar    1  UNL1        0.0124
     34 C           6.1775   -3.8987   24.2916 C.ar    1  UNL1       -0.0012
     35 C           7.0214   -3.5432   25.4798 C.ar    1  UNL1        0.0003
     36 C           7.2481   -2.1037   25.8350 C.ar    1  UNL1       -0.0012
     37 C           6.6310   -1.0195   25.0020 C.ar    1  UNL1        0.0124
     38 C           6.8576    0.4200   25.3572 C.3     1  UNL1        0.0342
     39 C           5.7872   -1.3750   23.8139 C.ar    1  UNL1        0.1391
     40 C           7.6385   -4.6275   26.3128 C.2     1  UNL1        0.0109
     41 C           7.0735   -6.0164   26.2740 C.2     1  UNL1        0.0780
     42 C           7.6906   -7.1006   27.1069 C.1     1  UNL1        0.1011
     43 N           8.3077   -8.1848   27.9399 N.1     1  UNL1       -0.1908
@<TRIPOS>BOND
     1    32    33    1
     2    33    34   ar
     3    34    35   ar
     4    35    40    1
     5    40    41    2
     6    41    42    1
     7    42    43    3
     8    35    36   ar
     9    36    37   ar
    10    37    38    1
    11    37    39   ar
    12    39    31    1
    13    31     1    1
    14     1     2   ar
    15     2     3   ar
    16     3    10    1
    17    10    12    1
    18    12    13    1
    19    13    14    1
    20    14    15    1
    21    15    18    1
    22    18    19    1
    23    19    20   ar
    24    20    21   ar
    25    21    22   ar
    26    22    25    1
    27    25    26    1
    28    25    27    2
    29    25    28    2
    30    22    23   ar
    31    23    24   ar
    32    15    16    1
    33    16    17    1
    34     3     4   ar
    35     4     5   ar
    36     5     6   ar
    37     6     7   ar
    38     7     8   ar
    39     8     9   ar
    40    39    33   ar
    41     9     1   ar
    42    17    12    1
    43     9     5   ar
    44    24    19   ar
    45    10    11    1
    46    26    29    1
    47    26    30    1
@<TRIPOS>MOLECULE
*****
 43 47 0 0 0
SMALL
GASTEIGER

@<TRIPOS>ATOM
      1 C           1.9314    1.0178   31.2679 C.ar    1  UNL1        0.2338
      2 N           2.7749    0.1680   30.3644 N.ar    1  UNL1       -0.1786
      3 C           4.1941   -0.1432   30.7371 C.ar    1  UNL1        0.2198
      4 N           4.7698    0.3953   32.0132 N.ar    1  UNL1       -0.2070
      5 C           3.9263    1.2451   32.9167 C.ar    1  UNL1        0.1181
      6 S           4.2178    1.9112   34.2287 S.2     1  UNL1       -0.0673
      7 C           2.9788    2.6342   34.6668 C.ar    1  UNL1        0.0371
      8 C           1.9214    2.4149   33.6257 C.ar    1  UNL1        0.0137
      9 C           2.5071    1.5564   32.5440 C.ar    1  UNL1        0.0780
     10 N           5.0376   -0.9931   29.8335 N.pl3   1  UNL1       -0.3044
     11 H           5.5877   -1.7171   30.2109 H       1  UNL1        0.1496
     12 C           5.0431   -0.7397   28.3551 C.3     1  UNL1        0.0745
     13 C           4.3759   -1.7096   27.4255 C.3     1  UNL1        0.0369
     14 C           4.3814   -1.4562   25.9470 C.3     1  UNL1        0.0741
     15 N           5.0539   -0.2329   25.3982 N.3     1  UNL1       -0.2689
     16 C           5.7210    0.7370   26.3278 C.3     1  UNL1        0.0741
     17 C           5.7156    0.4836   27.8063 C.3     1  UNL1        0.0369
     18 C           5.0593    0.0205   23.9197 C.3     1  UNL1        0.0991
     19 C           3.8072    0.4790   23.2328 C.ar    1  UNL1       -0.0061
     20 C           3.5987    0.1826   21.7772 C.ar    1  UNL1       -0.0015
     21 C           2.3466    0.6411   21.0904 C.ar    1  UNL1        0.0196
     22 C           1.3028    1.3959   21.8590 C.ar    1  UNL1        0.1217
     23 C           1.5112    1.6922   23.3146 C.ar    1  UNL1        0.0196
     24 C           2.7634    1.2338   24.0015 C.ar    1  UNL1       -0.0015
     25 S           0.0506    1.8543   21.1721 S.O2    1  UNL1        0.0572
     26 N          -1.2016    2.3127   20.4852 N.3     1  UNL1       -0.2035
     27 O          -0.2403    0.4418   20.7597 O.2     1  UNL1       -0.1532
     28 O           0.3415    3.2668   21.5846 O.2     1  UNL1       -0.1532
     29 H          -1.6719    1.5111   20.0651 H       1  UNL1        0.1442
     30 H          -0.9630    2.9867   19.7577 H       1  UNL1        0.1442
     31 O           0.5121    1.3291   30.8952 O.3     1  UNL1       -0.4366
     32 C          -0.8115   -0.4649   28.8877 C.3     1  UNL1        0.0342
     33 C          -0.4690    0.9484   28.5199 C.ar    1  UNL1        0.0124
     34 C          -0.7883    1.4647   27.1482 C.ar    1  UNL1       -0.0012
     35 C          -0.4457    2.8780   26.7803 C.ar    1  UNL1        0.0003
     36 C           0.2160    3.7749   27.7839 C.ar    1  UNL1       -0.0012
     37 C           0.5353    3.2586   29.1557 C.ar    1  UNL1        0.0124
     38 C           1.1971    4.1555   30.1594 C.3     1  UNL1        0.0342
     39 C           0.1928    1.8454   29.5236 C.ar    1  UNL1        0.1391
     40 C          -0.7651    3.3943   25.4085 C.2     1  UNL1        0.0109
     41 C          -2.1797    3.3747   24.9104 C.2     1  UNL1        0.0780
     42 C          -2.4990    3.8909   23.5386 C.1     1  UNL1        0.1011
     43 N          -2.8184    4.4073   22.1670 N.1     1  UNL1       -0.1908
@<TRIPOS>BOND
     1    32    33    1
     2    33    34   ar
     3    34    35   ar
     4    35    40    1
     5    40    41    2
     6    41    42    1
     7    42    43    3
     8    35    36   ar
     9    36    37   ar
    10    37    38    1
    11    37    39   ar
    12    39    31    1
    13    31     1    1
    14     1     2   ar
    15     2     3   ar
    16     3    10    1
    17    10    12    1
    18    12    13    1
    19    13    14    1
    20    14    15    1
    21    15    18    1
    22    18    19    1
    23    19    20   ar
    24    20    21   ar
    25    21    22   ar
    26    22    25    1
    27    25    26    1
    28    25    27    2
    29    25    28    2
    30    22    23   ar
    31    23    24   ar
    32    15    16    1
    33    16    17    1
    34     3     4   ar
    35     4     5   ar
    36     5     6   ar
    37     6     7   ar
    38     7     8   ar
    39     8     9   ar
    40    39    33   ar
    41     9     1   ar
    42    17    12    1
    43     9     5   ar
    44    24    19   ar
    45    10    11    1
    46    26    29    1
    47    26    30    1
