@<TRIPOS>MOLECULE
*****
 35 38 0 0 0
SMALL
GASTEIGER

@<TRIPOS>ATOM
      1 C           3.0882    1.5130   21.8864 C.ar    1  UNL1        0.0541
      2 C           4.5436    1.7215   22.1836 C.ar    1  UNL1        0.0076
      3 C           5.2730    0.7581   23.0723 C.ar    1  UNL1        0.0371
      4 C           4.5471   -0.4137   23.6638 C.ar    1  UNL1        0.1391
      5 C           3.0917   -0.6222   23.3666 C.ar    1  UNL1        0.0371
      6 C           2.3622    0.3412   22.4780 C.ar    1  UNL1        0.0076
      7 N           2.4283    2.3220   19.5073 N.am    1  UNL1       -0.2368
      8 C           2.3586    2.4764   20.9977 C.2     1  UNL1        0.2541
      9 O           1.5595    3.5941   21.5995 O.2     1  UNL1       -0.2695
     10 C           1.6987    3.2854   18.6186 C.3     1  UNL1        0.0819
     11 C           0.2742    3.0181   18.2324 C.3     1  UNL1        0.0203
     12 C          -0.4553    3.9815   17.3437 C.3     1  UNL1        0.0017
     13 C           0.2398    5.2121   16.8413 C.3     1  UNL1        0.0001
     14 C           1.6643    5.4794   17.2275 C.3     1  UNL1        0.0017
     15 C           2.3938    4.5160   18.1162 C.3     1  UNL1        0.0203
     16 C           5.0376   -0.0500   17.8855 C.ar    1  UNL1        0.0652
     17 C           3.8769   -0.9813   18.0737 C.ar    1  UNL1        0.1085
     18 N           2.7581   -0.2061   18.7042 N.ar    1  UNL1       -0.2221
     19 C           3.2274    1.2043   18.9056 C.ar    1  UNL1        0.1691
     20 S           4.6362    1.3007   18.3996 S.2     1  UNL1       -0.0500
     21 O           7.1922    0.6472   16.6122 O.co2   1  UNL1       -0.5440
     22 C           6.3664   -0.4068   17.2880 C.2     1  UNL1        0.0805
     23 O           6.8694   -1.8178   17.3664 O.co2   1  UNL1       -0.5440
     24 O           5.2766   -1.3771   24.5525 O.3     1  UNL1       -0.4706
     25 C           5.3748   -2.8239   24.1694 C.3     1  UNL1        0.2320
     26 C           5.6463   -3.2058   22.7444 C.ar    1  UNL1        0.0211
     27 C           7.0504   -3.1866   22.2173 C.ar    1  UNL1       -0.0007
     28 C           7.3218   -3.5683   20.7923 C.ar    1  UNL1       -0.0003
     29 C           6.1891   -3.9694   19.8945 C.ar    1  UNL1        0.0038
     30 C           4.7849   -3.9886   20.4216 C.ar    1  UNL1        0.0712
     31 C           4.5135   -3.6068   21.8466 C.ar    1  UNL1        0.0032
     32 C           3.6522   -4.3896   19.5238 C.3     1  UNL1        0.4186
     33 F           2.5194   -4.7906   18.6260 F       1  UNL1       -0.1659
     34 F           4.4167   -5.6101   19.1045 F       1  UNL1       -0.1659
     35 F           2.8877   -3.1690   19.9432 F       1  UNL1       -0.1659
@<TRIPOS>UNITY_ATOM_ATTR
21 1
charge -1
@<TRIPOS>BOND
     1    21    22   ar
     2    22    23   ar
     3    22    16    1
     4    16    17   ar
     5    17    18   ar
     6    18    19   ar
     7    19     7    1
     8     7     8   am
     9     8     9    2
    10     8     1    1
    11     1     2   ar
    12     2     3   ar
    13     3     4   ar
    14     4    24    1
    15    24    25    1
    16    25    26    1
    17    26    27   ar
    18    27    28   ar
    19    28    29   ar
    20    29    30   ar
    21    30    32    1
    22    32    33    1
    23    32    34    1
    24    32    35    1
    25    30    31   ar
    26     4     5   ar
    27     5     6   ar
    28     7    10    1
    29    10    11    1
    30    11    12    1
    31    12    13    1
    32    13    14    1
    33    14    15    1
    34    19    20   ar
    35    20    16   ar
    36     6     1   ar
    37    15    10    1
    38    31    26   ar
@<TRIPOS>MOLECULE
*****
 35 38 0 0 0
SMALL
GASTEIGER

@<TRIPOS>ATOM
      1 C           4.9700   -0.5665   27.8489 C.ar    1  UNL1        0.0541
      2 C           4.2193   -1.6016   27.0648 C.ar    1  UNL1        0.0076
      3 C           3.9767   -1.4013   25.5982 C.ar    1  UNL1        0.0371
      4 C           4.4848   -0.1659   24.9157 C.ar    1  UNL1        0.1391
      5 C           5.2356    0.8691   25.6999 C.ar    1  UNL1        0.0371
      6 C           5.4782    0.6688   27.1665 C.ar    1  UNL1        0.0076
      7 N           4.2284   -0.2399   30.3174 N.am    1  UNL1       -0.2368
      8 C           5.2127   -0.7668   29.3156 C.2     1  UNL1        0.2541
      9 O           6.4396   -1.4939   29.7804 O.2     1  UNL1       -0.2695
     10 C           4.4711   -0.4402   31.7841 C.3     1  UNL1        0.0819
     11 C           4.1833   -1.7691   32.4173 C.3     1  UNL1        0.0203
     12 C           4.4260   -1.9693   33.8840 C.3     1  UNL1        0.0017
     13 C           4.9564   -0.8406   34.7174 C.3     1  UNL1        0.0001
     14 C           5.2442    0.4884   34.0841 C.3     1  UNL1        0.0017
     15 C           5.0015    0.6886   32.6175 C.3     1  UNL1        0.0203
     16 C           0.7285    0.9626   29.1471 C.ar    1  UNL1        0.0652
     17 C           1.4985    2.2496   29.1278 C.ar    1  UNL1        0.1085
     18 N           2.9034    1.9558   29.5638 N.ar    1  UNL1       -0.2221
     19 C           3.0015    0.4872   29.8527 C.ar    1  UNL1        0.1691
     20 S           1.6574   -0.1267   29.5951 S.2     1  UNL1       -0.0500
     21 O          -1.2960    1.5682   27.6356 O.co2   1  UNL1       -0.5440
     22 C          -0.7168    0.7942   28.7825 C.2     1  UNL1        0.0805
     23 O          -1.5828   -0.1481   29.5647 O.co2   1  UNL1       -0.5440
     24 O           4.2422    0.0343   23.4490 O.3     1  UNL1       -0.4706
     25 C           3.1974   -0.7787   22.7438 C.3     1  UNL1        0.2320
     26 C           3.3282   -1.0571   21.2756 C.ar    1  UNL1        0.0211
     27 C           3.0071    0.0154   20.2774 C.ar    1  UNL1       -0.0007
     28 C           3.1379   -0.2630   18.8093 C.ar    1  UNL1       -0.0003
     29 C           3.5898   -1.6139   18.3395 C.ar    1  UNL1        0.0038
     30 C           3.9109   -2.6864   19.3377 C.ar    1  UNL1        0.0712
     31 C           3.7801   -2.4080   20.8058 C.ar    1  UNL1        0.0032
     32 C           4.3629   -4.0374   18.8679 C.3     1  UNL1        0.4186
     33 F           4.8148   -5.3883   18.3981 F       1  UNL1       -0.1659
     34 F           5.7847   -3.5595   18.8615 F       1  UNL1       -0.1659
     35 F           2.9411   -4.5153   18.8743 F       1  UNL1       -0.1659
@<TRIPOS>UNITY_ATOM_ATTR
21 1
charge -1
@<TRIPOS>BOND
     1    21    22   ar
     2    22    23   ar
     3    22    16    1
     4    16    17   ar
     5    17    18   ar
     6    18    19   ar
     7    19     7    1
     8     7     8   am
     9     8     9    2
    10     8     1    1
    11     1     2   ar
    12     2     3   ar
    13     3     4   ar
    14     4    24    1
    15    24    25    1
    16    25    26    1
    17    26    27   ar
    18    27    28   ar
    19    28    29   ar
    20    29    30   ar
    21    30    32    1
    22    32    33    1
    23    32    34    1
    24    32    35    1
    25    30    31   ar
    26     4     5   ar
    27     5     6   ar
    28     7    10    1
    29    10    11    1
    30    11    12    1
    31    12    13    1
    32    13    14    1
    33    14    15    1
    34    19    20   ar
    35    20    16   ar
    36     6     1   ar
    37    15    10    1
    38    31    26   ar
@<TRIPOS>MOLECULE
*****
 35 38 0 0 0
SMALL
GASTEIGER

@<TRIPOS>ATOM
      1 C          -6.9136  -19.8812   21.2069 C.ar    1  UNL1        0.0541
      2 C          -8.0949  -19.4784   20.3749 C.ar    1  UNL1        0.0076
      3 C          -9.4829  -19.6182   20.9259 C.ar    1  UNL1        0.0371
      4 C          -9.6897  -20.1608   22.3090 C.ar    1  UNL1        0.1391
      5 C          -8.5084  -20.5636   23.1410 C.ar    1  UNL1        0.0371
      6 C          -7.1204  -20.4238   22.5899 C.ar    1  UNL1        0.0076
      7 N          -4.6196  -18.6620   21.1699 N.am    1  UNL1       -0.2368
      8 C          -5.5255  -19.7414   20.6558 C.2     1  UNL1        0.2541
      9 O          -5.0432  -20.6810   19.5907 O.2     1  UNL1       -0.2695
     10 C          -3.2315  -18.5222   20.6189 C.3     1  UNL1        0.0819
     11 C          -2.0557  -19.0010   21.4177 C.3     1  UNL1        0.0203
     12 C          -0.6677  -18.8612   20.8667 C.3     1  UNL1        0.0017
     13 C          -0.4554  -18.2425   19.5168 C.3     1  UNL1        0.0001
     14 C          -1.6312  -17.7636   18.7180 C.3     1  UNL1        0.0017
     15 C          -3.0192  -17.9035   19.2690 C.3     1  UNL1        0.0203
     16 C          -5.2279  -16.4176   24.2777 C.ar    1  UNL1        0.0652
     17 C          -6.4602  -16.1350   23.4705 C.ar    1  UNL1        0.1085
     18 N          -6.3823  -16.9413   22.2080 N.ar    1  UNL1       -0.2221
     19 C          -5.1019  -17.7223   22.2350 C.ar    1  UNL1        0.1691
     20 S          -4.3885  -17.3986   23.5142 S.2     1  UNL1       -0.0500
     21 O          -5.0079  -14.3431   25.8262 O.co2   1  UNL1       -0.5440
     22 C          -4.8938  -15.8236   25.6139 C.2     1  UNL1        0.0805
     23 O          -4.4455  -16.7100   26.7378 O.co2   1  UNL1       -0.5440
     24 O         -11.0779  -20.3006   22.8600 O.3     1  UNL1       -0.4706
     25 C         -11.5889  -19.3116   23.8653 C.3     1  UNL1        0.2320
     26 C         -10.8646  -18.0152   24.0772 C.ar    1  UNL1        0.0211
     27 C         -11.0220  -16.8979   23.0889 C.ar    1  UNL1       -0.0007
     28 C         -10.2977  -15.6016   23.3008 C.ar    1  UNL1       -0.0003
     29 C          -9.4160  -15.4226   24.5010 C.ar    1  UNL1        0.0038
     30 C          -9.2585  -16.5399   25.4893 C.ar    1  UNL1        0.0712
     31 C          -9.9828  -17.8362   25.2774 C.ar    1  UNL1        0.0032
     32 C          -8.3767  -16.3609   26.6895 C.3     1  UNL1        0.4186
     33 F          -7.4950  -16.1819   27.8897 F       1  UNL1       -0.1659
     34 F          -7.9875  -14.9975   26.2002 F       1  UNL1       -0.1659
     35 F          -8.7660  -17.7244   27.1788 F       1  UNL1       -0.1659
@<TRIPOS>UNITY_ATOM_ATTR
21 1
charge -1
@<TRIPOS>BOND
     1    21    22   ar
     2    22    23   ar
     3    22    16    1
     4    16    17   ar
     5    17    18   ar
     6    18    19   ar
     7    19     7    1
     8     7     8   am
     9     8     9    2
    10     8     1    1
    11     1     2   ar
    12     2     3   ar
    13     3     4   ar
    14     4    24    1
    15    24    25    1
    16    25    26    1
    17    26    27   ar
    18    27    28   ar
    19    28    29   ar
    20    29    30   ar
    21    30    32    1
    22    32    33    1
    23    32    34    1
    24    32    35    1
    25    30    31   ar
    26     4     5   ar
    27     5     6   ar
    28     7    10    1
    29    10    11    1
    30    11    12    1
    31    12    13    1
    32    13    14    1
    33    14    15    1
    34    19    20   ar
    35    20    16   ar
    36     6     1   ar
    37    15    10    1
    38    31    26   ar
@<TRIPOS>MOLECULE
*****
 35 38 0 0 0
SMALL
GASTEIGER

@<TRIPOS>ATOM
      1 C          -5.9139  -19.4111   21.4512 C.ar    1  UNL1        0.0541
      2 C          -6.0772  -20.6022   22.3482 C.ar    1  UNL1        0.0076
      3 C          -7.4257  -20.9356   22.9141 C.ar    1  UNL1        0.0371
      4 C          -8.6109  -20.0779   22.5829 C.ar    1  UNL1        0.1391
      5 C          -8.4476  -18.8869   21.6859 C.ar    1  UNL1        0.0371
      6 C          -7.0991  -18.5535   21.1200 C.ar    1  UNL1        0.0076
      7 N          -3.6297  -18.1892   21.6503 N.am    1  UNL1       -0.2368
      8 C          -4.5653  -19.0777   20.8853 C.2     1  UNL1        0.2541
      9 O          -4.1523  -19.6328   19.5543 O.2     1  UNL1       -0.2695
     10 C          -2.2811  -17.8558   21.0843 C.3     1  UNL1        0.0819
     11 C          -1.7302  -16.4679   21.2268 C.3     1  UNL1        0.0203
     12 C          -0.3817  -16.1346   20.6609 C.3     1  UNL1        0.0017
     13 C           0.4159  -17.1890   19.9525 C.3     1  UNL1        0.0001
     14 C          -0.1349  -18.5769   19.8101 C.3     1  UNL1        0.0017
     15 C          -1.4834  -18.9103   20.3760 C.3     1  UNL1        0.0203
     16 C          -5.1447  -16.3037   24.6859 C.ar    1  UNL1        0.0652
     17 C          -4.2115  -17.2563   25.3727 C.ar    1  UNL1        0.1085
     18 N          -3.5304  -18.0785   24.3192 N.ar    1  UNL1       -0.2221
     19 C          -4.0426  -17.6342   22.9812 C.ar    1  UNL1        0.1691
     20 S          -5.0403  -16.5372   23.2079 S.2     1  UNL1       -0.0500
     21 O          -5.9080  -15.0604   26.8356 O.co2   1  UNL1       -0.5440
     22 C          -6.0273  -15.2947   25.3589 C.2     1  UNL1        0.0805
     23 O          -7.0292  -14.5201   24.5551 O.co2   1  UNL1       -0.5440
     24 O          -9.9595  -20.4114   23.1488 O.3     1  UNL1       -0.4706
     25 C         -11.1993  -20.1099   22.3601 C.3     1  UNL1        0.2320
     26 C         -11.6727  -18.6935   22.2192 C.ar    1  UNL1        0.0211
     27 C         -12.5891  -18.1030   23.2495 C.ar    1  UNL1       -0.0007
     28 C         -13.0624  -16.6867   23.1085 C.ar    1  UNL1       -0.0003
     29 C         -12.6193  -15.8608   21.9374 C.ar    1  UNL1        0.0038
     30 C         -11.7029  -16.4513   20.9071 C.ar    1  UNL1        0.0712
     31 C         -11.2296  -17.8676   21.0481 C.ar    1  UNL1        0.0032
     32 C         -11.2598  -15.6254   19.7360 C.3     1  UNL1        0.4186
     33 F         -10.8167  -14.7996   18.5648 F       1  UNL1       -0.1659
     34 F         -12.4629  -16.0771   18.9623 F       1  UNL1       -0.1659
     35 F         -10.0567  -15.1737   20.5096 F       1  UNL1       -0.1659
@<TRIPOS>UNITY_ATOM_ATTR
21 1
charge -1
@<TRIPOS>BOND
     1    21    22   ar
     2    22    23   ar
     3    22    16    1
     4    16    17   ar
     5    17    18   ar
     6    18    19   ar
     7    19     7    1
     8     7     8   am
     9     8     9    2
    10     8     1    1
    11     1     2   ar
    12     2     3   ar
    13     3     4   ar
    14     4    24    1
    15    24    25    1
    16    25    26    1
    17    26    27   ar
    18    27    28   ar
    19    28    29   ar
    20    29    30   ar
    21    30    32    1
    22    32    33    1
    23    32    34    1
    24    32    35    1
    25    30    31   ar
    26     4     5   ar
    27     5     6   ar
    28     7    10    1
    29    10    11    1
    30    11    12    1
    31    12    13    1
    32    13    14    1
    33    14    15    1
    34    19    20   ar
    35    20    16   ar
    36     6     1   ar
    37    15    10    1
    38    31    26   ar
@<TRIPOS>MOLECULE
*****
 35 38 0 0 0
SMALL
GASTEIGER

@<TRIPOS>ATOM
      1 C           4.6255   -1.5934   19.1445 C.ar    1  UNL1        0.0541
      2 C           6.1195   -1.4600   19.1479 C.ar    1  UNL1        0.0076
      3 C           6.9705   -2.5721   19.6853 C.ar    1  UNL1        0.0371
      4 C           6.3276   -3.8176   20.2195 C.ar    1  UNL1        0.1391
      5 C           4.8336   -3.9510   20.2161 C.ar    1  UNL1        0.0371
      6 C           3.9825   -2.8389   19.6786 C.ar    1  UNL1        0.0076
      7 N           3.3055    0.6127   19.5199 N.am    1  UNL1       -0.2368
      8 C           3.7743   -0.4813   18.6070 C.2     1  UNL1        0.2541
      9 O           3.3921   -0.4632   17.1566 O.2     1  UNL1       -0.2695
     10 C           2.4543    1.7248   18.9824 C.3     1  UNL1        0.0819
     11 C           0.9908    1.5004   18.7425 C.3     1  UNL1        0.0203
     12 C           0.1397    2.6124   18.2050 C.3     1  UNL1        0.0017
     13 C           0.7522    3.9490   17.9075 C.3     1  UNL1        0.0001
     14 C           2.2158    4.1734   18.1474 C.3     1  UNL1        0.0017
     15 C           3.0668    3.0613   18.6848 C.3     1  UNL1        0.0203
     16 C           3.6335    0.2165   23.3671 C.ar    1  UNL1        0.0652
     17 C           4.9182    0.9170   23.0373 C.ar    1  UNL1        0.1085
     18 N           4.9517    1.1506   21.5560 N.ar    1  UNL1       -0.2221
     19 C           3.6877    0.5946   20.9703 C.ar    1  UNL1        0.1691
     20 S           2.8730    0.0173   22.0896 S.2     1  UNL1       -0.0500
     21 O           3.7202   -1.4764   25.3359 O.co2   1  UNL1       -0.5440
     22 C           3.1875   -0.2099   24.7343 C.2     1  UNL1        0.0805
     23 O           2.2088    0.6304   25.4999 O.co2   1  UNL1       -0.5440
     24 O           7.1787   -4.9297   20.7570 O.3     1  UNL1       -0.4706
     25 C           8.1739   -4.6539   21.8448 C.3     1  UNL1        0.2320
     26 C           8.2640   -5.5704   23.0289 C.ar    1  UNL1        0.0211
     27 C           9.1455   -6.7827   22.9736 C.ar    1  UNL1       -0.0007
     28 C           9.2356   -7.6992   24.1576 C.ar    1  UNL1       -0.0003
     29 C           8.4441   -7.4033   25.3970 C.ar    1  UNL1        0.0038
     30 C           7.5625   -6.1910   25.4523 C.ar    1  UNL1        0.0712
     31 C           7.4724   -5.2746   24.2683 C.ar    1  UNL1        0.0032
     32 C           6.7710   -5.8952   26.6916 C.3     1  UNL1        0.4186
     33 F           5.9795   -5.5993   27.9310 F       1  UNL1       -0.1659
     34 F           7.1446   -7.2362   27.2504 F       1  UNL1       -0.1659
     35 F           6.3974   -4.5542   26.1329 F       1  UNL1       -0.1659
@<TRIPOS>UNITY_ATOM_ATTR
21 1
charge -1
@<TRIPOS>BOND
     1    21    22   ar
     2    22    23   ar
     3    22    16    1
     4    16    17   ar
     5    17    18   ar
     6    18    19   ar
     7    19     7    1
     8     7     8   am
     9     8     9    2
    10     8     1    1
    11     1     2   ar
    12     2     3   ar
    13     3     4   ar
    14     4    24    1
    15    24    25    1
    16    25    26    1
    17    26    27   ar
    18    27    28   ar
    19    28    29   ar
    20    29    30   ar
    21    30    32    1
    22    32    33    1
    23    32    34    1
    24    32    35    1
    25    30    31   ar
    26     4     5   ar
    27     5     6   ar
    28     7    10    1
    29    10    11    1
    30    11    12    1
    31    12    13    1
    32    13    14    1
    33    14    15    1
    34    19    20   ar
    35    20    16   ar
    36     6     1   ar
    37    15    10    1
    38    31    26   ar
@<TRIPOS>MOLECULE
*****
 35 38 0 0 0
SMALL
GASTEIGER

@<TRIPOS>ATOM
      1 C           4.5525   -1.5779   19.0748 C.ar    1  UNL1        0.0541
      2 C           3.8987   -2.7929   19.6632 C.ar    1  UNL1        0.0076
      3 C           4.7409   -3.9123   20.1994 C.ar    1  UNL1        0.0371
      4 C           6.2369   -3.8167   20.1472 C.ar    1  UNL1        0.1391
      5 C           6.8908   -2.6017   19.5588 C.ar    1  UNL1        0.0371
      6 C           6.0485   -1.4823   19.0227 C.ar    1  UNL1        0.0076
      7 N           3.2475    0.6366   19.4534 N.am    1  UNL1       -0.2368
      8 C           3.7103   -0.4584   18.5386 C.2     1  UNL1        0.2541
      9 O           3.3309   -0.4339   17.0876 O.2     1  UNL1       -0.2695
     10 C           2.4053    1.7561   18.9172 C.3     1  UNL1        0.0819
     11 C           3.0306    3.0845   18.6104 C.3     1  UNL1        0.0203
     12 C           2.1884    4.2039   18.0742 C.3     1  UNL1        0.0017
     13 C           0.7209    3.9949   17.8448 C.3     1  UNL1        0.0001
     14 C           0.0956    2.6665   18.1515 C.3     1  UNL1        0.0017
     15 C           0.9378    1.5471   18.6877 C.3     1  UNL1        0.0203
     16 C           3.5499    0.2622   23.3049 C.ar    1  UNL1        0.0652
     17 C           4.8718    0.8868   22.9697 C.ar    1  UNL1        0.1085
     18 N           4.9195    1.1031   21.4862 N.ar    1  UNL1       -0.2221
     19 C           3.6270    0.6121   20.9044 C.ar    1  UNL1        0.1691
     20 S           2.7806    0.0925   22.0284 S.2     1  UNL1       -0.0500
     21 O           2.0094    0.6765   25.3555 O.co2   1  UNL1       -0.5440
     22 C           3.0798   -0.1247   24.6758 C.2     1  UNL1        0.0805
     23 O           3.6803   -1.3129   25.3669 O.co2   1  UNL1       -0.5440
     24 O           7.0792   -4.9362   20.6834 O.3     1  UNL1       -0.4706
     25 C           8.0810   -4.6683   21.7671 C.3     1  UNL1        0.2320
     26 C           7.7098   -4.8907   23.2034 C.ar    1  UNL1        0.0211
     27 C           6.9615   -3.8317   23.9573 C.ar    1  UNL1       -0.0007
     28 C           6.5904   -4.0541   25.3935 C.ar    1  UNL1       -0.0003
     29 C           6.9675   -5.3355   26.0758 C.ar    1  UNL1        0.0038
     30 C           7.7158   -6.3946   25.3219 C.ar    1  UNL1        0.0712
     31 C           8.0870   -6.1722   23.8857 C.ar    1  UNL1        0.0032
     32 C           8.0930   -7.6761   26.0043 C.3     1  UNL1        0.4186
     33 F           8.4701   -8.9575   26.6866 F       1  UNL1       -0.1659
     34 F           7.3763   -7.2273   27.2432 F       1  UNL1       -0.1659
     35 F           8.8097   -8.1248   24.7653 F       1  UNL1       -0.1659
@<TRIPOS>UNITY_ATOM_ATTR
21 1
charge -1
@<TRIPOS>BOND
     1    21    22   ar
     2    22    23   ar
     3    22    16    1
     4    16    17   ar
     5    17    18   ar
     6    18    19   ar
     7    19     7    1
     8     7     8   am
     9     8     9    2
    10     8     1    1
    11     1     2   ar
    12     2     3   ar
    13     3     4   ar
    14     4    24    1
    15    24    25    1
    16    25    26    1
    17    26    27   ar
    18    27    28   ar
    19    28    29   ar
    20    29    30   ar
    21    30    32    1
    22    32    33    1
    23    32    34    1
    24    32    35    1
    25    30    31   ar
    26     4     5   ar
    27     5     6   ar
    28     7    10    1
    29    10    11    1
    30    11    12    1
    31    12    13    1
    32    13    14    1
    33    14    15    1
    34    19    20   ar
    35    20    16   ar
    36     6     1   ar
    37    15    10    1
    38    31    26   ar
@<TRIPOS>MOLECULE
*****
 35 38 0 0 0
SMALL
GASTEIGER

@<TRIPOS>ATOM
      1 C           7.5680   -3.9465   20.6785 C.ar    1  UNL1        0.0541
      2 C           8.5773   -2.9968   20.1047 C.ar    1  UNL1        0.0076
      3 C           8.2069   -2.1186   18.9465 C.ar    1  UNL1        0.0371
      4 C           6.8272   -2.1900   18.3622 C.ar    1  UNL1        0.1391
      5 C           5.8179   -3.1397   18.9361 C.ar    1  UNL1        0.0371
      6 C           6.1883   -4.0179   20.0943 C.ar    1  UNL1        0.0076
      7 N           7.5766   -4.4160   23.2339 N.am    1  UNL1       -0.2368
      8 C           7.9383   -4.8249   21.8368 C.2     1  UNL1        0.2541
      9 O           8.6705   -6.1121   21.5978 O.2     1  UNL1       -0.2695
     10 C           7.9469   -5.2943   24.3921 C.3     1  UNL1        0.0819
     11 C           8.3071   -4.6815   25.7130 C.3     1  UNL1        0.0203
     12 C           8.6774   -5.5599   26.8711 C.3     1  UNL1        0.0017
     13 C           8.6876   -7.0510   26.7084 C.3     1  UNL1        0.0001
     14 C           8.3275   -7.6638   25.3875 C.3     1  UNL1        0.0017
     15 C           7.9571   -6.7854   24.2294 C.3     1  UNL1        0.0203
     16 C           5.0747   -1.5272   23.9129 C.ar    1  UNL1        0.0652
     17 C           6.3608   -0.7688   23.7681 C.ar    1  UNL1        0.1085
     18 N           7.4545   -1.7587   23.4961 N.ar    1  UNL1       -0.2221
     19 C           6.8444   -3.1288   23.4728 C.ar    1  UNL1        0.1691
     20 S           5.3736   -2.9857   23.7304 S.2     1  UNL1       -0.0500
     21 O           2.7617   -0.7008   23.0662 O.co2   1  UNL1       -0.5440
     22 C           3.7265   -0.9316   24.1913 C.2     1  UNL1        0.0805
     23 O           3.3430   -0.5668   25.5948 O.co2   1  UNL1       -0.5440
     24 O           6.4568   -1.3117   17.2040 O.3     1  UNL1       -0.4706
     25 C           6.4041    0.1772   17.3785 C.3     1  UNL1        0.2320
     26 C           5.1537    0.8285   17.8908 C.ar    1  UNL1        0.0211
     27 C           5.0045    2.3197   17.8269 C.ar    1  UNL1       -0.0007
     28 C           3.7542    2.9709   18.3391 C.ar    1  UNL1       -0.0003
     29 C           2.6529    2.1310   18.9152 C.ar    1  UNL1        0.0038
     30 C           2.8021    0.6398   18.9790 C.ar    1  UNL1        0.0712
     31 C           4.0525   -0.0114   18.4668 C.ar    1  UNL1        0.0032
     32 C           1.7009   -0.2001   19.5551 C.3     1  UNL1        0.4186
     33 F           0.5997   -1.0401   20.1312 F       1  UNL1       -0.1659
     34 F           2.7088   -1.2207   19.9938 F       1  UNL1       -0.1659
     35 F           0.6930    0.8205   19.1164 F       1  UNL1       -0.1659
@<TRIPOS>UNITY_ATOM_ATTR
21 1
charge -1
@<TRIPOS>BOND
     1    21    22   ar
     2    22    23   ar
     3    22    16    1
     4    16    17   ar
     5    17    18   ar
     6    18    19   ar
     7    19     7    1
     8     7     8   am
     9     8     9    2
    10     8     1    1
    11     1     2   ar
    12     2     3   ar
    13     3     4   ar
    14     4    24    1
    15    24    25    1
    16    25    26    1
    17    26    27   ar
    18    27    28   ar
    19    28    29   ar
    20    29    30   ar
    21    30    32    1
    22    32    33    1
    23    32    34    1
    24    32    35    1
    25    30    31   ar
    26     4     5   ar
    27     5     6   ar
    28     7    10    1
    29    10    11    1
    30    11    12    1
    31    12    13    1
    32    13    14    1
    33    14    15    1
    34    19    20   ar
    35    20    16   ar
    36     6     1   ar
    37    15    10    1
    38    31    26   ar
@<TRIPOS>MOLECULE
*****
 35 38 0 0 0
SMALL
GASTEIGER

@<TRIPOS>ATOM
      1 C           1.1212    1.4509   20.9332 C.ar    1  UNL1        0.0541
      2 C           2.0142    2.3501   20.1308 C.ar    1  UNL1        0.0076
      3 C           2.7111    1.8216   18.9122 C.ar    1  UNL1        0.0371
      4 C           2.5149    0.3939   18.4961 C.ar    1  UNL1        0.1391
      5 C           1.6219   -0.5053   19.2985 C.ar    1  UNL1        0.0371
      6 C           0.9250    0.0232   20.5171 C.ar    1  UNL1        0.0076
      7 N           1.0970    1.9080   23.4907 N.am    1  UNL1       -0.2368
      8 C           0.4243    1.9794   22.1519 C.2     1  UNL1        0.2541
      9 O          -0.9453    2.5793   22.0317 O.2     1  UNL1       -0.2695
     10 C           0.4000    2.4365   24.7094 C.3     1  UNL1        0.0819
     11 C           0.3952    3.9099   24.9908 C.3     1  UNL1        0.0203
     12 C          -0.3017    4.4383   26.2095 C.3     1  UNL1        0.0017
     13 C          -0.9937    3.4934   27.1466 C.3     1  UNL1        0.0001
     14 C          -0.9889    2.0201   26.8651 C.3     1  UNL1        0.0017
     15 C          -0.2920    1.4916   25.6465 C.3     1  UNL1        0.0203
     16 C           4.2708   -0.2617   24.0242 C.ar    1  UNL1        0.0652
     17 C           4.8774    1.0319   23.5675 C.ar    1  UNL1        0.1085
     18 N           3.7623    2.0021   23.3121 N.ar    1  UNL1       -0.2221
     19 C           2.4665    1.3082   23.6109 C.ar    1  UNL1        0.1691
     20 S           2.7808   -0.0909   24.0510 S.2     1  UNL1       -0.0500
     21 O           4.6841   -2.8093   23.7262 O.co2   1  UNL1       -0.5440
     22 C           5.0222   -1.5074   24.3899 C.2     1  UNL1        0.0805
     23 O           6.1117   -1.4510   25.4193 O.co2   1  UNL1       -0.5440
     24 O           3.2118   -0.1346   17.2774 O.3     1  UNL1       -0.4706
     25 C           4.6791   -0.4419   17.3266 C.3     1  UNL1        0.2320
     26 C           5.1954   -1.4869   18.2709 C.ar    1  UNL1        0.0211
     27 C           6.5355   -1.3132   18.9219 C.ar    1  UNL1       -0.0007
     28 C           7.0516   -2.3581   19.8661 C.ar    1  UNL1       -0.0003
     29 C           6.2277   -3.5767   20.1594 C.ar    1  UNL1        0.0038
     30 C           4.8875   -3.7504   19.5084 C.ar    1  UNL1        0.0712
     31 C           4.3714   -2.7055   18.5642 C.ar    1  UNL1        0.0032
     32 C           4.0635   -4.9690   19.8017 C.3     1  UNL1        0.4186
     33 F           3.2395   -6.1877   20.0949 F       1  UNL1       -0.1659
     34 F           3.9515   -4.5479   21.2370 F       1  UNL1       -0.1659
     35 F           4.1755   -5.3902   18.3664 F       1  UNL1       -0.1659
@<TRIPOS>UNITY_ATOM_ATTR
21 1
charge -1
@<TRIPOS>BOND
     1    21    22   ar
     2    22    23   ar
     3    22    16    1
     4    16    17   ar
     5    17    18   ar
     6    18    19   ar
     7    19     7    1
     8     7     8   am
     9     8     9    2
    10     8     1    1
    11     1     2   ar
    12     2     3   ar
    13     3     4   ar
    14     4    24    1
    15    24    25    1
    16    25    26    1
    17    26    27   ar
    18    27    28   ar
    19    28    29   ar
    20    29    30   ar
    21    30    32    1
    22    32    33    1
    23    32    34    1
    24    32    35    1
    25    30    31   ar
    26     4     5   ar
    27     5     6   ar
    28     7    10    1
    29    10    11    1
    30    11    12    1
    31    12    13    1
    32    13    14    1
    33    14    15    1
    34    19    20   ar
    35    20    16   ar
    36     6     1   ar
    37    15    10    1
    38    31    26   ar
@<TRIPOS>MOLECULE
*****
 35 38 0 0 0
SMALL
GASTEIGER

@<TRIPOS>ATOM
      1 C           1.0183    2.5207   24.9542 C.ar    1  UNL1        0.0541
      2 C           2.4294    2.9991   25.1269 C.ar    1  UNL1        0.0076
      3 C           3.5753    2.0812   24.8199 C.ar    1  UNL1        0.0371
      4 C           3.3101    0.6850   24.3402 C.ar    1  UNL1        0.1391
      5 C           1.8990    0.2066   24.1675 C.ar    1  UNL1        0.0371
      6 C           0.7531    1.1245   24.4746 C.ar    1  UNL1        0.0076
      7 N          -0.8365    3.3385   26.5794 N.am    1  UNL1       -0.2368
      8 C          -0.1277    3.4386   25.2613 C.2     1  UNL1        0.2541
      9 O          -0.5650    4.4566   24.2501 O.2     1  UNL1       -0.2695
     10 C          -1.9825    4.2564   26.8865 C.3     1  UNL1        0.0819
     11 C          -3.3904    3.8139   26.6185 C.3     1  UNL1        0.0203
     12 C          -4.5363    4.7318   26.9255 C.3     1  UNL1        0.0017
     13 C          -4.2743    6.0922   27.5005 C.3     1  UNL1        0.0001
     14 C          -2.8664    6.5347   27.7685 C.3     1  UNL1        0.0017
     15 C          -1.7205    5.6168   27.4615 C.3     1  UNL1        0.0203
     16 C           0.7524    1.2511   29.4402 C.ar    1  UNL1        0.0652
     17 C          -0.2053    0.2569   28.8534 C.ar    1  UNL1        0.1085
     18 N          -0.9171    0.9178   27.7104 N.ar    1  UNL1       -0.2221
     19 C          -0.3993    2.3205   27.5907 C.ar    1  UNL1        0.1691
     20 S           0.6325    2.5265   28.6598 S.2     1  UNL1       -0.0500
     21 O           2.0413    2.1469   31.5104 O.co2   1  UNL1       -0.5440
     22 C           1.6691    1.0120   30.6031 C.2     1  UNL1        0.0805
     23 O           2.2135   -0.3622   30.8588 O.co2   1  UNL1       -0.5440
     24 O           4.4561   -0.2329   24.0332 O.3     1  UNL1       -0.4706
     25 C           4.1926   -1.6049   23.4871 C.3     1  UNL1        0.2320
     26 C           3.9969   -1.8004   22.0128 C.ar    1  UNL1        0.0211
     27 C           3.4617   -0.6794   21.1720 C.ar    1  UNL1       -0.0007
     28 C           3.2660   -0.8750   19.6978 C.ar    1  UNL1       -0.0003
     29 C           3.6055   -2.1916   19.0643 C.ar    1  UNL1        0.0038
     30 C           4.1407   -3.3126   19.9050 C.ar    1  UNL1        0.0712
     31 C           4.3364   -3.1171   21.3793 C.ar    1  UNL1        0.0032
     32 C           4.4801   -4.6292   19.2715 C.3     1  UNL1        0.4186
     33 F           4.8196   -5.9459   18.6380 F       1  UNL1       -0.1659
     34 F           5.9020   -4.4812   19.7258 F       1  UNL1       -0.1659
     35 F           3.0583   -4.7773   18.8172 F       1  UNL1       -0.1659
@<TRIPOS>UNITY_ATOM_ATTR
21 1
charge -1
@<TRIPOS>BOND
     1    21    22   ar
     2    22    23   ar
     3    22    16    1
     4    16    17   ar
     5    17    18   ar
     6    18    19   ar
     7    19     7    1
     8     7     8   am
     9     8     9    2
    10     8     1    1
    11     1     2   ar
    12     2     3   ar
    13     3     4   ar
    14     4    24    1
    15    24    25    1
    16    25    26    1
    17    26    27   ar
    18    27    28   ar
    19    28    29   ar
    20    29    30   ar
    21    30    32    1
    22    32    33    1
    23    32    34    1
    24    32    35    1
    25    30    31   ar
    26     4     5   ar
    27     5     6   ar
    28     7    10    1
    29    10    11    1
    30    11    12    1
    31    12    13    1
    32    13    14    1
    33    14    15    1
    34    19    20   ar
    35    20    16   ar
    36     6     1   ar
    37    15    10    1
    38    31    26   ar
