@<TRIPOS>MOLECULE
*****
 20 21 0 0 0
SMALL
GASTEIGER

@<TRIPOS>ATOM
      1 C          -6.9256  -19.2870   21.0823 C.2     1  UNL1        0.0436
      2 C          -7.8142  -19.6774   22.2260 C.2     1  UNL1        0.0044
      3 C          -9.1740  -19.0594   22.3642 C.ar    1  UNL1        0.0168
      4 C          -9.6158  -17.9963   21.4027 C.ar    1  UNL1        0.0761
      5 C         -10.9756  -17.3783   21.5409 C.ar    1  UNL1        0.2901
      6 C         -11.8935  -17.8234   22.6407 C.ar    1  UNL1        0.0761
      7 C         -11.4516  -18.8865   23.6021 C.ar    1  UNL1        0.0177
      8 C         -10.0919  -19.5045   23.4639 C.ar    1  UNL1        0.0580
      9 CL         -9.6499  -20.5677   24.4254 Cl      1  UNL1       -0.0822
     10 N         -11.4175  -16.3151   20.5794 N.pl3   1  UNL1        0.0809
     11 O         -10.4136  -15.3617   20.0021 O.2     1  UNL1        0.0415
     12 O         -12.8633  -16.2053   20.1953 O.co2   1  UNL1       -0.5760
     13 O          -5.4062  -21.2143   20.2298 O.2     1  UNL1       -0.2850
     14 C          -5.5658  -19.9051   20.9441 C.2     1  UNL1        0.2111
     15 C          -4.3657  -19.2138   21.5203 C.ar    1  UNL1        0.0961
     16 C          -2.9377  -19.6416   21.3543 C.ar    1  UNL1        0.0218
     17 C          -2.0723  -18.6657   22.0950 C.ar    1  UNL1        0.0200
     18 C          -2.9656  -17.6346   22.7187 C.ar    1  UNL1        0.0725
     19 N          -4.3830  -17.9734   22.3635 N.ar    1  UNL1       -0.3495
     20 H          -5.1840  -17.4700   22.6360 H       1  UNL1        0.1661
@<TRIPOS>UNITY_ATOM_ATTR
10 1
charge 1
12 1
charge -1
@<TRIPOS>BOND
     1    13    14    2
     2    14     1    1
     3     1     2    2
     4     2     3    1
     5     3     4   ar
     6     4     5   ar
     7     5    10    1
     8    10    11    2
     9    10    12    1
    10     5     6   ar
    11     6     7   ar
    12     7     8   ar
    13     8     9    1
    14    14    15    1
    15    15    16   ar
    16    16    17   ar
    17    17    18   ar
    18    18    19   ar
    19     8     3   ar
    20    19    15   ar
    21    19    20    1
@<TRIPOS>MOLECULE
*****
 20 21 0 0 0
SMALL
GASTEIGER

@<TRIPOS>ATOM
      1 C          -5.8440  -20.1715   20.9227 C.2     1  UNL1        0.0436
      2 C          -6.8132  -19.0281   20.8661 C.2     1  UNL1        0.0044
      3 C          -8.2624  -19.2571   21.1784 C.ar    1  UNL1        0.0168
      4 C          -8.7393  -19.2127   22.5998 C.ar    1  UNL1        0.0761
      5 C         -10.1884  -19.4417   22.9121 C.ar    1  UNL1        0.2901
      6 C         -11.1606  -19.7150   21.8030 C.ar    1  UNL1        0.0761
      7 C         -10.6837  -19.7593   20.3816 C.ar    1  UNL1        0.0177
      8 C          -9.2345  -19.5303   20.0693 C.ar    1  UNL1        0.0580
      9 CL         -8.7575  -19.5746   18.6478 Cl      1  UNL1       -0.0822
     10 N         -10.6654  -19.3974   24.3336 N.pl3   1  UNL1        0.0809
     11 O         -11.9570  -18.7131   24.6703 O.2     1  UNL1        0.0415
     12 O          -9.8508  -20.0374   25.4184 O.co2   1  UNL1       -0.5760
     13 O          -3.6861  -20.8395   19.6392 O.2     1  UNL1       -0.2850
     14 C          -4.3948  -19.9425   20.6103 C.2     1  UNL1        0.2111
     15 C          -3.6544  -18.8166   21.2691 C.ar    1  UNL1        0.0961
     16 C          -3.5987  -18.5408   22.7425 C.ar    1  UNL1        0.0218
     17 C          -2.7495  -17.3226   22.9542 C.ar    1  UNL1        0.0200
     18 C          -2.2804  -16.8455   21.6117 C.ar    1  UNL1        0.0725
     19 N          -2.8396  -17.7689   20.5703 N.ar    1  UNL1       -0.3495
     20 H          -2.6970  -17.6994   19.5986 H       1  UNL1        0.1661
@<TRIPOS>UNITY_ATOM_ATTR
10 1
charge 1
12 1
charge -1
@<TRIPOS>BOND
     1    13    14    2
     2    14     1    1
     3     1     2    2
     4     2     3    1
     5     3     4   ar
     6     4     5   ar
     7     5    10    1
     8    10    11    2
     9    10    12    1
    10     5     6   ar
    11     6     7   ar
    12     7     8   ar
    13     8     9    1
    14    14    15    1
    15    15    16   ar
    16    16    17   ar
    17    17    18   ar
    18    18    19   ar
    19     8     3   ar
    20    19    15   ar
    21    19    20    1
@<TRIPOS>MOLECULE
*****
 20 21 0 0 0
SMALL
GASTEIGER

@<TRIPOS>ATOM
      1 C          -7.4324  -15.9586   22.8975 C.2     1  UNL1        0.0436
      2 C          -7.5608  -17.4338   22.6583 C.2     1  UNL1        0.0044
      3 C          -8.5256  -17.9458   21.6302 C.ar    1  UNL1        0.0168
      4 C          -9.8828  -17.3209   21.4984 C.ar    1  UNL1        0.0761
      5 C         -10.8476  -17.8329   20.4703 C.ar    1  UNL1        0.2901
      6 C         -10.4551  -18.9698   19.5740 C.ar    1  UNL1        0.0761
      7 C          -9.0979  -19.5947   19.7058 C.ar    1  UNL1        0.0177
      8 C          -8.1332  -19.0827   20.7339 C.ar    1  UNL1        0.0580
      9 CL         -6.7759  -19.7076   20.8657 Cl      1  UNL1       -0.0822
     10 N         -12.2049  -17.2079   20.3385 N.pl3   1  UNL1        0.0809
     11 O         -12.4347  -16.1188   19.3331 O.2     1  UNL1        0.0415
     12 O         -13.3323  -17.6721   21.2122 O.co2   1  UNL1       -0.5760
     13 O          -5.1007  -14.9897   23.5096 O.2     1  UNL1       -0.2850
     14 C          -6.4675  -15.4466   23.9256 C.2     1  UNL1        0.2111
     15 C          -6.8695  -15.3915   25.3697 C.ar    1  UNL1        0.0961
     16 C          -8.1906  -15.8227   25.9341 C.ar    1  UNL1        0.0218
     17 C          -8.1586  -15.5933   27.4161 C.ar    1  UNL1        0.0200
     18 C          -6.8176  -15.0202   27.7676 C.ar    1  UNL1        0.0725
     19 N          -6.0210  -14.8955   26.5028 N.ar    1  UNL1       -0.3495
     20 H          -5.1024  -14.5489   26.4293 H       1  UNL1        0.1661
@<TRIPOS>UNITY_ATOM_ATTR
10 1
charge 1
12 1
charge -1
@<TRIPOS>BOND
     1    13    14    2
     2    14     1    1
     3     1     2    2
     4     2     3    1
     5     3     4   ar
     6     4     5   ar
     7     5    10    1
     8    10    11    2
     9    10    12    1
    10     5     6   ar
    11     6     7   ar
    12     7     8   ar
    13     8     9    1
    14    14    15    1
    15    15    16   ar
    16    16    17   ar
    17    17    18   ar
    18    18    19   ar
    19     8     3   ar
    20    19    15   ar
    21    19    20    1
@<TRIPOS>MOLECULE
*****
 20 21 0 0 0
SMALL
GASTEIGER

@<TRIPOS>ATOM
      1 C          -8.1188  -19.2330   22.6716 C.2     1  UNL1        0.0436
      2 C          -7.1248  -20.3103   22.3533 C.2     1  UNL1        0.0044
      3 C          -5.8320  -19.9619   21.6771 C.ar    1  UNL1        0.0168
      4 C          -4.9412  -18.9056   22.2608 C.ar    1  UNL1        0.0761
      5 C          -3.6484  -18.5573   21.5846 C.ar    1  UNL1        0.2901
      6 C          -3.2464  -19.2652   20.3247 C.ar    1  UNL1        0.0761
      7 C          -4.1372  -20.3214   19.7410 C.ar    1  UNL1        0.0177
      8 C          -5.4300  -20.6698   20.4172 C.ar    1  UNL1        0.0580
      9 CL         -6.3209  -21.7261   19.8335 Cl      1  UNL1       -0.0822
     10 N          -2.7575  -17.5010   22.1683 N.pl3   1  UNL1        0.0809
     11 O          -2.5800  -16.1925   21.4568 O.2     1  UNL1        0.0415
     12 O          -2.0442  -17.7532   23.4634 O.co2   1  UNL1       -0.5760
     13 O          -9.4330  -20.6067   24.4425 O.2     1  UNL1       -0.2850
     14 C          -9.4117  -19.5815   23.3478 C.2     1  UNL1        0.2111
     15 C         -10.6832  -18.9046   22.9293 C.ar    1  UNL1        0.0961
     16 C         -11.7902  -18.4663   23.8416 C.ar    1  UNL1        0.0218
     17 C         -12.8621  -17.8380   23.0012 C.ar    1  UNL1        0.0200
     18 C         -12.4175  -17.8881   21.5694 C.ar    1  UNL1        0.0725
     19 N         -11.0709  -18.5473   21.5250 N.ar    1  UNL1       -0.3495
     20 H         -10.5355  -18.7158   20.7162 H       1  UNL1        0.1661
@<TRIPOS>UNITY_ATOM_ATTR
10 1
charge 1
12 1
charge -1
@<TRIPOS>BOND
     1    13    14    2
     2    14     1    1
     3     1     2    2
     4     2     3    1
     5     3     4   ar
     6     4     5   ar
     7     5    10    1
     8    10    11    2
     9    10    12    1
    10     5     6   ar
    11     6     7   ar
    12     7     8   ar
    13     8     9    1
    14    14    15    1
    15    15    16   ar
    16    16    17   ar
    17    17    18   ar
    18    18    19   ar
    19     8     3   ar
    20    19    15   ar
    21    19    20    1
@<TRIPOS>MOLECULE
*****
 20 21 0 0 0
SMALL
GASTEIGER

@<TRIPOS>ATOM
      1 C          -7.8715  -16.9630   23.0497 C.2     1  UNL1        0.0436
      2 C          -7.8609  -18.3892   22.5850 C.2     1  UNL1        0.0044
      3 C          -6.7099  -18.9049   21.7730 C.ar    1  UNL1        0.0168
      4 C          -5.3092  -18.7831   22.2956 C.ar    1  UNL1        0.0761
      5 C          -4.1583  -19.2988   21.4835 C.ar    1  UNL1        0.2901
      6 C          -4.4081  -19.9363   20.1489 C.ar    1  UNL1        0.0761
      7 C          -5.8088  -20.0580   19.6263 C.ar    1  UNL1        0.0177
      8 C          -6.9597  -19.5423   20.4383 C.ar    1  UNL1        0.0580
      9 CL         -8.3605  -19.6640   19.9157 Cl      1  UNL1       -0.0822
     10 N          -2.7575  -19.1771   22.0062 N.pl3   1  UNL1        0.0809
     11 O          -1.7255  -20.1988   21.6306 O.2     1  UNL1        0.0415
     12 O          -2.3888  -18.0337   22.9043 O.co2   1  UNL1       -0.5760
     13 O          -8.7669  -15.7321   25.1553 O.2     1  UNL1       -0.2850
     14 C          -9.0225  -16.4473   23.8617 C.2     1  UNL1        0.2111
     15 C         -10.4290  -16.6468   23.3803 C.ar    1  UNL1        0.0961
     16 C         -11.3213  -17.8038   23.7195 C.ar    1  UNL1        0.0218
     17 C         -12.6340  -17.5964   23.0239 C.ar    1  UNL1        0.0200
     18 C         -12.5530  -16.3111   22.2547 C.ar    1  UNL1        0.0725
     19 N         -11.1903  -15.7242   22.4750 N.ar    1  UNL1       -0.3495
     20 H         -10.8545  -14.8815   22.0926 H       1  UNL1        0.1661
@<TRIPOS>UNITY_ATOM_ATTR
10 1
charge 1
12 1
charge -1
@<TRIPOS>BOND
     1    13    14    2
     2    14     1    1
     3     1     2    2
     4     2     3    1
     5     3     4   ar
     6     4     5   ar
     7     5    10    1
     8    10    11    2
     9    10    12    1
    10     5     6   ar
    11     6     7   ar
    12     7     8   ar
    13     8     9    1
    14    14    15    1
    15    15    16   ar
    16    16    17   ar
    17    17    18   ar
    18    18    19   ar
    19     8     3   ar
    20    19    15   ar
    21    19    20    1
@<TRIPOS>MOLECULE
*****
 20 21 0 0 0
SMALL
GASTEIGER

@<TRIPOS>ATOM
      1 C          -8.5279  -19.1830   22.2009 C.2     1  UNL1        0.0436
      2 C          -7.7953  -17.9483   22.6353 C.2     1  UNL1        0.0044
      3 C          -6.2954  -17.9327   22.6509 C.ar    1  UNL1        0.0168
      4 C          -5.5265  -18.9568   21.8701 C.ar    1  UNL1        0.0761
      5 C          -4.0267  -18.9411   21.8857 C.ar    1  UNL1        0.2901
      6 C          -3.2958  -17.9012   22.6822 C.ar    1  UNL1        0.0761
      7 C          -4.0647  -16.8770   23.4630 C.ar    1  UNL1        0.0177
      8 C          -5.5645  -16.8927   23.4474 C.ar    1  UNL1        0.0580
      9 CL         -6.3335  -15.8685   24.2283 Cl      1  UNL1       -0.0822
     10 N          -3.2577  -19.9654   21.1048 N.pl3   1  UNL1        0.0809
     11 O          -1.8486  -20.3020   21.4933 O.2     1  UNL1        0.0415
     12 O          -3.8979  -20.6529   19.9355 O.co2   1  UNL1       -0.5760
     13 O         -10.7737  -20.2964   22.8843 O.2     1  UNL1       -0.2850
     14 C         -10.0278  -19.1987   22.1853 C.2     1  UNL1        0.2111
     15 C         -10.7818  -18.1166   21.4707 C.ar    1  UNL1        0.0961
     16 C         -12.0632  -17.4852   21.9282 C.ar    1  UNL1        0.0218
     17 C         -12.4601  -16.4543   20.9134 C.ar    1  UNL1        0.0200
     18 C         -11.4239  -16.4486   19.8287 C.ar    1  UNL1        0.0725
     19 N         -10.3867  -17.4760   20.1732 N.ar    1  UNL1       -0.3495
     20 H          -9.5870  -17.6919   19.6411 H       1  UNL1        0.1661
@<TRIPOS>UNITY_ATOM_ATTR
10 1
charge 1
12 1
charge -1
@<TRIPOS>BOND
     1    13    14    2
     2    14     1    1
     3     1     2    2
     4     2     3    1
     5     3     4   ar
     6     4     5   ar
     7     5    10    1
     8    10    11    2
     9    10    12    1
    10     5     6   ar
    11     6     7   ar
    12     7     8   ar
    13     8     9    1
    14    14    15    1
    15    15    16   ar
    16    16    17   ar
    17    17    18   ar
    18    18    19   ar
    19     8     3   ar
    20    19    15   ar
    21    19    20    1
@<TRIPOS>MOLECULE
*****
 20 21 0 0 0
SMALL
GASTEIGER

@<TRIPOS>ATOM
      1 C          -6.6054  -18.7053   20.8588 C.2     1  UNL1        0.0436
      2 C          -7.4338  -19.0921   22.0480 C.2     1  UNL1        0.0044
      3 C          -8.5048  -18.1687   22.5484 C.ar    1  UNL1        0.0168
      4 C          -9.9475  -18.4768   22.2773 C.ar    1  UNL1        0.0761
      5 C         -11.0184  -17.5534   22.7777 C.ar    1  UNL1        0.2901
      6 C         -10.6466  -16.3219   23.5491 C.ar    1  UNL1        0.0761
      7 C          -9.2039  -16.0138   23.8202 C.ar    1  UNL1        0.0177
      8 C          -8.1330  -16.9372   23.3198 C.ar    1  UNL1        0.0580
      9 CL         -6.6901  -16.6291   23.5909 Cl      1  UNL1       -0.0822
     10 N         -12.4613  -17.8615   22.5066 N.pl3   1  UNL1        0.0809
     11 O         -13.3846  -18.1884   23.6426 O.2     1  UNL1        0.0415
     12 O         -12.9806  -17.8427   21.0995 O.co2   1  UNL1       -0.5760
     13 O          -5.8162  -21.0948   20.2124 O.2     1  UNL1       -0.2850
     14 C          -5.5344  -19.6288   20.3585 C.2     1  UNL1        0.2111
     15 C          -4.1816  -19.0861   20.0042 C.ar    1  UNL1        0.0961
     16 C          -2.8675  -19.5808   20.5316 C.ar    1  UNL1        0.0218
     17 C          -1.7791  -18.7540   19.9136 C.ar    1  UNL1        0.0200
     18 C          -2.4207  -17.7483   19.0042 C.ar    1  UNL1        0.0725
     19 N          -3.9055  -17.9536   19.0602 N.ar    1  UNL1       -0.3495
     20 H          -4.5804  -17.4359   18.5644 H       1  UNL1        0.1661
@<TRIPOS>UNITY_ATOM_ATTR
10 1
charge 1
12 1
charge -1
@<TRIPOS>BOND
     1    13    14    2
     2    14     1    1
     3     1     2    2
     4     2     3    1
     5     3     4   ar
     6     4     5   ar
     7     5    10    1
     8    10    11    2
     9    10    12    1
    10     5     6   ar
    11     6     7   ar
    12     7     8   ar
    13     8     9    1
    14    14    15    1
    15    15    16   ar
    16    16    17   ar
    17    17    18   ar
    18    18    19   ar
    19     8     3   ar
    20    19    15   ar
    21    19    20    1
@<TRIPOS>MOLECULE
*****
 20 21 0 0 0
SMALL
GASTEIGER

@<TRIPOS>ATOM
      1 C          -6.5303  -17.7641   22.6502 C.2     1  UNL1        0.0436
      2 C          -7.4447  -18.9370   22.4550 C.2     1  UNL1        0.0044
      3 C          -8.9241  -18.7221   22.3305 C.ar    1  UNL1        0.0168
      4 C          -9.4533  -17.6669   21.4051 C.ar    1  UNL1        0.0761
      5 C         -10.9326  -17.4521   21.2805 C.ar    1  UNL1        0.2901
      6 C         -11.8826  -18.2924   22.0814 C.ar    1  UNL1        0.0761
      7 C         -11.3533  -19.3476   23.0068 C.ar    1  UNL1        0.0177
      8 C          -9.8740  -19.5624   23.1313 C.ar    1  UNL1        0.0580
      9 CL         -9.3447  -20.6176   24.0568 Cl      1  UNL1       -0.0822
     10 N         -11.4620  -16.3968   20.3551 N.pl3   1  UNL1        0.0809
     11 O         -10.5119  -15.4963   19.6228 O.2     1  UNL1        0.0415
     12 O         -12.9415  -16.2423   20.1620 O.co2   1  UNL1       -0.5760
     13 O          -4.2956  -17.3557   23.9109 O.2     1  UNL1       -0.2850
     14 C          -5.0509  -17.9790   22.7747 C.2     1  UNL1        0.2111
     15 C          -4.3270  -18.8172   21.7632 C.ar    1  UNL1        0.0961
     16 C          -4.8365  -19.1943   20.4037 C.ar    1  UNL1        0.0218
     17 C          -3.7909  -20.0357   19.7338 C.ar    1  UNL1        0.0200
     18 C          -2.6352  -20.1786   20.6792 C.ar    1  UNL1        0.0725
     19 N          -2.9665  -19.4256   21.9334 N.ar    1  UNL1       -0.3495
     20 H          -2.3919  -19.3448   22.7288 H       1  UNL1        0.1661
@<TRIPOS>UNITY_ATOM_ATTR
10 1
charge 1
12 1
charge -1
@<TRIPOS>BOND
     1    13    14    2
     2    14     1    1
     3     1     2    2
     4     2     3    1
     5     3     4   ar
     6     4     5   ar
     7     5    10    1
     8    10    11    2
     9    10    12    1
    10     5     6   ar
    11     6     7   ar
    12     7     8   ar
    13     8     9    1
    14    14    15    1
    15    15    16   ar
    16    16    17   ar
    17    17    18   ar
    18    18    19   ar
    19     8     3   ar
    20    19    15   ar
    21    19    20    1
@<TRIPOS>MOLECULE
*****
 20 21 0 0 0
SMALL
GASTEIGER

@<TRIPOS>ATOM
      1 C          -6.8089  -16.7220   23.2174 C.2     1  UNL1        0.0436
      2 C          -7.1348  -18.0050   22.5120 C.2     1  UNL1        0.0044
      3 C          -8.5127  -18.2304   21.9636 C.ar    1  UNL1        0.0168
      4 C          -9.6991  -17.6067   22.6369 C.ar    1  UNL1        0.0761
      5 C         -11.0769  -17.8321   22.0885 C.ar    1  UNL1        0.2901
      6 C         -11.2683  -18.6812   20.8668 C.ar    1  UNL1        0.0761
      7 C         -10.0818  -19.3048   20.1935 C.ar    1  UNL1        0.0177
      8 C          -8.7040  -19.0794   20.7419 C.ar    1  UNL1        0.0580
      9 CL         -7.5175  -19.7031   20.0687 Cl      1  UNL1       -0.0822
     10 N         -12.2635  -17.2085   22.7617 N.pl3   1  UNL1        0.0809
     11 O         -12.5432  -15.7455   22.5845 O.2     1  UNL1        0.0415
     12 O         -13.1702  -18.0478   23.6122 O.co2   1  UNL1       -0.5760
     13 O          -5.2470  -15.7197   25.0357 O.2     1  UNL1       -0.2850
     14 C          -5.4310  -16.4967   23.7659 C.2     1  UNL1        0.2111
     15 C          -4.2372  -17.0482   23.0444 C.ar    1  UNL1        0.0961
     16 C          -3.9245  -18.5008   22.8393 C.ar    1  UNL1        0.0218
     17 C          -2.6405  -18.5943   22.0695 C.ar    1  UNL1        0.0200
     18 C          -2.1596  -17.1995   21.7988 C.ar    1  UNL1        0.0725
     19 N          -3.1464  -16.2439   22.4014 N.ar    1  UNL1       -0.3495
     20 H          -3.0884  -15.2614   22.3787 H       1  UNL1        0.1661
@<TRIPOS>UNITY_ATOM_ATTR
10 1
charge 1
12 1
charge -1
@<TRIPOS>BOND
     1    13    14    2
     2    14     1    1
     3     1     2    2
     4     2     3    1
     5     3     4   ar
     6     4     5   ar
     7     5    10    1
     8    10    11    2
     9    10    12    1
    10     5     6   ar
    11     6     7   ar
    12     7     8   ar
    13     8     9    1
    14    14    15    1
    15    15    16   ar
    16    16    17   ar
    17    17    18   ar
    18    18    19   ar
    19     8     3   ar
    20    19    15   ar
    21    19    20    1
