@<TRIPOS>MOLECULE
*****
 38 42 0 0 0
SMALL
GASTEIGER

@<TRIPOS>ATOM
      1 C           5.5464    0.3468   26.8850 C.3     1  UNL1        0.1139
      2 C           5.2065   -0.3319   25.5912 C.ar    1  UNL1       -0.0029
      3 C           3.7731   -0.4736   25.1726 C.ar    1  UNL1       -0.0026
      4 C           3.4332   -1.1523   23.8788 C.ar    1  UNL1       -0.0003
      5 C           4.5267   -1.6893   23.0037 C.ar    1  UNL1       -0.0000
      6 C           5.9602   -1.5476   23.4224 C.ar    1  UNL1       -0.0003
      7 C           6.3000   -0.8689   24.7161 C.ar    1  UNL1       -0.0026
      8 C           4.1869   -2.3680   21.7100 C.ar    1  UNL1       -0.0000
      9 C           3.4763   -1.6089   20.6289 C.ar    1  UNL1       -0.0000
     10 C           3.1364   -2.2876   19.3351 C.ar    1  UNL1        0.0000
     11 C           3.5071   -3.7255   19.1224 C.ar    1  UNL1        0.0000
     12 C           4.2177   -4.4846   20.2036 C.ar    1  UNL1        0.0000
     13 C           4.5576   -3.8059   21.4973 C.ar    1  UNL1       -0.0000
     14 C           7.9312    1.2383   27.4024 C.3     1  UNL1        0.1152
     15 N           6.9005    0.1530   27.5005 N.am    1  UNL1       -0.2729
     16 C           7.2237   -1.1262   28.2142 C.2     1  UNL1        0.2465
     17 O           8.5778   -1.3200   28.8297 O.2     1  UNL1       -0.2730
     18 C           6.1930   -2.2115   28.3123 C.3     1  UNL1        0.1835
     19 N           6.6012   -3.6002   28.7057 N.am    1  UNL1       -0.2439
     20 C           6.6324   -3.9910   30.1535 C.2     1  UNL1        0.2744
     21 O           6.2554   -2.9930   31.2080 O.2     1  UNL1       -0.2705
     22 C           7.0406   -5.3797   30.5469 C.3     1  UNL1        0.2900
     23 O           7.4176   -6.3777   29.4924 O.3     1  UNL1       -0.4643
     24 C           7.3864   -5.9869   28.0446 C.ar    1  UNL1        0.1537
     25 C           7.7634   -6.9849   26.9901 C.ar    1  UNL1        0.0504
     26 C           7.7322   -6.5941   25.5422 C.ar    1  UNL1        0.0713
     27 CL          8.1092   -7.5921   24.4878 Cl      1  UNL1       -0.0813
     28 C           7.3240   -5.2054   25.1488 C.ar    1  UNL1        0.0696
     29 CL          7.2928   -4.8146   23.7010 Cl      1  UNL1       -0.0813
     30 C           6.9470   -4.2074   26.2033 C.ar    1  UNL1        0.0302
     31 C           6.9782   -4.5982   27.6512 C.ar    1  UNL1        0.0894
     32 C           4.5321    1.2194   27.5632 C.3     1  UNL1        0.0968
     33 N           3.5948    0.6318   28.5762 N.3     1  UNL1       -0.2667
     34 C           4.1037    0.2445   29.9331 C.3     1  UNL1        0.1047
     35 C           3.1664   -0.3431   30.9460 C.3     1  UNL1        0.1595
     36 O           1.7201   -0.5434   30.6021 O.3     1  UNL1       -0.3508
     37 C           1.2112   -0.1561   29.2453 C.3     1  UNL1        0.1595
     38 C           2.1486    0.4315   28.2323 C.3     1  UNL1        0.1047
@<TRIPOS>BOND
     1    14    15    1
     2    15    16   am
     3    16    17    2
     4    16    18    1
     5    18    19    1
     6    19    20   am
     7    20    21    2
     8    20    22    1
     9    22    23    1
    10    23    24    1
    11    24    25   ar
    12    25    26   ar
    13    26    27    1
    14    26    28   ar
    15    28    29    1
    16    28    30   ar
    17    30    31   ar
    18    15     1    1
    19     1    32    1
    20    32    33    1
    21    33    34    1
    22    34    35    1
    23    35    36    1
    24    36    37    1
    25    37    38    1
    26     1     2    1
    27     2     3   ar
    28     3     4   ar
    29     4     5   ar
    30     5     8    1
    31     8     9   ar
    32     9    10   ar
    33    10    11   ar
    34    11    12   ar
    35    12    13   ar
    36     5     6   ar
    37     6     7   ar
    38    31    19    1
    39    38    33    1
    40     7     2   ar
    41    31    24   ar
    42    13     8   ar
@<TRIPOS>MOLECULE
*****
 38 42 0 0 0
SMALL
GASTEIGER

@<TRIPOS>ATOM
      1 C           5.4404    0.7333   35.6529 C.3     1  UNL1        0.1139
      2 C           5.6950   -0.2991   34.5950 C.ar    1  UNL1       -0.0029
      3 C           4.6287   -1.2949   34.2467 C.ar    1  UNL1       -0.0026
      4 C           4.8833   -2.3273   33.1887 C.ar    1  UNL1       -0.0003
      5 C           6.2043   -2.3640   32.4791 C.ar    1  UNL1       -0.0000
      6 C           7.2707   -1.3681   32.8274 C.ar    1  UNL1       -0.0003
      7 C           7.0160   -0.3357   33.8853 C.ar    1  UNL1       -0.0026
      8 C           6.4590   -3.3964   31.4211 C.ar    1  UNL1       -0.0000
      9 C           6.8007   -4.8033   31.8131 C.ar    1  UNL1       -0.0000
     10 C           7.0554   -5.8358   30.7552 C.ar    1  UNL1        0.0000
     11 C           6.9684   -5.4613   29.3053 C.ar    1  UNL1        0.0000
     12 C           6.6267   -4.0542   28.9133 C.ar    1  UNL1        0.0000
     13 C           6.3720   -3.0218   29.9713 C.ar    1  UNL1       -0.0000
     14 C           6.9268    2.8548   35.4537 C.3     1  UNL1        0.1152
     15 N           5.5876    2.1906   35.3296 N.am    1  UNL1       -0.2729
     16 C           4.3957    2.9838   34.8821 C.2     1  UNL1        0.2465
     17 O           4.5429    4.4411   34.5588 O.2     1  UNL1       -0.2730
     18 C           3.0565    2.3196   34.7580 C.3     1  UNL1        0.1835
     19 N           2.0409    2.8541   33.7921 N.am    1  UNL1       -0.2439
     20 C           1.2312    4.0653   34.1489 C.2     1  UNL1        0.2744
     21 O           1.4370    4.7421   35.4716 O.2     1  UNL1       -0.2705
     22 C           0.2156    4.5997   33.1830 C.3     1  UNL1        0.2900
     23 O           0.0097    3.9229   31.8603 O.3     1  UNL1       -0.4643
     24 C           0.8194    2.7117   31.5035 C.ar    1  UNL1        0.1537
     25 C           0.6136    2.0349   30.1808 C.ar    1  UNL1        0.0504
     26 C           1.4233    0.8237   29.8240 C.ar    1  UNL1        0.0713
     27 CL          1.2174    0.1469   28.5013 Cl      1  UNL1       -0.0813
     28 C           2.4389    0.2892   30.7899 C.ar    1  UNL1        0.0696
     29 CL          3.2486   -0.9220   30.4331 Cl      1  UNL1       -0.0813
     30 C           2.6447    0.9660   32.1126 C.ar    1  UNL1        0.0302
     31 C           1.8350    2.1773   32.4694 C.ar    1  UNL1        0.0894
     32 C           5.0384    0.3084   37.0342 C.3     1  UNL1        0.0968
     33 N           4.3270    1.2714   37.9378 N.3     1  UNL1       -0.2667
     34 C           5.1002    2.3390   38.6537 C.3     1  UNL1        0.1047
     35 C           4.3888    3.3020   39.5574 C.3     1  UNL1        0.1595
     36 O           2.9043    3.1974   39.7451 O.3     1  UNL1       -0.3508
     37 C           2.1311    2.1298   39.0293 C.3     1  UNL1        0.1595
     38 C           2.8425    1.1668   38.1256 C.3     1  UNL1        0.1047
@<TRIPOS>BOND
     1    14    15    1
     2    15    16   am
     3    16    17    2
     4    16    18    1
     5    18    19    1
     6    19    20   am
     7    20    21    2
     8    20    22    1
     9    22    23    1
    10    23    24    1
    11    24    25   ar
    12    25    26   ar
    13    26    27    1
    14    26    28   ar
    15    28    29    1
    16    28    30   ar
    17    30    31   ar
    18    15     1    1
    19     1    32    1
    20    32    33    1
    21    33    34    1
    22    34    35    1
    23    35    36    1
    24    36    37    1
    25    37    38    1
    26     1     2    1
    27     2     3   ar
    28     3     4   ar
    29     4     5   ar
    30     5     8    1
    31     8     9   ar
    32     9    10   ar
    33    10    11   ar
    34    11    12   ar
    35    12    13   ar
    36     5     6   ar
    37     6     7   ar
    38    31    19    1
    39    38    33    1
    40     7     2   ar
    41    31    24   ar
    42    13     8   ar
@<TRIPOS>MOLECULE
*****
 38 42 0 0 0
SMALL
GASTEIGER

@<TRIPOS>ATOM
      1 C           4.1345   -2.0963   18.8198 C.3     1  UNL1        0.1139
      2 C           3.1203   -1.0004   18.9628 C.ar    1  UNL1       -0.0029
      3 C           1.9612   -1.1689   19.8998 C.ar    1  UNL1       -0.0026
      4 C           0.9470   -0.0730   20.0428 C.ar    1  UNL1       -0.0003
      5 C           1.0919    1.1913   19.2488 C.ar    1  UNL1       -0.0000
      6 C           2.2511    1.3598   18.3117 C.ar    1  UNL1       -0.0003
      7 C           3.2652    0.2639   18.1687 C.ar    1  UNL1       -0.0026
      8 C           0.0777    2.2872   19.3918 C.ar    1  UNL1       -0.0000
      9 C          -0.6760    2.4482   20.6786 C.ar    1  UNL1       -0.0000
     10 C          -1.6903    3.5441   20.8217 C.ar    1  UNL1        0.0000
     11 C          -1.9507    4.4789   19.6778 C.ar    1  UNL1        0.0000
     12 C          -1.1969    4.3179   18.3910 C.ar    1  UNL1        0.0000
     13 C          -0.1828    3.2220   18.2480 C.ar    1  UNL1       -0.0000
     14 C           3.3571   -4.5660   19.0340 C.3     1  UNL1        0.1152
     15 N           4.0025   -3.3509   19.6313 N.am    1  UNL1       -0.2729
     16 C           4.5161   -3.3903   21.0401 C.2     1  UNL1        0.2465
     17 O           4.3841   -4.6449   21.8516 O.2     1  UNL1       -0.2730
     18 C           5.1615   -2.1751   21.6374 C.3     1  UNL1        0.1835
     19 N           5.3480   -2.0784   23.1227 N.am    1  UNL1       -0.2439
     20 C           6.4866   -2.7968   23.7840 C.2     1  UNL1        0.2744
     21 O           7.4388   -3.6120   22.9601 O.2     1  UNL1       -0.2705
     22 C           6.6730   -2.7001   25.2692 C.3     1  UNL1        0.2900
     23 O           5.7208   -1.8849   26.0931 O.3     1  UNL1       -0.4643
     24 C           4.5822   -1.1664   25.4318 C.ar    1  UNL1        0.1537
     25 C           3.6300   -0.3512   26.2557 C.ar    1  UNL1        0.0504
     26 C           2.4914    0.3672   25.5944 C.ar    1  UNL1        0.0713
     27 CL          1.5392    1.1824   26.4182 Cl      1  UNL1       -0.0813
     28 C           2.3049    0.2705   24.1091 C.ar    1  UNL1        0.0696
     29 CL          1.1663    0.9889   23.4478 Cl      1  UNL1       -0.0813
     30 C           3.2571   -0.5447   23.2852 C.ar    1  UNL1        0.0302
     31 C           4.3958   -1.2632   23.9466 C.ar    1  UNL1        0.0894
     32 C           5.2807   -1.9375   17.8652 C.3     1  UNL1        0.0968
     33 N           6.6059   -1.4392   18.3608 N.3     1  UNL1       -0.2667
     34 C           7.6054   -2.4034   18.9277 C.3     1  UNL1        0.1047
     35 C           8.9306   -1.9050   19.4232 C.3     1  UNL1        0.1595
     36 O           9.2562   -0.4425   19.3518 O.3     1  UNL1       -0.3508
     37 C           8.2567    0.5216   18.7849 C.3     1  UNL1        0.1595
     38 C           6.9315    0.0233   18.2894 C.3     1  UNL1        0.1047
@<TRIPOS>BOND
     1    14    15    1
     2    15    16   am
     3    16    17    2
     4    16    18    1
     5    18    19    1
     6    19    20   am
     7    20    21    2
     8    20    22    1
     9    22    23    1
    10    23    24    1
    11    24    25   ar
    12    25    26   ar
    13    26    27    1
    14    26    28   ar
    15    28    29    1
    16    28    30   ar
    17    30    31   ar
    18    15     1    1
    19     1    32    1
    20    32    33    1
    21    33    34    1
    22    34    35    1
    23    35    36    1
    24    36    37    1
    25    37    38    1
    26     1     2    1
    27     2     3   ar
    28     3     4   ar
    29     4     5   ar
    30     5     8    1
    31     8     9   ar
    32     9    10   ar
    33    10    11   ar
    34    11    12   ar
    35    12    13   ar
    36     5     6   ar
    37     6     7   ar
    38    31    19    1
    39    38    33    1
    40     7     2   ar
    41    31    24   ar
    42    13     8   ar
@<TRIPOS>MOLECULE
*****
 38 42 0 0 0
SMALL
GASTEIGER

@<TRIPOS>ATOM
      1 C           4.4193   -2.9791   20.7921 C.3     1  UNL1        0.1139
      2 C           3.4304   -1.8724   21.0090 C.ar    1  UNL1       -0.0029
      3 C           3.4502   -1.0890   22.2880 C.ar    1  UNL1       -0.0026
      4 C           2.4612    0.0178   22.5050 C.ar    1  UNL1       -0.0003
      5 C           1.4524    0.3411   21.4430 C.ar    1  UNL1       -0.0000
      6 C           1.4327   -0.4424   20.1640 C.ar    1  UNL1       -0.0003
      7 C           2.4216   -1.5491   19.9470 C.ar    1  UNL1       -0.0026
      8 C           0.4635    1.4478   21.6599 C.ar    1  UNL1       -0.0000
      9 C           0.3245    2.0743   23.0157 C.ar    1  UNL1       -0.0000
     10 C          -0.6645    3.1811   23.2327 C.ar    1  UNL1        0.0000
     11 C          -1.5145    3.6613   22.0939 C.ar    1  UNL1        0.0000
     12 C          -1.3755    3.0347   20.7381 C.ar    1  UNL1        0.0000
     13 C          -0.3865    1.9280   20.5211 C.ar    1  UNL1       -0.0000
     14 C           4.6478   -4.3679   18.6083 C.3     1  UNL1        0.1152
     15 N           5.0348   -3.1804   19.4390 N.am    1  UNL1       -0.2729
     16 C           6.0372   -2.1942   18.9168 C.2     1  UNL1        0.2465
     17 O           6.6526   -2.3956   17.5637 O.2     1  UNL1       -0.2730
     18 C           6.4241   -1.0068   19.7475 C.3     1  UNL1        0.1835
     19 N           7.0976    0.1700   19.1059 N.am    1  UNL1       -0.2439
     20 C           8.5878    0.1803   18.9356 C.2     1  UNL1        0.2744
     21 O           9.4047   -0.9862   19.4069 O.2     1  UNL1       -0.2705
     22 C           9.2612    1.3571   18.2941 C.3     1  UNL1        0.2900
     23 O           8.4444    2.5236   17.8229 O.3     1  UNL1       -0.4643
     24 C           6.9542    2.5133   17.9932 C.ar    1  UNL1        0.1537
     25 C           6.1373    3.6798   17.5219 C.ar    1  UNL1        0.0504
     26 C           4.6471    3.6695   17.6922 C.ar    1  UNL1        0.0713
     27 CL          3.8303    4.8360   17.2210 Cl      1  UNL1       -0.0813
     28 C           3.9736    2.4927   18.3338 C.ar    1  UNL1        0.0696
     29 CL          2.4834    2.4824   18.5041 Cl      1  UNL1       -0.0813
     30 C           4.7905    1.3262   18.8050 C.ar    1  UNL1        0.0302
     31 C           6.2808    1.3365   18.6347 C.ar    1  UNL1        0.0894
     32 C           4.7929   -3.8845   21.9282 C.3     1  UNL1        0.0968
     33 N           6.0957   -3.6893   22.6456 N.3     1  UNL1       -0.2667
     34 C           7.3886   -3.9940   21.9488 C.3     1  UNL1        0.1047
     35 C           8.6914   -3.7987   22.6663 C.3     1  UNL1        0.1595
     36 O           8.7012   -3.2988   24.0805 O.3     1  UNL1       -0.3508
     37 C           7.4082   -2.9941   24.7773 C.3     1  UNL1        0.1595
     38 C           6.1055   -3.1894   24.0598 C.3     1  UNL1        0.1047
@<TRIPOS>BOND
     1    14    15    1
     2    15    16   am
     3    16    17    2
     4    16    18    1
     5    18    19    1
     6    19    20   am
     7    20    21    2
     8    20    22    1
     9    22    23    1
    10    23    24    1
    11    24    25   ar
    12    25    26   ar
    13    26    27    1
    14    26    28   ar
    15    28    29    1
    16    28    30   ar
    17    30    31   ar
    18    15     1    1
    19     1    32    1
    20    32    33    1
    21    33    34    1
    22    34    35    1
    23    35    36    1
    24    36    37    1
    25    37    38    1
    26     1     2    1
    27     2     3   ar
    28     3     4   ar
    29     4     5   ar
    30     5     8    1
    31     8     9   ar
    32     9    10   ar
    33    10    11   ar
    34    11    12   ar
    35    12    13   ar
    36     5     6   ar
    37     6     7   ar
    38    31    19    1
    39    38    33    1
    40     7     2   ar
    41    31    24   ar
    42    13     8   ar
@<TRIPOS>MOLECULE
*****
 38 42 0 0 0
SMALL
GASTEIGER

@<TRIPOS>ATOM
      1 C           2.7793    0.2791   27.0923 C.3     1  UNL1        0.1139
      2 C           1.5195    1.0077   26.7291 C.ar    1  UNL1       -0.0029
      3 C           0.4305    1.1761   27.7468 C.ar    1  UNL1       -0.0026
      4 C          -0.8293    1.9048   27.3836 C.ar    1  UNL1       -0.0003
      5 C          -1.0001    2.4651   26.0027 C.ar    1  UNL1       -0.0000
      6 C           0.0889    2.2966   24.9849 C.ar    1  UNL1       -0.0003
      7 C           1.3487    1.5680   25.3482 C.ar    1  UNL1       -0.0026
      8 C          -2.2599    3.1937   25.6394 C.ar    1  UNL1       -0.0000
      9 C          -3.2490    3.5591   26.7062 C.ar    1  UNL1       -0.0000
     10 C          -4.5089    4.2878   26.3430 C.ar    1  UNL1        0.0000
     11 C          -4.7795    4.6511   24.9130 C.ar    1  UNL1        0.0000
     12 C          -3.7903    4.2856   23.8462 C.ar    1  UNL1        0.0000
     13 C          -2.5305    3.5569   24.2094 C.ar    1  UNL1       -0.0000
     14 C           4.8691    1.8158   26.9466 C.3     1  UNL1        0.1152
     15 N           4.0760    0.6497   26.4357 N.am    1  UNL1       -0.2729
     16 C           4.5796   -0.1460   25.2680 C.2     1  UNL1        0.2465
     17 O           5.8763    0.2246   24.6113 O.2     1  UNL1       -0.2730
     18 C           3.7866   -1.3121   24.7570 C.3     1  UNL1        0.1835
     19 N           4.0483   -1.8525   23.3824 N.am    1  UNL1       -0.2439
     20 C           5.0361   -2.9647   23.1893 C.2     1  UNL1        0.2744
     21 O           5.7623   -3.5364   24.3708 O.2     1  UNL1       -0.2705
     22 C           5.2978   -3.5051   21.8147 C.3     1  UNL1        0.2900
     23 O           4.5717   -2.9333   20.6333 O.3     1  UNL1       -0.4643
     24 C           3.5838   -1.8212   20.8264 C.ar    1  UNL1        0.1537
     25 C           2.8577   -1.2495   19.6449 C.ar    1  UNL1        0.0504
     26 C           1.8699   -0.1373   19.8380 C.ar    1  UNL1        0.0713
     27 CL          1.1437    0.4344   18.6566 Cl      1  UNL1       -0.0813
     28 C           1.6081    0.4031   21.2126 C.ar    1  UNL1        0.0696
     29 CL          0.6203    1.5152   21.4057 Cl      1  UNL1       -0.0813
     30 C           2.3343   -0.1686   22.3941 C.ar    1  UNL1        0.0302
     31 C           3.3222   -1.2808   22.2009 C.ar    1  UNL1        0.0894
     32 C           2.7424   -0.8202   28.1123 C.3     1  UNL1        0.0968
     33 N           3.3769   -0.6179   29.4563 N.3     1  UNL1       -0.2667
     34 C           4.8374   -0.9022   29.6467 C.3     1  UNL1        0.1047
     35 C           5.4719   -0.6998   30.9908 C.3     1  UNL1        0.1595
     36 O           4.6458   -0.2131   32.1445 O.3     1  UNL1       -0.3508
     37 C           3.1854    0.0712   31.9540 C.3     1  UNL1        0.1595
     38 C           2.5509   -0.1312   30.6100 C.3     1  UNL1        0.1047
@<TRIPOS>BOND
     1    14    15    1
     2    15    16   am
     3    16    17    2
     4    16    18    1
     5    18    19    1
     6    19    20   am
     7    20    21    2
     8    20    22    1
     9    22    23    1
    10    23    24    1
    11    24    25   ar
    12    25    26   ar
    13    26    27    1
    14    26    28   ar
    15    28    29    1
    16    28    30   ar
    17    30    31   ar
    18    15     1    1
    19     1    32    1
    20    32    33    1
    21    33    34    1
    22    34    35    1
    23    35    36    1
    24    36    37    1
    25    37    38    1
    26     1     2    1
    27     2     3   ar
    28     3     4   ar
    29     4     5   ar
    30     5     8    1
    31     8     9   ar
    32     9    10   ar
    33    10    11   ar
    34    11    12   ar
    35    12    13   ar
    36     5     6   ar
    37     6     7   ar
    38    31    19    1
    39    38    33    1
    40     7     2   ar
    41    31    24   ar
    42    13     8   ar
@<TRIPOS>MOLECULE
*****
 38 42 0 0 0
SMALL
GASTEIGER

@<TRIPOS>ATOM
      1 C           4.4790   -1.0039   27.2740 C.3     1  UNL1        0.1139
      2 C           4.4148   -1.3907   25.8262 C.ar    1  UNL1       -0.0029
      3 C           5.3672   -2.4128   25.2801 C.ar    1  UNL1       -0.0026
      4 C           5.3030   -2.7997   23.8322 C.ar    1  UNL1       -0.0003
      5 C           4.2864   -2.1645   22.9306 C.ar    1  UNL1       -0.0000
      6 C           3.3340   -1.1424   23.4768 C.ar    1  UNL1       -0.0003
      7 C           3.3982   -0.7555   24.9245 C.ar    1  UNL1       -0.0026
      8 C           4.2222   -2.5514   21.4828 C.ar    1  UNL1       -0.0000
      9 C           4.6933   -3.9072   21.0472 C.ar    1  UNL1       -0.0000
     10 C           4.6291   -4.2941   19.5993 C.ar    1  UNL1        0.0000
     11 C           4.0938   -3.3252   18.5871 C.ar    1  UNL1        0.0000
     12 C           3.6227   -1.9693   19.0227 C.ar    1  UNL1        0.0000
     13 C           3.6869   -1.5824   20.4705 C.ar    1  UNL1       -0.0000
     14 C           6.4162    0.6565   27.7645 C.3     1  UNL1        0.1152
     15 N           5.8030   -0.7044   27.9123 N.am    1  UNL1       -0.2729
     16 C           6.5138   -1.7659   28.6985 C.2     1  UNL1        0.2465
     17 O           7.8378   -1.4664   29.3368 O.2     1  UNL1       -0.2730
     18 C           5.9007   -3.1268   28.8463 C.3     1  UNL1        0.1835
     19 N           6.7293   -4.2723   29.3476 N.am    1  UNL1       -0.2439
     20 C           6.9116   -4.4772   30.8223 C.2     1  UNL1        0.2744
     21 O           6.2653   -3.5366   31.7958 O.2     1  UNL1       -0.2705
     22 C           7.7402   -5.6227   31.3236 C.3     1  UNL1        0.2900
     23 O           8.3864   -6.5633   30.3501 O.3     1  UNL1       -0.4643
     24 C           8.2041   -6.3584   28.8754 C.ar    1  UNL1        0.1537
     25 C           8.8504   -7.2990   27.9020 C.ar    1  UNL1        0.0504
     26 C           8.6681   -7.0942   26.4273 C.ar    1  UNL1        0.0713
     27 CL          9.3144   -8.0348   25.4538 Cl      1  UNL1       -0.0813
     28 C           7.8395   -5.9486   25.9260 C.ar    1  UNL1        0.0696
     29 CL          7.6572   -5.7438   24.4513 Cl      1  UNL1       -0.0813
     30 C           7.1932   -5.0080   26.8994 C.ar    1  UNL1        0.0302
     31 C           7.3756   -5.2129   28.3742 C.ar    1  UNL1        0.0894
     32 C           3.2193   -0.9165   28.0836 C.3     1  UNL1        0.0968
     33 N           2.6723    0.4236   28.4775 N.3     1  UNL1       -0.2667
     34 C           1.5975    1.0670   27.6523 C.3     1  UNL1        0.1047
     35 C           1.0506    2.4070   28.0461 C.3     1  UNL1        0.1595
     36 O           1.5785    3.1037   29.2652 O.3     1  UNL1       -0.3508
     37 C           2.6532    2.4603   30.0903 C.3     1  UNL1        0.1595
     38 C           3.2001    1.1203   29.6965 C.3     1  UNL1        0.1047
@<TRIPOS>BOND
     1    14    15    1
     2    15    16   am
     3    16    17    2
     4    16    18    1
     5    18    19    1
     6    19    20   am
     7    20    21    2
     8    20    22    1
     9    22    23    1
    10    23    24    1
    11    24    25   ar
    12    25    26   ar
    13    26    27    1
    14    26    28   ar
    15    28    29    1
    16    28    30   ar
    17    30    31   ar
    18    15     1    1
    19     1    32    1
    20    32    33    1
    21    33    34    1
    22    34    35    1
    23    35    36    1
    24    36    37    1
    25    37    38    1
    26     1     2    1
    27     2     3   ar
    28     3     4   ar
    29     4     5   ar
    30     5     8    1
    31     8     9   ar
    32     9    10   ar
    33    10    11   ar
    34    11    12   ar
    35    12    13   ar
    36     5     6   ar
    37     6     7   ar
    38    31    19    1
    39    38    33    1
    40     7     2   ar
    41    31    24   ar
    42    13     8   ar
@<TRIPOS>MOLECULE
*****
 38 42 0 0 0
SMALL
GASTEIGER

@<TRIPOS>ATOM
      1 C          -0.1749    2.5121   25.1171 C.3     1  UNL1        0.1139
      2 C          -1.5623    3.0818   25.0990 C.ar    1  UNL1       -0.0029
      3 C          -2.2523    3.4168   26.3881 C.ar    1  UNL1       -0.0026
      4 C          -3.6398    3.9866   26.3701 C.ar    1  UNL1       -0.0003
      5 C          -4.3373    4.2213   25.0630 C.ar    1  UNL1       -0.0000
      6 C          -3.6472    3.8862   23.7739 C.ar    1  UNL1       -0.0003
      7 C          -2.2598    3.3165   23.7920 C.ar    1  UNL1       -0.0026
      8 C          -5.7247    4.7910   25.0450 C.ar    1  UNL1       -0.0000
      9 C          -6.6587    4.4554   23.9202 C.ar    1  UNL1       -0.0000
     10 C          -8.0462    5.0251   23.9021 C.ar    1  UNL1        0.0000
     11 C          -8.4997    5.9304   25.0088 C.ar    1  UNL1        0.0000
     12 C          -7.5657    6.2660   26.1336 C.ar    1  UNL1        0.0000
     13 C          -6.1782    5.6962   26.1517 C.ar    1  UNL1       -0.0000
     14 C           1.5837    4.4210   25.0000 C.3     1  UNL1        0.1152
     15 N           0.9338    3.2143   24.3905 N.am    1  UNL1       -0.2729
     16 C           1.3925    2.7097   23.0544 C.2     1  UNL1        0.2465
     17 O           2.5011    3.4119   22.3278 O.2     1  UNL1       -0.2730
     18 C           0.7426    1.5030   22.4449 C.3     1  UNL1        0.1835
     19 N           1.1473    1.0446   21.0752 N.am    1  UNL1       -0.2439
     20 C           0.5459    1.6877   19.8609 C.2     1  UNL1        0.2744
     21 O          -0.4602    2.7894   20.0162 O.2     1  UNL1       -0.2705
     22 C           0.9506    1.2292   18.4912 C.3     1  UNL1        0.2900
     23 O           1.9567    0.1276   18.3359 O.3     1  UNL1       -0.4643
     24 C           2.5581   -0.5156   19.5502 C.ar    1  UNL1        0.1537
     25 C           3.5642   -1.6172   19.3949 C.ar    1  UNL1        0.0504
     26 C           4.1656   -2.2604   20.6092 C.ar    1  UNL1        0.0713
     27 CL          5.1717   -3.3620   20.4539 Cl      1  UNL1       -0.0813
     28 C           3.7609   -1.8019   21.9790 C.ar    1  UNL1        0.0696
     29 CL          4.3623   -2.4451   23.1933 Cl      1  UNL1       -0.0813
     30 C           2.7548   -0.7003   22.1343 C.ar    1  UNL1        0.0302
     31 C           2.1534   -0.0571   20.9199 C.ar    1  UNL1        0.0894
     32 C           0.1040    1.2401   25.8617 C.3     1  UNL1        0.0968
     33 N           0.0396    1.2187   27.3601 N.3     1  UNL1       -0.2667
     34 C          -0.9374    0.3179   28.0560 C.3     1  UNL1        0.1047
     35 C          -1.0019    0.2965   29.5545 C.3     1  UNL1        0.1595
     36 O          -0.0894    1.1760   30.3571 O.3     1  UNL1       -0.3508
     37 C           0.8875    2.0767   29.6612 C.3     1  UNL1        0.1595
     38 C           0.9520    2.0981   28.1627 C.3     1  UNL1        0.1047
@<TRIPOS>BOND
     1    14    15    1
     2    15    16   am
     3    16    17    2
     4    16    18    1
     5    18    19    1
     6    19    20   am
     7    20    21    2
     8    20    22    1
     9    22    23    1
    10    23    24    1
    11    24    25   ar
    12    25    26   ar
    13    26    27    1
    14    26    28   ar
    15    28    29    1
    16    28    30   ar
    17    30    31   ar
    18    15     1    1
    19     1    32    1
    20    32    33    1
    21    33    34    1
    22    34    35    1
    23    35    36    1
    24    36    37    1
    25    37    38    1
    26     1     2    1
    27     2     3   ar
    28     3     4   ar
    29     4     5   ar
    30     5     8    1
    31     8     9   ar
    32     9    10   ar
    33    10    11   ar
    34    11    12   ar
    35    12    13   ar
    36     5     6   ar
    37     6     7   ar
    38    31    19    1
    39    38    33    1
    40     7     2   ar
    41    31    24   ar
    42    13     8   ar
@<TRIPOS>MOLECULE
*****
 38 42 0 0 0
SMALL
GASTEIGER

@<TRIPOS>ATOM
      1 C           4.2845   -0.6687   27.4920 C.3     1  UNL1        0.1139
      2 C           3.7826   -0.5330   26.0851 C.ar    1  UNL1       -0.0029
      3 C           2.8401    0.5783   25.7290 C.ar    1  UNL1       -0.0026
      4 C           2.3381    0.7141   24.3220 C.ar    1  UNL1       -0.0003
      5 C           2.7787   -0.2614   23.2711 C.ar    1  UNL1       -0.0000
      6 C           3.7213   -1.3726   23.6272 C.ar    1  UNL1       -0.0003
      7 C           4.2232   -1.5084   25.0342 C.ar    1  UNL1       -0.0026
      8 C           2.2768   -0.1256   21.8641 C.ar    1  UNL1       -0.0000
      9 C           0.9736    0.5672   21.5963 C.ar    1  UNL1       -0.0000
     10 C           0.4716    0.7030   20.1893 C.ar    1  UNL1        0.0000
     11 C           1.2729    0.1460   19.0501 C.ar    1  UNL1        0.0000
     12 C           2.5761   -0.5468   19.3180 C.ar    1  UNL1        0.0000
     13 C           3.0780   -0.6826   20.7249 C.ar    1  UNL1       -0.0000
     14 C           6.4277    0.7567   27.8450 C.3     1  UNL1        0.1152
     15 N           5.7549   -0.5821   27.7754 N.am    1  UNL1       -0.2729
     16 C           6.5526   -1.8344   27.9892 C.2     1  UNL1        0.2465
     17 O           8.0230   -1.7477   28.2726 O.2     1  UNL1       -0.2730
     18 C           5.8798   -3.1732   27.9197 C.3     1  UNL1        0.1835
     19 N           6.6891   -4.4277   28.0655 N.am    1  UNL1       -0.2439
     20 C           6.9784   -4.9791   29.4301 C.2     1  UNL1        0.2744
     21 O           6.4586   -4.2760   30.6489 O.2     1  UNL1       -0.2705
     22 C           7.7877   -6.2337   29.5760 C.3     1  UNL1        0.2900
     23 O           8.3075   -6.9368   28.3572 O.3     1  UNL1       -0.4643
     24 C           8.0181   -6.3854   26.9926 C.ar    1  UNL1        0.1537
     25 C           8.5380   -7.0885   25.7738 C.ar    1  UNL1        0.0504
     26 C           8.2486   -6.5371   24.4092 C.ar    1  UNL1        0.0713
     27 CL          8.7685   -7.2402   23.1905 Cl      1  UNL1       -0.0813
     28 C           7.4394   -5.2825   24.2634 C.ar    1  UNL1        0.0696
     29 CL          7.1500   -4.7311   22.8988 Cl      1  UNL1       -0.0813
     30 C           6.9195   -4.5794   25.4821 C.ar    1  UNL1        0.0302
     31 C           7.2089   -5.1309   26.8468 C.ar    1  UNL1        0.0894
     32 C           3.3159   -0.8911   28.6157 C.3     1  UNL1        0.0968
     33 N           2.4034    0.2174   29.0497 N.3     1  UNL1       -0.2667
     34 C           2.9750    1.5418   29.4612 C.3     1  UNL1        0.1047
     35 C           2.0625    2.6503   29.8952 C.3     1  UNL1        0.1595
     36 O           0.5782    2.4344   29.9177 O.3     1  UNL1       -0.3508
     37 C           0.0066    1.1101   29.5063 C.3     1  UNL1        0.1595
     38 C           0.9192    0.0016   29.0723 C.3     1  UNL1        0.1047
@<TRIPOS>BOND
     1    14    15    1
     2    15    16   am
     3    16    17    2
     4    16    18    1
     5    18    19    1
     6    19    20   am
     7    20    21    2
     8    20    22    1
     9    22    23    1
    10    23    24    1
    11    24    25   ar
    12    25    26   ar
    13    26    27    1
    14    26    28   ar
    15    28    29    1
    16    28    30   ar
    17    30    31   ar
    18    15     1    1
    19     1    32    1
    20    32    33    1
    21    33    34    1
    22    34    35    1
    23    35    36    1
    24    36    37    1
    25    37    38    1
    26     1     2    1
    27     2     3   ar
    28     3     4   ar
    29     4     5   ar
    30     5     8    1
    31     8     9   ar
    32     9    10   ar
    33    10    11   ar
    34    11    12   ar
    35    12    13   ar
    36     5     6   ar
    37     6     7   ar
    38    31    19    1
    39    38    33    1
    40     7     2   ar
    41    31    24   ar
    42    13     8   ar
@<TRIPOS>MOLECULE
*****
 38 42 0 0 0
SMALL
GASTEIGER

@<TRIPOS>ATOM
      1 C          -0.1779    3.1309   20.4406 C.3     1  UNL1        0.1139
      2 C           0.7248    1.9765   20.1206 C.ar    1  UNL1       -0.0029
      3 C           1.9085    2.1770   19.2214 C.ar    1  UNL1       -0.0026
      4 C           2.8113    1.0225   18.9014 C.ar    1  UNL1       -0.0003
      5 C           2.5303   -0.3323   19.4806 C.ar    1  UNL1       -0.0000
      6 C           1.3465   -0.5327   20.3799 C.ar    1  UNL1       -0.0003
      7 C           0.4438    0.6217   20.6999 C.ar    1  UNL1       -0.0026
      8 C           3.4330   -1.4867   19.1607 C.ar    1  UNL1       -0.0000
      9 C           3.0697   -2.8703   19.6119 C.ar    1  UNL1       -0.0000
     10 C           3.9725   -4.0248   19.2919 C.ar    1  UNL1        0.0000
     11 C           5.2385   -3.7956   18.5208 C.ar    1  UNL1        0.0000
     12 C           5.6017   -2.4119   18.0696 C.ar    1  UNL1        0.0000
     13 C           4.6990   -1.2575   18.3895 C.ar    1  UNL1       -0.0000
     14 C           1.0986    5.3646   20.8029 C.3     1  UNL1        0.1152
     15 N           0.2959    4.2231   21.3530 N.am    1  UNL1       -0.2729
     16 C          -0.0329    4.1738   22.8158 C.2     1  UNL1        0.2465
     17 O           0.4410    5.2659   23.7283 O.2     1  UNL1       -0.2730
     18 C          -0.8355    3.0323   23.3660 C.3     1  UNL1        0.1835
     19 N          -1.8207    3.2722   24.4714 N.am    1  UNL1       -0.2439
     20 C          -1.3678    3.2344   25.9009 C.2     1  UNL1        0.2744
     21 O           0.0702    2.9567   26.2250 O.2     1  UNL1       -0.2705
     22 C          -2.3530    3.4744   27.0063 C.3     1  UNL1        0.2900
     23 O          -3.7910    3.7521   26.6821 O.3     1  UNL1       -0.4643
     24 C          -4.2438    3.7899   25.2526 C.ar    1  UNL1        0.1537
     25 C          -5.6818    4.0676   24.9285 C.ar    1  UNL1        0.0504
     26 C          -6.1346    4.1054   23.4990 C.ar    1  UNL1        0.0713
     27 CL         -7.5726    4.3831   23.1749 Cl      1  UNL1       -0.0813
     28 C          -5.1495    3.8654   22.3936 C.ar    1  UNL1        0.0696
     29 CL         -5.6023    3.9032   20.9641 Cl      1  UNL1       -0.0813
     30 C          -3.7115    3.5877   22.7177 C.ar    1  UNL1        0.0302
     31 C          -3.2587    3.5499   24.1473 C.ar    1  UNL1        0.0894
     32 C          -1.5546    3.1932   19.8480 C.3     1  UNL1        0.0968
     33 N          -1.7841    3.9265   18.5598 N.3     1  UNL1       -0.2667
     34 C          -0.6156    4.3605   17.7253 C.3     1  UNL1        0.1047
     35 C          -0.8451    5.0937   16.4370 C.3     1  UNL1        0.1595
     36 O          -2.2432    5.3929   15.9832 O.3     1  UNL1       -0.3508
     37 C          -3.4117    4.9589   16.8176 C.3     1  UNL1        0.1595
     38 C          -3.1821    4.2257   18.1059 C.3     1  UNL1        0.1047
@<TRIPOS>BOND
     1    14    15    1
     2    15    16   am
     3    16    17    2
     4    16    18    1
     5    18    19    1
     6    19    20   am
     7    20    21    2
     8    20    22    1
     9    22    23    1
    10    23    24    1
    11    24    25   ar
    12    25    26   ar
    13    26    27    1
    14    26    28   ar
    15    28    29    1
    16    28    30   ar
    17    30    31   ar
    18    15     1    1
    19     1    32    1
    20    32    33    1
    21    33    34    1
    22    34    35    1
    23    35    36    1
    24    36    37    1
    25    37    38    1
    26     1     2    1
    27     2     3   ar
    28     3     4   ar
    29     4     5   ar
    30     5     8    1
    31     8     9   ar
    32     9    10   ar
    33    10    11   ar
    34    11    12   ar
    35    12    13   ar
    36     5     6   ar
    37     6     7   ar
    38    31    19    1
    39    38    33    1
    40     7     2   ar
    41    31    24   ar
    42    13     8   ar
