@<TRIPOS>MOLECULE
*****
 29 33 0 0 0
SMALL
GASTEIGER

@<TRIPOS>ATOM
      1 C          -9.1758  -17.3459   24.3120 C.2     1  UNL1       -0.0160
      2 C          -8.3451  -17.9400   23.2133 C.2     1  UNL1       -0.0038
      3 C          -6.9403  -17.4624   22.9931 C.2     1  UNL1        0.0025
      4 C          -6.3662  -16.3906   23.8716 C.2     1  UNL1        0.0350
      5 C          -5.0229  -15.7235   23.8935 C.2     1  UNL1        0.1040
      6 N          -5.0234  -14.7170   25.0057 N.2     1  UNL1       -0.1483
      7 N          -6.3669  -14.7622   25.6711 N.2     1  UNL1       -0.1520
      8 C          -7.1968  -15.7965   24.9702 C.2     1  UNL1        0.0864
      9 C          -8.6016  -16.2741   25.1905 C.3     1  UNL1        0.0739
     10 O         -13.7095  -18.7342   24.7035 O.2     1  UNL1       -0.2698
     11 C         -13.0626  -18.0129   23.5584 C.2     1  UNL1        0.2495
     12 N         -13.7403  -17.5834   22.2911 N.am    1  UNL1       -0.2804
     13 C         -12.7209  -16.8995   21.4290 C.ar    1  UNL1        0.0506
     14 C         -12.8146  -16.2714   20.0701 C.ar    1  UNL1        0.0147
     15 C         -11.6005  -15.6501   19.4458 C.ar    1  UNL1        0.0013
     16 C         -10.2927  -15.6568   20.1804 C.ar    1  UNL1        0.0001
     17 C         -10.1990  -16.2849   21.5394 C.ar    1  UNL1        0.0014
     18 C         -11.4132  -16.9062   22.1637 C.ar    1  UNL1        0.0179
     19 C         -11.6244  -17.5943   23.4797 C.2     1  UNL1        0.0546
     20 C         -10.5805  -17.8236   24.5322 C.2     1  UNL1        0.0007
     21 H         -14.6879  -17.7255   22.0647 H       1  UNL1        0.1552
     22 C          -3.8799  -16.0121   22.9660 C.2     1  UNL1        0.0209
     23 C          -3.5732  -17.4263   22.5711 C.2     1  UNL1        0.0017
     24 C          -2.4302  -17.7150   21.6436 C.ar    1  UNL1        0.0031
     25 C          -1.5492  -16.5977   21.1687 C.ar    1  UNL1        0.0207
     26 C          -0.4061  -16.8863   20.2412 C.ar    1  UNL1        0.0989
     27 N          -0.1441  -18.2922   19.7886 N.ar    1  UNL1       -0.2423
     28 C          -1.0251  -19.4095   20.2636 C.ar    1  UNL1        0.0989
     29 C          -2.1682  -19.1208   21.1910 C.ar    1  UNL1        0.0207
@<TRIPOS>BOND
     1    10    11    2
     2    11    12   am
     3    12    13    1
     4    13    14   ar
     5    14    15   ar
     6    15    16   ar
     7    16    17   ar
     8    17    18   ar
     9    18    19    1
    10    19    20    2
    11    20     1    1
    12     1     2    2
    13     2     3    1
    14     3     4    2
    15     4     5    1
    16     5    22    1
    17    22    23    2
    18    23    24    1
    19    24    25   ar
    20    25    26   ar
    21    26    27   ar
    22    27    28   ar
    23    28    29   ar
    24     5     6    2
    25     6     7    1
    26     7     8    2
    27     8     9    1
    28    19    11    1
    29     9     1    1
    30    18    13   ar
    31     8     4    1
    32    29    24   ar
    33    12    21    1
@<TRIPOS>MOLECULE
*****
 29 33 0 0 0
SMALL
GASTEIGER

@<TRIPOS>ATOM
      1 C           2.2703   -0.4017   19.5929 C.2     1  UNL1       -0.0160
      2 C           0.9117   -0.5736   20.2051 C.2     1  UNL1       -0.0038
      3 C           0.0747    0.6297   20.5236 C.2     1  UNL1        0.0025
      4 C           0.5964    2.0051   20.2300 C.2     1  UNL1        0.0350
      5 C           0.0034    3.3678   20.4328 C.2     1  UNL1        0.1040
      6 N           0.9955    4.3822   19.9461 N.2     1  UNL1       -0.1483
      7 N           2.2016    3.6462   19.4424 N.2     1  UNL1       -0.1520
      8 C           1.9549    2.1771   19.6179 C.2     1  UNL1        0.0864
      9 C           2.7919    0.9738   19.2993 C.3     1  UNL1        0.0739
     10 O           5.0067   -4.2339   18.9136 O.2     1  UNL1       -0.2698
     11 C           4.7364   -3.5114   20.1999 C.2     1  UNL1        0.2495
     12 N           5.2917   -3.8703   21.5463 N.am    1  UNL1       -0.2804
     13 C           4.7619   -2.8837   22.5443 C.ar    1  UNL1        0.0506
     14 C           4.9692   -2.7423   24.0232 C.ar    1  UNL1        0.0147
     15 C           4.2937   -1.6322   24.7724 C.ar    1  UNL1        0.0013
     16 C           3.4109   -0.6635   24.0428 C.ar    1  UNL1        0.0001
     17 C           3.2036   -0.8049   22.5639 C.ar    1  UNL1        0.0014
     18 C           3.8790   -1.9150   21.8147 C.ar    1  UNL1        0.0179
     19 C           3.8633   -2.3030   20.3658 C.2     1  UNL1        0.0546
     20 C           3.1072   -1.6050   19.2744 C.2     1  UNL1        0.0007
     21 H           5.8976   -4.6215   21.7409 H       1  UNL1        0.1552
     22 C          -1.3450    3.6643   21.0194 C.2     1  UNL1        0.0209
     23 C          -2.5877    3.2335   20.2984 C.2     1  UNL1        0.0017
     24 C          -3.9361    3.5299   20.8850 C.ar    1  UNL1        0.0031
     25 C          -4.1628    3.3756   22.3597 C.ar    1  UNL1        0.0207
     26 C          -5.5111    3.6721   22.9464 C.ar    1  UNL1        0.0989
     27 N          -6.6328    4.1228   22.0583 N.ar    1  UNL1       -0.2423
     28 C          -6.4061    4.2770   20.5835 C.ar    1  UNL1        0.0989
     29 C          -5.0577    3.9806   19.9969 C.ar    1  UNL1        0.0207
@<TRIPOS>BOND
     1    10    11    2
     2    11    12   am
     3    12    13    1
     4    13    14   ar
     5    14    15   ar
     6    15    16   ar
     7    16    17   ar
     8    17    18   ar
     9    18    19    1
    10    19    20    2
    11    20     1    1
    12     1     2    2
    13     2     3    1
    14     3     4    2
    15     4     5    1
    16     5    22    1
    17    22    23    2
    18    23    24    1
    19    24    25   ar
    20    25    26   ar
    21    26    27   ar
    22    27    28   ar
    23    28    29   ar
    24     5     6    2
    25     6     7    1
    26     7     8    2
    27     8     9    1
    28    19    11    1
    29     9     1    1
    30    18    13   ar
    31     8     4    1
    32    29    24   ar
    33    12    21    1
@<TRIPOS>MOLECULE
*****
 29 33 0 0 0
SMALL
GASTEIGER

@<TRIPOS>ATOM
      1 C           3.7340   -1.9956   21.0822 C.2     1  UNL1       -0.0160
      2 C           3.6409   -1.8210   22.5692 C.2     1  UNL1       -0.0038
      3 C           4.5993   -2.5415   23.4705 C.2     1  UNL1        0.0025
      4 C           5.6508   -3.4367   22.8848 C.2     1  UNL1        0.0350
      5 C           6.7256   -4.2699   23.5176 C.2     1  UNL1        0.1040
      6 N           7.4831   -4.9595   22.4218 N.2     1  UNL1       -0.1483
      7 N           6.8764   -4.5524   21.1118 N.2     1  UNL1       -0.1520
      8 C           5.7439   -3.6113   21.3980 C.2     1  UNL1        0.0864
      9 C           4.7856   -2.8907   20.4967 C.3     1  UNL1        0.0739
     10 O           0.9300    0.5339   18.1884 O.2     1  UNL1       -0.2698
     11 C           2.3167    0.8688   18.6518 C.2     1  UNL1        0.2495
     12 N           3.0986    2.0939   18.2808 N.am    1  UNL1       -0.2804
     13 C           4.4302    2.0197   18.9674 C.ar    1  UNL1        0.0506
     14 C           5.6106    2.9452   18.9711 C.ar    1  UNL1        0.0147
     15 C           6.8320    2.5996   19.7702 C.ar    1  UNL1        0.0013
     16 C           6.8731    1.3285   20.5656 C.ar    1  UNL1        0.0001
     17 C           5.6927    0.4030   20.5619 C.ar    1  UNL1        0.0014
     18 C           4.4713    0.7486   19.7628 C.ar    1  UNL1        0.0179
     19 C           3.1651    0.0373   19.5678 C.2     1  UNL1        0.0546
     20 C           2.7757   -1.2750   20.1810 C.2     1  UNL1        0.0007
     21 H           2.7917    2.8195   17.6903 H       1  UNL1        0.1552
     22 C           6.9956   -4.3921   24.9881 C.2     1  UNL1        0.0209
     23 C           7.0789   -5.7475   25.6252 C.2     1  UNL1        0.0017
     24 C           7.3489   -5.8697   27.0957 C.ar    1  UNL1        0.0031
     25 C           8.5716   -6.5937   27.5761 C.ar    1  UNL1        0.0207
     26 C           8.8416   -6.7159   29.0466 C.ar    1  UNL1        0.0989
     27 N           7.8889   -6.1140   30.0366 N.ar    1  UNL1       -0.2423
     28 C           6.6662   -5.3900   29.5562 C.ar    1  UNL1        0.0989
     29 C           6.3962   -5.2678   28.0857 C.ar    1  UNL1        0.0207
@<TRIPOS>BOND
     1    10    11    2
     2    11    12   am
     3    12    13    1
     4    13    14   ar
     5    14    15   ar
     6    15    16   ar
     7    16    17   ar
     8    17    18   ar
     9    18    19    1
    10    19    20    2
    11    20     1    1
    12     1     2    2
    13     2     3    1
    14     3     4    2
    15     4     5    1
    16     5    22    1
    17    22    23    2
    18    23    24    1
    19    24    25   ar
    20    25    26   ar
    21    26    27   ar
    22    27    28   ar
    23    28    29   ar
    24     5     6    2
    25     6     7    1
    26     7     8    2
    27     8     9    1
    28    19    11    1
    29     9     1    1
    30    18    13   ar
    31     8     4    1
    32    29    24   ar
    33    12    21    1
@<TRIPOS>MOLECULE
*****
 29 33 0 0 0
SMALL
GASTEIGER

@<TRIPOS>ATOM
      1 C          -1.0452    3.7370   25.5224 C.2     1  UNL1       -0.0160
      2 C          -0.8003    2.2803   25.7834 C.2     1  UNL1       -0.0038
      3 C           0.0255    1.4749   24.8245 C.2     1  UNL1        0.0025
      4 C           0.6064    2.1263   23.6045 C.2     1  UNL1        0.0350
      5 C           1.4545    1.5916   22.4888 C.2     1  UNL1        0.1040
      6 N           1.7337    2.7178   21.5382 N.2     1  UNL1       -0.1483
      7 N           1.0582    3.9485   22.0664 N.2     1  UNL1       -0.1520
      8 C           0.3615    3.5829   23.3435 C.2     1  UNL1        0.0864
      9 C          -0.4643    4.3883   24.3023 C.3     1  UNL1        0.0739
     10 O          -3.9290    6.2490   28.3525 O.2     1  UNL1       -0.2698
     11 C          -4.2631    5.5934   27.0453 C.2     1  UNL1        0.2495
     12 N          -5.6017    5.6071   26.3688 N.am    1  UNL1       -0.2804
     13 C          -5.4832    4.8312   25.0906 C.ar    1  UNL1        0.0506
     14 C          -6.4785    4.5101   24.0153 C.ar    1  UNL1        0.0147
     15 C          -6.0618    3.6957   22.8266 C.ar    1  UNL1        0.0013
     16 C          -4.6498    3.2024   22.7132 C.ar    1  UNL1        0.0001
     17 C          -3.6545    3.5234   23.7884 C.ar    1  UNL1        0.0014
     18 C          -4.0712    4.3378   24.9771 C.ar    1  UNL1        0.0179
     19 C          -3.3171    4.8089   26.1852 C.2     1  UNL1        0.0546
     20 C          -1.8710    4.5423   26.4812 C.2     1  UNL1        0.0007
     21 H          -6.4154    6.0481   26.7047 H       1  UNL1        0.1552
     22 C           1.9384    0.1787   22.3484 C.2     1  UNL1        0.0209
     23 C           2.9833   -0.1581   21.3263 C.2     1  UNL1        0.0017
     24 C           3.4672   -1.5709   21.1859 C.ar    1  UNL1        0.0031
     25 C           4.0875   -2.2713   22.3583 C.ar    1  UNL1        0.0207
     26 C           4.5714   -3.6841   22.2179 C.ar    1  UNL1        0.0989
     27 N           4.4350   -4.3966   20.9050 N.ar    1  UNL1       -0.2423
     28 C           3.8147   -3.6963   19.7325 C.ar    1  UNL1        0.0989
     29 C           3.3308   -2.2834   19.8730 C.ar    1  UNL1        0.0207
@<TRIPOS>BOND
     1    10    11    2
     2    11    12   am
     3    12    13    1
     4    13    14   ar
     5    14    15   ar
     6    15    16   ar
     7    16    17   ar
     8    17    18   ar
     9    18    19    1
    10    19    20    2
    11    20     1    1
    12     1     2    2
    13     2     3    1
    14     3     4    2
    15     4     5    1
    16     5    22    1
    17    22    23    2
    18    23    24    1
    19    24    25   ar
    20    25    26   ar
    21    26    27   ar
    22    27    28   ar
    23    28    29   ar
    24     5     6    2
    25     6     7    1
    26     7     8    2
    27     8     9    1
    28    19    11    1
    29     9     1    1
    30    18    13   ar
    31     8     4    1
    32    29    24   ar
    33    12    21    1
@<TRIPOS>MOLECULE
*****
 29 33 0 0 0
SMALL
GASTEIGER

@<TRIPOS>ATOM
      1 C           2.4258   -1.1512   20.8374 C.2     1  UNL1       -0.0160
      2 C           2.8718   -0.6582   22.1821 C.2     1  UNL1       -0.0038
      3 C           2.1493    0.4789   22.8416 C.2     1  UNL1        0.0025
      4 C           0.9807    1.1231   22.1564 C.2     1  UNL1        0.0350
      5 C           0.0802    2.2535   22.5579 C.2     1  UNL1        0.1040
      6 N          -0.9224    2.4592   21.4613 N.2     1  UNL1       -0.1483
      7 N          -0.6415    1.4559   20.3822 N.2     1  UNL1       -0.1520
      8 C           0.5347    0.6301   20.8118 C.2     1  UNL1        0.0864
      9 C           1.2572   -0.5070   20.1523 C.3     1  UNL1        0.0739
     10 O           4.9081   -4.5264   18.5832 O.2     1  UNL1       -0.2698
     11 C           5.0670   -3.0388   18.4750 C.2     1  UNL1        0.2495
     12 N           6.0627   -2.3186   17.6147 N.am    1  UNL1       -0.2804
     13 C           5.8692   -0.8449   17.8161 C.ar    1  UNL1        0.0506
     14 C           6.5644    0.3481   17.2300 C.ar    1  UNL1        0.0147
     15 C           6.1443    1.7317   17.6287 C.ar    1  UNL1        0.0013
     16 C           5.0291    1.9225   18.6135 C.ar    1  UNL1        0.0001
     17 C           4.3338    0.7295   19.1995 C.ar    1  UNL1        0.0014
     18 C           4.7539   -0.6541   18.8008 C.ar    1  UNL1        0.0179
     19 C           4.2581   -2.0100   19.2080 C.2     1  UNL1        0.0546
     20 C           3.1483   -2.2883   20.1780 C.2     1  UNL1        0.0007
     21 H           6.7266   -2.7394   17.0220 H       1  UNL1        0.1552
     22 C           0.1671    3.0401   23.8321 C.2     1  UNL1        0.0209
     23 C          -0.1186    2.3742   25.1455 C.2     1  UNL1        0.0017
     24 C          -0.0318    3.1608   26.4198 C.ar    1  UNL1        0.0031
     25 C           0.7332    2.6137   27.5883 C.ar    1  UNL1        0.0207
     26 C           0.8201    3.4003   28.8626 C.ar    1  UNL1        0.0989
     27 N           0.1419    4.7341   28.9683 N.ar    1  UNL1       -0.2423
     28 C          -0.6230    5.2812   27.7998 C.ar    1  UNL1        0.0989
     29 C          -0.7099    4.4946   26.5255 C.ar    1  UNL1        0.0207
@<TRIPOS>BOND
     1    10    11    2
     2    11    12   am
     3    12    13    1
     4    13    14   ar
     5    14    15   ar
     6    15    16   ar
     7    16    17   ar
     8    17    18   ar
     9    18    19    1
    10    19    20    2
    11    20     1    1
    12     1     2    2
    13     2     3    1
    14     3     4    2
    15     4     5    1
    16     5    22    1
    17    22    23    2
    18    23    24    1
    19    24    25   ar
    20    25    26   ar
    21    26    27   ar
    22    27    28   ar
    23    28    29   ar
    24     5     6    2
    25     6     7    1
    26     7     8    2
    27     8     9    1
    28    19    11    1
    29     9     1    1
    30    18    13   ar
    31     8     4    1
    32    29    24   ar
    33    12    21    1
@<TRIPOS>MOLECULE
*****
 29 33 0 0 0
SMALL
GASTEIGER

@<TRIPOS>ATOM
      1 C           2.3935   -0.9482   20.7976 C.2     1  UNL1       -0.0160
      2 C           1.1135   -0.6862   20.0607 C.2     1  UNL1       -0.0038
      3 C           0.2417    0.4679   20.4582 C.2     1  UNL1        0.0025
      4 C           0.6500    1.3602   21.5927 C.2     1  UNL1        0.0350
      5 C          -0.0000    2.5648   22.2062 C.2     1  UNL1        0.1040
      6 N           0.8782    3.0474   23.3223 N.2     1  UNL1       -0.1483
      7 N           2.0710    2.1411   23.3987 N.2     1  UNL1       -0.1520
      8 C           1.9300    1.0983   22.3297 C.2     1  UNL1        0.0864
      9 C           2.8017   -0.0558   21.9322 C.3     1  UNL1        0.0739
     10 O           5.3308   -4.3936   19.3359 O.2     1  UNL1       -0.2698
     11 C           5.3347   -2.9482   18.9350 C.2     1  UNL1        0.2495
     12 N           6.2887   -2.3022   17.9746 N.am    1  UNL1       -0.2804
     13 C           5.9289   -0.8497   17.8702 C.ar    1  UNL1        0.0506
     14 C           6.5205    0.2762   17.0751 C.ar    1  UNL1        0.0147
     15 C           5.9357    1.6538   17.1758 C.ar    1  UNL1        0.0013
     16 C           4.7592    1.9055   18.0717 C.ar    1  UNL1        0.0001
     17 C           4.1676    0.7795   18.8668 C.ar    1  UNL1        0.0014
     18 C           4.7525   -0.5980   18.7661 C.ar    1  UNL1        0.0179
     19 C           4.3852   -1.8950   19.4242 C.2     1  UNL1        0.0546
     20 C           3.2651   -2.1023   20.4001 C.2     1  UNL1        0.0007
     21 H           7.0223   -2.7524   17.4967 H       1  UNL1        0.1552
     22 C          -1.3000    3.1789   21.7786 C.2     1  UNL1        0.0209
     23 C          -1.7418    3.0800   20.3486 C.2     1  UNL1        0.0017
     24 C          -3.0418    3.6941   19.9210 C.ar    1  UNL1        0.0031
     25 C          -3.0693    4.6828   18.7933 C.ar    1  UNL1        0.0207
     26 C          -4.3693    5.2969   18.3657 C.ar    1  UNL1        0.0989
     27 N          -5.6419    4.9224   19.0658 N.ar    1  UNL1       -0.2423
     28 C          -5.6144    3.9338   20.1936 C.ar    1  UNL1        0.0989
     29 C          -4.3144    3.3196   20.6212 C.ar    1  UNL1        0.0207
@<TRIPOS>BOND
     1    10    11    2
     2    11    12   am
     3    12    13    1
     4    13    14   ar
     5    14    15   ar
     6    15    16   ar
     7    16    17   ar
     8    17    18   ar
     9    18    19    1
    10    19    20    2
    11    20     1    1
    12     1     2    2
    13     2     3    1
    14     3     4    2
    15     4     5    1
    16     5    22    1
    17    22    23    2
    18    23    24    1
    19    24    25   ar
    20    25    26   ar
    21    26    27   ar
    22    27    28   ar
    23    28    29   ar
    24     5     6    2
    25     6     7    1
    26     7     8    2
    27     8     9    1
    28    19    11    1
    29     9     1    1
    30    18    13   ar
    31     8     4    1
    32    29    24   ar
    33    12    21    1
@<TRIPOS>MOLECULE
*****
 29 33 0 0 0
SMALL
GASTEIGER

@<TRIPOS>ATOM
      1 C           1.3761    0.5040   28.8836 C.2     1  UNL1       -0.0160
      2 C          -0.1201    0.3995   28.9113 C.2     1  UNL1       -0.0038
      3 C          -0.9427    1.1429   27.9011 C.2     1  UNL1        0.0025
      4 C          -0.2692    1.9908   26.8630 C.2     1  UNL1        0.0350
      5 C          -0.8135    2.8322   25.7469 C.2     1  UNL1        0.1040
      6 N           0.3463    3.4568   25.0293 N.2     1  UNL1       -0.1483
      7 N           1.6073    3.0013   25.7020 N.2     1  UNL1       -0.1520
      8 C           1.2269    2.0953   26.8353 C.2     1  UNL1        0.0864
      9 C           2.0495    1.3519   27.8455 C.3     1  UNL1        0.0739
     10 O           3.9305   -1.5958   32.3043 O.2     1  UNL1       -0.2698
     11 C           3.2231   -0.2744   32.3625 C.2     1  UNL1        0.2495
     12 N           3.1875    0.6556   33.5389 N.am    1  UNL1       -0.2804
     13 C           2.3694    1.8538   33.1580 C.ar    1  UNL1        0.0506
     14 C           1.9918    3.0929   33.9143 C.ar    1  UNL1        0.0147
     15 C           1.1442    4.1425   33.2588 C.ar    1  UNL1        0.0013
     16 C           0.6742    3.9531   31.8469 C.ar    1  UNL1        0.0001
     17 C           1.0519    2.7141   31.0906 C.ar    1  UNL1        0.0014
     18 C           1.8995    1.6644   31.7462 C.ar    1  UNL1        0.0179
     19 C           2.4271    0.3491   31.2546 C.2     1  UNL1        0.0546
     20 C           2.1987   -0.2394   29.8938 C.2     1  UNL1        0.0007
     21 H           3.6243    0.5058   34.4084 H       1  UNL1        0.1552
     22 C          -2.2630    3.0167   25.4079 C.2     1  UNL1        0.0209
     23 C          -2.6537    3.7479   24.1578 C.2     1  UNL1        0.0017
     24 C          -4.1032    3.9324   23.8188 C.ar    1  UNL1        0.0031
     25 C          -4.5808    3.6998   22.4160 C.ar    1  UNL1        0.0207
     26 C          -6.0303    3.8843   22.0770 C.ar    1  UNL1        0.0989
     27 N          -7.0022    4.3014   23.1407 N.ar    1  UNL1       -0.2423
     28 C          -6.5245    4.5339   24.5435 C.ar    1  UNL1        0.0989
     29 C          -5.0750    4.3495   24.8825 C.ar    1  UNL1        0.0207
@<TRIPOS>BOND
     1    10    11    2
     2    11    12   am
     3    12    13    1
     4    13    14   ar
     5    14    15   ar
     6    15    16   ar
     7    16    17   ar
     8    17    18   ar
     9    18    19    1
    10    19    20    2
    11    20     1    1
    12     1     2    2
    13     2     3    1
    14     3     4    2
    15     4     5    1
    16     5    22    1
    17    22    23    2
    18    23    24    1
    19    24    25   ar
    20    25    26   ar
    21    26    27   ar
    22    27    28   ar
    23    28    29   ar
    24     5     6    2
    25     6     7    1
    26     7     8    2
    27     8     9    1
    28    19    11    1
    29     9     1    1
    30    18    13   ar
    31     8     4    1
    32    29    24   ar
    33    12    21    1
@<TRIPOS>MOLECULE
*****
 29 33 0 0 0
SMALL
GASTEIGER

@<TRIPOS>ATOM
      1 C           1.9980   -0.5478   20.7854 C.2     1  UNL1       -0.0160
      2 C           2.7774   -0.4960   22.0661 C.2     1  UNL1       -0.0038
      3 C           3.8928   -1.4699   22.3052 C.2     1  UNL1        0.0025
      4 C           4.2290   -2.4957   21.2637 C.2     1  UNL1        0.0350
      5 C           5.2669   -3.5777   21.2188 C.2     1  UNL1        0.1040
      6 N           5.1291   -4.2982   19.9105 N.2     1  UNL1       -0.1483
      7 N           4.0060   -3.6615   19.1467 N.2     1  UNL1       -0.1520
      8 C           3.4497   -2.5475   19.9830 C.2     1  UNL1        0.0864
      9 C           2.3343   -1.5735   19.7439 C.3     1  UNL1        0.0739
     10 O          -1.3165    2.7373   19.8594 O.2     1  UNL1       -0.2698
     11 C           0.1305    2.7520   19.4647 C.2     1  UNL1        0.2495
     12 N           0.8209    3.8315   18.6849 N.am    1  UNL1       -0.2804
     13 C           2.2583    3.4364   18.5187 C.ar    1  UNL1        0.0506
     14 C           3.4124    4.1109   17.8383 C.ar    1  UNL1        0.0147
     15 C           4.7646    3.4617   17.8350 C.ar    1  UNL1        0.0013
     16 C           4.9627    2.1380   18.5121 C.ar    1  UNL1        0.0001
     17 C           3.8086    1.4634   19.1925 C.ar    1  UNL1        0.0014
     18 C           2.4564    2.1126   19.1958 C.ar    1  UNL1        0.0179
     19 C           1.1414    1.6897   19.7804 C.2     1  UNL1        0.0546
     20 C           0.8826    0.4262   20.5464 C.2     1  UNL1        0.0007
     21 H           0.4037    4.6548   18.3423 H       1  UNL1        0.1552
     22 C           6.2670   -3.8852   22.2937 C.2     1  UNL1        0.0209
     23 C           5.8349   -3.9309   23.7293 C.2     1  UNL1        0.0017
     24 C           6.8350   -4.2384   24.8042 C.ar    1  UNL1        0.0031
     25 C           7.8030   -5.3703   24.6263 C.ar    1  UNL1        0.0207
     26 C           8.8031   -5.6778   25.7012 C.ar    1  UNL1        0.0989
     27 N           8.8352   -4.8534   26.9538 N.ar    1  UNL1       -0.2423
     28 C           7.8672   -3.7214   27.1317 C.ar    1  UNL1        0.0989
     29 C           6.8671   -3.4139   26.0568 C.ar    1  UNL1        0.0207
@<TRIPOS>BOND
     1    10    11    2
     2    11    12   am
     3    12    13    1
     4    13    14   ar
     5    14    15   ar
     6    15    16   ar
     7    16    17   ar
     8    17    18   ar
     9    18    19    1
    10    19    20    2
    11    20     1    1
    12     1     2    2
    13     2     3    1
    14     3     4    2
    15     4     5    1
    16     5    22    1
    17    22    23    2
    18    23    24    1
    19    24    25   ar
    20    25    26   ar
    21    26    27   ar
    22    27    28   ar
    23    28    29   ar
    24     5     6    2
    25     6     7    1
    26     7     8    2
    27     8     9    1
    28    19    11    1
    29     9     1    1
    30    18    13   ar
    31     8     4    1
    32    29    24   ar
    33    12    21    1
@<TRIPOS>MOLECULE
*****
 29 33 0 0 0
SMALL
GASTEIGER

@<TRIPOS>ATOM
      1 C           3.5432   -1.1675   20.9596 C.2     1  UNL1       -0.0160
      2 C           2.6517   -0.2062   21.6884 C.2     1  UNL1       -0.0038
      3 C           2.7011   -0.1249   23.1854 C.2     1  UNL1        0.0025
      4 C           3.6420   -1.0050   23.9536 C.2     1  UNL1        0.0350
      5 C           3.9102   -1.1466   25.4226 C.2     1  UNL1        0.1040
      6 N           4.9675   -2.1954   25.6018 N.2     1  UNL1       -0.1483
      7 N           5.3527   -2.7020   24.2435 N.2     1  UNL1       -0.1520
      8 C           4.5335   -1.9663   23.2248 C.2     1  UNL1        0.0864
      9 C           4.4841   -2.0476   21.7279 C.3     1  UNL1        0.0739
     10 O           3.6481   -1.2063   16.2032 O.2     1  UNL1       -0.2698
     11 C           4.5351   -0.4384   17.1380 C.2     1  UNL1        0.2495
     12 N           5.6486    0.4838   16.7387 N.am    1  UNL1       -0.2804
     13 C           6.2660    1.0342   17.9900 C.ar    1  UNL1        0.0506
     14 C           7.4001    1.9902   18.2131 C.ar    1  UNL1        0.0147
     15 C           7.8021    2.3642   19.6090 C.ar    1  UNL1        0.0013
     16 C           7.0701    1.7821   20.7817 C.ar    1  UNL1        0.0001
     17 C           5.9359    0.8261   20.5586 C.ar    1  UNL1        0.0014
     18 C           5.5339    0.4522   19.1628 C.ar    1  UNL1        0.0179
     19 C           4.4642   -0.4579   18.6361 C.2     1  UNL1        0.0546
     20 C           3.4939   -1.2488   19.4627 C.2     1  UNL1        0.0007
     21 H           5.9257    0.6914   15.8170 H       1  UNL1        0.1552
     22 C           3.2390   -0.3748   26.5198 C.2     1  UNL1        0.0209
     23 C           3.1210   -0.9699   27.8916 C.2     1  UNL1        0.0017
     24 C           2.4498   -0.1982   28.9888 C.ar    1  UNL1        0.0031
     25 C           3.1118   -0.0695   30.3287 C.ar    1  UNL1        0.0207
     26 C           2.4406    0.7023   31.4259 C.ar    1  UNL1        0.0989
     27 N           1.1073    1.3454   31.1832 N.ar    1  UNL1       -0.2423
     28 C           0.4453    1.2167   29.8434 C.ar    1  UNL1        0.0989
     29 C           1.1166    0.4449   28.7462 C.ar    1  UNL1        0.0207
@<TRIPOS>BOND
     1    10    11    2
     2    11    12   am
     3    12    13    1
     4    13    14   ar
     5    14    15   ar
     6    15    16   ar
     7    16    17   ar
     8    17    18   ar
     9    18    19    1
    10    19    20    2
    11    20     1    1
    12     1     2    2
    13     2     3    1
    14     3     4    2
    15     4     5    1
    16     5    22    1
    17    22    23    2
    18    23    24    1
    19    24    25   ar
    20    25    26   ar
    21    26    27   ar
    22    27    28   ar
    23    28    29   ar
    24     5     6    2
    25     6     7    1
    26     7     8    2
    27     8     9    1
    28    19    11    1
    29     9     1    1
    30    18    13   ar
    31     8     4    1
    32    29    24   ar
    33    12    21    1
