@<TRIPOS>MOLECULE
*****
 29 32 0 0 0
SMALL
GASTEIGER

@<TRIPOS>ATOM
      1 C           3.7946    3.6851   18.0602 C.3     1  UNL1        0.0281
      2 C           2.5330    3.0542   18.5704 C.3     1  UNL1        0.1170
      3 C           1.2221    3.7666   18.4150 C.ar    1  UNL1        0.0907
      4 N           0.8652    5.0903   17.8065 N.ar    1  UNL1       -0.2267
      5 C          -0.6171    5.2774   17.9406 C.ar    1  UNL1        0.1834
      6 N          -1.1761    4.0694   18.6321 N.ar    1  UNL1       -0.2768
      7 C          -0.0395    3.1356   18.9253 C.ar    1  UNL1        0.0610
      8 C           0.0098    1.7923   19.5909 C.3     1  UNL1        0.0670
      9 C           1.3207    1.0800   19.7463 C.3     1  UNL1        0.1003
     10 N           2.5822    1.7109   19.2361 N.am    1  UNL1       -0.2720
     11 C           3.8932    0.9985   19.3915 C.2     1  UNL1        0.2501
     12 O           5.1547    1.6294   18.8813 O.2     1  UNL1       -0.2699
     13 C           3.9425   -0.3448   20.0572 C.ar    1  UNL1        0.0641
     14 C           3.7942   -0.4499   21.5461 C.ar    1  UNL1        0.0054
     15 C           3.8435   -1.7933   22.2118 C.ar    1  UNL1        0.0001
     16 C           4.0411   -3.0314   21.3885 C.ar    1  UNL1        0.0047
     17 C           4.1893   -2.9263   19.8995 C.ar    1  UNL1        0.0821
     18 C           4.1400   -1.5830   19.2338 C.ar    1  UNL1        0.0659
     19 CL          4.2882   -1.4780   17.7449 Cl      1  UNL1       -0.0822
     20 C           4.3868   -4.1646   19.0762 C.3     1  UNL1        0.4194
     21 F           4.5843   -5.4028   18.2529 F       1  UNL1       -0.1658
     22 F           2.8999   -4.3358   18.9770 F       1  UNL1       -0.1658
     23 F           5.8737   -3.9933   19.1754 F       1  UNL1       -0.1658
     24 C          -2.6186    3.8362   18.9709 C.ar    1  UNL1        0.1486
     25 C          -3.6697    3.9720   17.9094 C.ar    1  UNL1        0.0375
     26 C          -5.1123    3.7387   18.2481 C.ar    1  UNL1        0.0047
     27 C          -5.5037    3.3697   19.6483 C.ar    1  UNL1        0.0208
     28 C          -4.4525    3.2339   20.7098 C.ar    1  UNL1        0.1005
     29 N          -3.0100    3.4671   20.3711 N.ar    1  UNL1       -0.2264
@<TRIPOS>BOND
     1     2     1    1
     2     2     3    1
     3     3     4   ar
     4     4     5   ar
     5     5     6   ar
     6     6    24    1
     7    24    25   ar
     8    25    26   ar
     9    26    27   ar
    10    27    28   ar
    11    28    29   ar
    12     6     7   ar
    13     7     8    1
    14     8     9    1
    15     9    10    1
    16    10    11   am
    17    11    12    2
    18    11    13    1
    19    13    14   ar
    20    14    15   ar
    21    15    16   ar
    22    16    17   ar
    23    17    20    1
    24    20    21    1
    25    20    22    1
    26    20    23    1
    27    17    18   ar
    28    18    19    1
    29    10     2    1
    30    18    13   ar
    31     7     3   ar
    32    29    24   ar
@<TRIPOS>MOLECULE
*****
 29 32 0 0 0
SMALL
GASTEIGER

@<TRIPOS>ATOM
      1 C           2.5978    3.5379   22.9400 C.3     1  UNL1        0.0281
      2 C           2.8088    2.0532   22.9731 C.3     1  UNL1        0.1170
      3 C           3.2336    1.3281   21.7306 C.ar    1  UNL1        0.0907
      4 N           3.5190    1.8059   20.3377 N.ar    1  UNL1       -0.2267
      5 C           3.9065    0.6164   19.5100 C.ar    1  UNL1        0.1834
      6 N           3.8605   -0.5965   20.3913 N.ar    1  UNL1       -0.2768
      7 C           3.4446   -0.1566   21.7638 C.ar    1  UNL1        0.0610
      8 C           3.2308   -0.9163   23.0394 C.3     1  UNL1        0.0670
      9 C           2.8060   -0.1912   24.2819 C.3     1  UNL1        0.1003
     10 N           2.5950    1.2935   24.2487 N.am    1  UNL1       -0.2720
     11 C           2.1702    2.0186   25.4913 C.2     1  UNL1        0.2501
     12 O           1.9592    3.5033   25.4581 O.2     1  UNL1       -0.2699
     13 C           1.9564    1.2590   26.7669 C.ar    1  UNL1        0.0641
     14 C           3.1307    0.6907   27.5072 C.ar    1  UNL1        0.0054
     15 C           2.9169   -0.0689   28.7829 C.ar    1  UNL1        0.0001
     16 C           1.5289   -0.2603   29.3182 C.ar    1  UNL1        0.0047
     17 C           0.3545    0.3080   28.5778 C.ar    1  UNL1        0.0821
     18 C           0.5683    1.0677   27.3022 C.ar    1  UNL1        0.0659
     19 CL         -0.6060    1.6359   26.5619 Cl      1  UNL1       -0.0822
     20 C          -1.0336    0.1167   29.1132 C.3     1  UNL1        0.4194
     21 F          -2.4217   -0.0747   29.6485 F       1  UNL1       -0.1658
     22 F          -0.8102    1.2320   30.0911 F       1  UNL1       -0.1658
     23 F          -1.2570   -0.9986   28.1353 F       1  UNL1       -0.1658
     24 C           4.1751   -2.0023   19.9735 C.ar    1  UNL1        0.1486
     25 C           3.0951   -2.8760   19.4076 C.ar    1  UNL1        0.0375
     26 C           3.4097   -4.2820   18.9898 C.ar    1  UNL1        0.0047
     27 C           4.8042   -4.8141   19.1379 C.ar    1  UNL1        0.0208
     28 C           5.8842   -3.9403   19.7039 C.ar    1  UNL1        0.1005
     29 N           5.5697   -2.5345   20.1217 N.ar    1  UNL1       -0.2264
@<TRIPOS>BOND
     1     2     1    1
     2     2     3    1
     3     3     4   ar
     4     4     5   ar
     5     5     6   ar
     6     6    24    1
     7    24    25   ar
     8    25    26   ar
     9    26    27   ar
    10    27    28   ar
    11    28    29   ar
    12     6     7   ar
    13     7     8    1
    14     8     9    1
    15     9    10    1
    16    10    11   am
    17    11    12    2
    18    11    13    1
    19    13    14   ar
    20    14    15   ar
    21    15    16   ar
    22    16    17   ar
    23    17    20    1
    24    20    21    1
    25    20    22    1
    26    20    23    1
    27    17    18   ar
    28    18    19    1
    29    10     2    1
    30    18    13   ar
    31     7     3   ar
    32    29    24   ar
@<TRIPOS>MOLECULE
*****
 29 32 0 0 0
SMALL
GASTEIGER

@<TRIPOS>ATOM
      1 C           8.5867   -6.8260   23.0847 C.3     1  UNL1        0.0281
      2 C           8.0256   -5.8387   24.0648 C.3     1  UNL1        0.1170
      3 C           8.0773   -6.1295   25.5354 C.ar    1  UNL1        0.0907
      4 N           8.6158   -7.2960   26.3095 N.ar    1  UNL1       -0.2267
      5 C           8.3874   -7.0297   27.7679 C.ar    1  UNL1        0.1834
      6 N           7.7078   -5.6985   27.8951 N.ar    1  UNL1       -0.2768
      7 C           7.5161   -5.1422   26.5153 C.ar    1  UNL1        0.0610
      8 C           6.9031   -3.8641   26.0247 C.3     1  UNL1        0.0670
      9 C           6.8513   -3.5733   24.5540 C.3     1  UNL1        0.1003
     10 N           7.4125   -4.5606   23.5741 N.am    1  UNL1       -0.2720
     11 C           7.3607   -4.2698   22.1034 C.2     1  UNL1        0.2501
     12 O           7.9219   -5.2571   21.1235 O.2     1  UNL1       -0.2699
     13 C           6.7477   -2.9917   21.6127 C.ar    1  UNL1        0.0641
     14 C           7.5942   -1.7623   21.4649 C.ar    1  UNL1        0.0054
     15 C           6.9811   -0.4842   20.9742 C.ar    1  UNL1        0.0001
     16 C           5.5217   -0.4356   20.6314 C.ar    1  UNL1        0.0047
     17 C           4.6752   -1.6651   20.7792 C.ar    1  UNL1        0.0821
     18 C           5.2882   -2.9432   21.2699 C.ar    1  UNL1        0.0659
     19 CL          4.4417   -4.1727   21.4177 Cl      1  UNL1       -0.0822
     20 C           3.2157   -1.6165   20.4364 C.3     1  UNL1        0.4194
     21 F           1.7562   -1.5679   20.0935 F       1  UNL1       -0.1658
     22 F           2.8952   -1.2440   21.8536 F       1  UNL1       -0.1658
     23 F           3.5362   -1.9890   19.0191 F       1  UNL1       -0.1658
     24 C           7.2927   -5.0395   29.1770 C.ar    1  UNL1        0.1486
     25 C           7.2483   -5.8339   30.4486 C.ar    1  UNL1        0.0375
     26 C           6.8332   -5.1749   31.7306 C.ar    1  UNL1        0.0047
     27 C           6.4625   -3.7215   31.7410 C.ar    1  UNL1        0.0208
     28 C           6.5068   -2.9271   30.4693 C.ar    1  UNL1        0.1005
     29 N           6.9219   -3.5860   29.1874 N.ar    1  UNL1       -0.2264
@<TRIPOS>BOND
     1     2     1    1
     2     2     3    1
     3     3     4   ar
     4     4     5   ar
     5     5     6   ar
     6     6    24    1
     7    24    25   ar
     8    25    26   ar
     9    26    27   ar
    10    27    28   ar
    11    28    29   ar
    12     6     7   ar
    13     7     8    1
    14     8     9    1
    15     9    10    1
    16    10    11   am
    17    11    12    2
    18    11    13    1
    19    13    14   ar
    20    14    15   ar
    21    15    16   ar
    22    16    17   ar
    23    17    20    1
    24    20    21    1
    25    20    22    1
    26    20    23    1
    27    17    18   ar
    28    18    19    1
    29    10     2    1
    30    18    13   ar
    31     7     3   ar
    32    29    24   ar
@<TRIPOS>MOLECULE
*****
 29 32 0 0 0
SMALL
GASTEIGER

@<TRIPOS>ATOM
      1 C           2.5133    2.0115   23.5497 C.3     1  UNL1        0.0281
      2 C           1.6387    1.8996   22.3362 C.3     1  UNL1        0.1170
      3 C           0.3062    2.5877   22.3059 C.ar    1  UNL1        0.0907
      4 N          -0.4067    3.4394   23.3140 N.ar    1  UNL1       -0.2267
      5 C          -1.7218    3.8539   22.7236 C.ar    1  UNL1        0.1834
      6 N          -1.8218    3.2582   21.3505 N.ar    1  UNL1       -0.2768
      7 C          -0.5684    2.4757   21.0924 C.ar    1  UNL1        0.0610
      8 C          -0.1104    1.6756   19.9091 C.3     1  UNL1        0.0670
      9 C           1.2221    0.9875   19.9394 C.3     1  UNL1        0.1003
     10 N           2.0966    1.0995   21.1528 N.am    1  UNL1       -0.2720
     11 C           3.4292    0.4114   21.1831 C.2     1  UNL1        0.2501
     12 O           4.3037    0.5234   22.3966 O.2     1  UNL1       -0.2699
     13 C           3.8872   -0.3887   19.9998 C.ar    1  UNL1        0.0641
     14 C           4.2627    0.3061   18.7246 C.ar    1  UNL1        0.0054
     15 C           4.7207   -0.4941   17.5413 C.ar    1  UNL1        0.0001
     16 C           4.8031   -1.9889   17.6333 C.ar    1  UNL1        0.0047
     17 C           4.4276   -2.6837   18.9086 C.ar    1  UNL1        0.0821
     18 C           3.9696   -1.8837   20.0919 C.ar    1  UNL1        0.0659
     19 CL          3.5941   -2.5785   21.3671 Cl      1  UNL1       -0.0822
     20 C           4.5100   -4.1787   19.0005 C.3     1  UNL1        0.4194
     21 F           4.5924   -5.6736   19.0925 F       1  UNL1       -0.1658
     22 F           5.9562   -4.0752   19.3851 F       1  UNL1       -0.1658
     23 F           3.0638   -4.2821   18.6159 F       1  UNL1       -0.1658
     24 C          -2.9730    3.4173   20.4021 C.ar    1  UNL1        0.1486
     25 C          -4.3741    3.1644   20.8743 C.ar    1  UNL1        0.0375
     26 C          -5.5254    3.3235   19.9259 C.ar    1  UNL1        0.0047
     27 C          -5.2755    3.7353   18.5054 C.ar    1  UNL1        0.0208
     28 C          -3.8743    3.9882   18.0333 C.ar    1  UNL1        0.1005
     29 N          -2.7231    3.8292   18.9816 N.ar    1  UNL1       -0.2264
@<TRIPOS>BOND
     1     2     1    1
     2     2     3    1
     3     3     4   ar
     4     4     5   ar
     5     5     6   ar
     6     6    24    1
     7    24    25   ar
     8    25    26   ar
     9    26    27   ar
    10    27    28   ar
    11    28    29   ar
    12     6     7   ar
    13     7     8    1
    14     8     9    1
    15     9    10    1
    16    10    11   am
    17    11    12    2
    18    11    13    1
    19    13    14   ar
    20    14    15   ar
    21    15    16   ar
    22    16    17   ar
    23    17    20    1
    24    20    21    1
    25    20    22    1
    26    20    23    1
    27    17    18   ar
    28    18    19    1
    29    10     2    1
    30    18    13   ar
    31     7     3   ar
    32    29    24   ar
@<TRIPOS>MOLECULE
*****
 29 32 0 0 0
SMALL
GASTEIGER

@<TRIPOS>ATOM
      1 C           7.2508   -2.4300   26.2825 C.3     1  UNL1        0.0281
      2 C           5.9424   -1.8144   25.8836 C.3     1  UNL1        0.1170
      3 C           4.9895   -1.3301   26.9359 C.ar    1  UNL1        0.0907
      4 N           5.0658   -1.3266   28.4340 N.ar    1  UNL1       -0.2267
      5 C           3.8045   -0.7088   28.9608 C.ar    1  UNL1        0.1834
      6 N           2.9487   -0.3306   27.7884 N.ar    1  UNL1       -0.2768
      7 C           3.6810   -0.7146   26.5369 C.ar    1  UNL1        0.0610
      8 C           3.3256   -0.5833   25.0856 C.3     1  UNL1        0.0670
      9 C           4.2785   -1.0675   24.0333 C.3     1  UNL1        0.1003
     10 N           5.5868   -1.6830   24.4322 N.am    1  UNL1       -0.2720
     11 C           6.5398   -2.1673   23.3798 C.2     1  UNL1        0.2501
     12 O           7.8482   -2.7829   23.7788 O.2     1  UNL1       -0.2699
     13 C           6.1843   -2.0360   21.9284 C.ar    1  UNL1        0.0641
     14 C           6.8372   -0.9782   21.0891 C.ar    1  UNL1        0.0054
     15 C           6.4817   -0.8469   19.6377 C.ar    1  UNL1        0.0001
     16 C           5.4733   -1.7734   19.0258 C.ar    1  UNL1        0.0047
     17 C           4.8202   -2.8313   19.8652 C.ar    1  UNL1        0.0821
     18 C           5.1757   -2.9626   21.3165 C.ar    1  UNL1        0.0659
     19 CL          4.5228   -4.0205   22.1559 Cl      1  UNL1       -0.0822
     20 C           3.8118   -3.7578   19.2532 C.3     1  UNL1        0.4194
     21 F           2.8033   -4.6844   18.6413 F       1  UNL1       -0.1658
     22 F           4.9093   -4.7151   18.8939 F       1  UNL1       -0.1658
     23 F           2.7142   -2.8006   19.6126 F       1  UNL1       -0.1658
     24 C           1.5978    0.3178   27.8557 C.ar    1  UNL1        0.1486
     25 C           0.5487   -0.2287   28.7781 C.ar    1  UNL1        0.0375
     26 C          -0.8023    0.4197   28.8454 C.ar    1  UNL1        0.0047
     27 C          -1.1042    1.6145   27.9904 C.ar    1  UNL1        0.0208
     28 C          -0.0550    2.1611   27.0680 C.ar    1  UNL1        0.1005
     29 N           1.2959    1.5127   27.0007 N.ar    1  UNL1       -0.2264
@<TRIPOS>BOND
     1     2     1    1
     2     2     3    1
     3     3     4   ar
     4     4     5   ar
     5     5     6   ar
     6     6    24    1
     7    24    25   ar
     8    25    26   ar
     9    26    27   ar
    10    27    28   ar
    11    28    29   ar
    12     6     7   ar
    13     7     8    1
    14     8     9    1
    15     9    10    1
    16    10    11   am
    17    11    12    2
    18    11    13    1
    19    13    14   ar
    20    14    15   ar
    21    15    16   ar
    22    16    17   ar
    23    17    20    1
    24    20    21    1
    25    20    22    1
    26    20    23    1
    27    17    18   ar
    28    18    19    1
    29    10     2    1
    30    18    13   ar
    31     7     3   ar
    32    29    24   ar
@<TRIPOS>MOLECULE
*****
 29 32 0 0 0
SMALL
GASTEIGER

@<TRIPOS>ATOM
      1 C           7.6859   -4.5511   25.0918 C.3     1  UNL1        0.0281
      2 C           6.5510   -3.5707   25.0647 C.3     1  UNL1        0.1170
      3 C           6.1088   -2.8999   26.3313 C.ar    1  UNL1        0.0907
      4 N           6.5970   -3.0046   27.7458 N.ar    1  UNL1       -0.2267
      5 C           5.7639   -2.0888   28.5927 C.ar    1  UNL1        0.1834
      6 N           4.7607   -1.4182   27.7017 N.ar    1  UNL1       -0.2768
      7 C           4.9739   -1.9194   26.3040 C.ar    1  UNL1        0.0610
      8 C           4.2812   -1.6097   25.0101 C.3     1  UNL1        0.0670
      9 C           4.7235   -2.2805   23.7434 C.3     1  UNL1        0.1003
     10 N           5.8583   -3.2609   23.7707 N.am    1  UNL1       -0.2720
     11 C           6.3005   -3.9317   22.5039 C.2     1  UNL1        0.2501
     12 O           7.4354   -4.9122   22.5312 O.2     1  UNL1       -0.2699
     13 C           5.6078   -3.6221   21.2100 C.ar    1  UNL1        0.0641
     14 C           4.3171   -4.3054   20.8680 C.ar    1  UNL1        0.0054
     15 C           3.6244   -3.9957   19.5740 C.ar    1  UNL1        0.0001
     16 C           4.2225   -3.0027   18.6221 C.ar    1  UNL1        0.0047
     17 C           5.5133   -2.3193   18.9641 C.ar    1  UNL1        0.0821
     18 C           6.2060   -2.6290   20.2581 C.ar    1  UNL1        0.0659
     19 CL          7.4968   -1.9456   20.6001 Cl      1  UNL1       -0.0822
     20 C           6.1114   -1.3263   18.0122 C.3     1  UNL1        0.4194
     21 F           6.7095   -0.3333   17.0602 F       1  UNL1       -0.1658
     22 F           7.0173   -2.3918   17.4698 F       1  UNL1       -0.1658
     23 F           5.2056   -0.2608   18.5545 F       1  UNL1       -0.1658
     24 C           3.7261   -0.4213   28.1326 C.ar    1  UNL1        0.1486
     25 C           4.0509    1.0431   28.1354 C.ar    1  UNL1        0.0375
     26 C           3.0163    2.0401   28.5664 C.ar    1  UNL1        0.0047
     27 C           1.6569    1.5726   28.9945 C.ar    1  UNL1        0.0208
     28 C           1.3321    0.1081   28.9918 C.ar    1  UNL1        0.1005
     29 N           2.3666   -0.8888   28.5608 N.ar    1  UNL1       -0.2264
@<TRIPOS>BOND
     1     2     1    1
     2     2     3    1
     3     3     4   ar
     4     4     5   ar
     5     5     6   ar
     6     6    24    1
     7    24    25   ar
     8    25    26   ar
     9    26    27   ar
    10    27    28   ar
    11    28    29   ar
    12     6     7   ar
    13     7     8    1
    14     8     9    1
    15     9    10    1
    16    10    11   am
    17    11    12    2
    18    11    13    1
    19    13    14   ar
    20    14    15   ar
    21    15    16   ar
    22    16    17   ar
    23    17    20    1
    24    20    21    1
    25    20    22    1
    26    20    23    1
    27    17    18   ar
    28    18    19    1
    29    10     2    1
    30    18    13   ar
    31     7     3   ar
    32    29    24   ar
@<TRIPOS>MOLECULE
*****
 29 32 0 0 0
SMALL
GASTEIGER

@<TRIPOS>ATOM
      1 C           3.1815    3.3250   22.2593 C.3     1  UNL1        0.0281
      2 C           2.3448    2.8717   21.0997 C.3     1  UNL1        0.1170
      3 C           1.0857    3.6082   20.7500 C.ar    1  UNL1        0.0907
      4 N           0.4209    4.8059   21.3610 N.ar    1  UNL1       -0.2267
      5 C          -0.8266    5.0928   20.5791 C.ar    1  UNL1        0.1834
      6 N          -0.9327    4.0724   19.4847 N.ar    1  UNL1       -0.2768
      7 C           0.2492    3.1548   19.5904 C.ar    1  UNL1        0.0610
      8 C           0.6717    1.9651   18.7804 C.3     1  UNL1        0.0670
      9 C           1.9308    1.2287   19.1302 C.3     1  UNL1        0.1003
     10 N           2.7673    1.6819   20.2897 N.am    1  UNL1       -0.2720
     11 C           4.0265    0.9455   20.6394 C.2     1  UNL1        0.2501
     12 O           4.8631    1.3988   21.7990 O.2     1  UNL1       -0.2699
     13 C           4.4491   -0.2443   19.8295 C.ar    1  UNL1        0.0641
     14 C           5.3458   -0.0622   18.6409 C.ar    1  UNL1        0.0054
     15 C           5.7683   -1.2521   17.8310 C.ar    1  UNL1        0.0001
     16 C           5.2942   -2.6238   18.2097 C.ar    1  UNL1        0.0047
     17 C           4.3974   -2.8058   19.3984 C.ar    1  UNL1        0.0821
     18 C           3.9749   -1.6161   20.2083 C.ar    1  UNL1        0.0659
     19 CL          3.0781   -1.7981   21.3968 Cl      1  UNL1       -0.0822
     20 C           3.9232   -4.1776   19.7770 C.3     1  UNL1        0.4194
     21 F           3.4491   -5.5494   20.1557 F       1  UNL1       -0.1658
     22 F           2.7936   -4.0575   18.7975 F       1  UNL1       -0.1658
     23 F           5.0529   -4.2977   20.7566 F       1  UNL1       -0.1658
     24 C          -2.0284    3.9850   18.4640 C.ar    1  UNL1        0.1486
     25 C          -1.7019    4.0817   17.0032 C.ar    1  UNL1        0.0375
     26 C          -2.7976    3.9943   15.9824 C.ar    1  UNL1        0.0047
     27 C          -4.2196    3.8102   16.4224 C.ar    1  UNL1        0.0208
     28 C          -4.5461    3.7135   17.8834 C.ar    1  UNL1        0.1005
     29 N          -3.4505    3.8009   18.9041 N.ar    1  UNL1       -0.2264
@<TRIPOS>BOND
     1     2     1    1
     2     2     3    1
     3     3     4   ar
     4     4     5   ar
     5     5     6   ar
     6     6    24    1
     7    24    25   ar
     8    25    26   ar
     9    26    27   ar
    10    27    28   ar
    11    28    29   ar
    12     6     7   ar
    13     7     8    1
    14     8     9    1
    15     9    10    1
    16    10    11   am
    17    11    12    2
    18    11    13    1
    19    13    14   ar
    20    14    15   ar
    21    15    16   ar
    22    16    17   ar
    23    17    20    1
    24    20    21    1
    25    20    22    1
    26    20    23    1
    27    17    18   ar
    28    18    19    1
    29    10     2    1
    30    18    13   ar
    31     7     3   ar
    32    29    24   ar
@<TRIPOS>MOLECULE
*****
 29 32 0 0 0
SMALL
GASTEIGER

@<TRIPOS>ATOM
      1 C           6.2976   -2.7832   25.7888 C.3     1  UNL1        0.0281
      2 C           5.1407   -2.0046   25.2360 C.3     1  UNL1        0.1170
      3 C           4.3597   -1.0863   26.1285 C.ar    1  UNL1        0.0907
      4 N           4.4946   -0.7459   27.5831 N.ar    1  UNL1       -0.2267
      5 C           3.4212    0.2430   27.9293 C.ar    1  UNL1        0.1834
      6 N           2.6229    0.5138   26.6886 N.ar    1  UNL1       -0.2768
      7 C           3.2028   -0.3078   25.5757 C.ar    1  UNL1        0.0610
      8 C           2.8271   -0.4475   24.1302 C.3     1  UNL1        0.0670
      9 C           3.6081   -1.3658   23.2377 C.3     1  UNL1        0.1003
     10 N           4.7649   -2.1443   23.7905 N.am    1  UNL1       -0.2720
     11 C           5.5460   -3.0627   22.8979 C.2     1  UNL1        0.2501
     12 O           6.7028   -3.8412   23.4507 O.2     1  UNL1       -0.2699
     13 C           5.1702   -3.2025   21.4525 C.ar    1  UNL1        0.0641
     14 C           4.2146   -4.2773   21.0265 C.ar    1  UNL1        0.0054
     15 C           3.8388   -4.4170   19.5810 C.ar    1  UNL1        0.0001
     16 C           4.4187   -3.4820   18.5616 C.ar    1  UNL1        0.0047
     17 C           5.3743   -2.4070   18.9876 C.ar    1  UNL1        0.0821
     18 C           5.7501   -2.2673   20.4330 C.ar    1  UNL1        0.0659
     19 CL          6.7057   -1.1924   20.8589 Cl      1  UNL1       -0.0822
     20 C           5.9542   -1.4719   17.9681 C.3     1  UNL1        0.4194
     21 F           6.5340   -0.5368   16.9486 F       1  UNL1       -0.1658
     22 F           7.0958   -2.4198   17.7480 F       1  UNL1       -0.1658
     23 F           4.8126   -0.5241   18.1882 F       1  UNL1       -0.1658
     24 C           1.4504    1.4430   26.5800 C.ar    1  UNL1        0.1486
     25 C           0.1751    1.1293   27.3047 C.ar    1  UNL1        0.0375
     26 C          -0.9975    2.0585   27.1962 C.ar    1  UNL1        0.0047
     27 C          -0.8947    3.3014   26.3628 C.ar    1  UNL1        0.0208
     28 C           0.3806    3.6151   25.6380 C.ar    1  UNL1        0.1005
     29 N           1.5531    2.6860   25.7466 N.ar    1  UNL1       -0.2264
@<TRIPOS>BOND
     1     2     1    1
     2     2     3    1
     3     3     4   ar
     4     4     5   ar
     5     5     6   ar
     6     6    24    1
     7    24    25   ar
     8    25    26   ar
     9    26    27   ar
    10    27    28   ar
    11    28    29   ar
    12     6     7   ar
    13     7     8    1
    14     8     9    1
    15     9    10    1
    16    10    11   am
    17    11    12    2
    18    11    13    1
    19    13    14   ar
    20    14    15   ar
    21    15    16   ar
    22    16    17   ar
    23    17    20    1
    24    20    21    1
    25    20    22    1
    26    20    23    1
    27    17    18   ar
    28    18    19    1
    29    10     2    1
    30    18    13   ar
    31     7     3   ar
    32    29    24   ar
@<TRIPOS>MOLECULE
*****
 29 32 0 0 0
SMALL
GASTEIGER

@<TRIPOS>ATOM
      1 C           6.6241    0.1023   26.5065 C.3     1  UNL1        0.0281
      2 C           5.6629   -0.3751   25.4585 C.3     1  UNL1        0.1170
      3 C           6.1498   -1.2349   24.3299 C.ar    1  UNL1        0.0907
      4 N           7.5094   -1.7695   23.9899 N.ar    1  UNL1       -0.2267
      5 C           7.3884   -2.5772   22.7317 C.ar    1  UNL1        0.1834
      6 N           5.9541   -2.5418   22.2942 N.ar    1  UNL1       -0.2768
      7 C           5.1885   -1.7121   23.2820 C.ar    1  UNL1        0.0610
      8 C           3.7404   -1.3296   23.3626 C.3     1  UNL1        0.0670
      9 C           3.2535   -0.4699   24.4911 C.3     1  UNL1        0.1003
     10 N           4.2146    0.0074   25.5390 N.am    1  UNL1       -0.2720
     11 C           3.7277    0.8673   26.6677 C.2     1  UNL1        0.2501
     12 O           4.6889    1.3445   27.7156 O.2     1  UNL1       -0.2699
     13 C           2.2795    1.2498   26.7483 C.ar    1  UNL1        0.0641
     14 C           1.7272    2.2944   25.8243 C.ar    1  UNL1        0.0054
     15 C           0.2789    2.6769   25.9050 C.ar    1  UNL1        0.0001
     16 C          -0.6168    2.0148   26.9094 C.ar    1  UNL1        0.0047
     17 C          -0.0644    0.9701   27.8334 C.ar    1  UNL1        0.0821
     18 C           1.3837    0.5876   27.7528 C.ar    1  UNL1        0.0659
     19 CL          1.9360   -0.4570   28.6768 Cl      1  UNL1       -0.0822
     20 C          -0.9603    0.3080   28.8380 C.3     1  UNL1        0.4194
     21 F          -1.8561   -0.3541   29.8425 F       1  UNL1       -0.1658
     22 F          -1.3186   -0.7408   27.8272 F       1  UNL1       -0.1658
     23 F          -0.6020    1.3567   29.8488 F       1  UNL1       -0.1658
     24 C           5.3852   -3.2174   21.0818 C.ar    1  UNL1        0.1486
     25 C           5.8022   -2.7736   19.7110 C.ar    1  UNL1        0.0375
     26 C           5.2333   -3.4492   18.4985 C.ar    1  UNL1        0.0047
     27 C           4.2474   -4.5684   18.6569 C.ar    1  UNL1        0.0208
     28 C           3.8304   -5.0122   20.0278 C.ar    1  UNL1        0.1005
     29 N           4.3992   -4.3367   21.2402 N.ar    1  UNL1       -0.2264
@<TRIPOS>BOND
     1     2     1    1
     2     2     3    1
     3     3     4   ar
     4     4     5   ar
     5     5     6   ar
     6     6    24    1
     7    24    25   ar
     8    25    26   ar
     9    26    27   ar
    10    27    28   ar
    11    28    29   ar
    12     6     7   ar
    13     7     8    1
    14     8     9    1
    15     9    10    1
    16    10    11   am
    17    11    12    2
    18    11    13    1
    19    13    14   ar
    20    14    15   ar
    21    15    16   ar
    22    16    17   ar
    23    17    20    1
    24    20    21    1
    25    20    22    1
    26    20    23    1
    27    17    18   ar
    28    18    19    1
    29    10     2    1
    30    18    13   ar
    31     7     3   ar
    32    29    24   ar
