@<TRIPOS>MOLECULE
*****
 25 27 0 0 0
SMALL
GASTEIGER

@<TRIPOS>ATOM
      1 C          -8.3483  -19.6230   22.0786 C.ar    1  UNL1        0.0395
      2 C          -8.2090  -19.1230   20.6713 C.ar    1  UNL1        0.0063
      3 C          -6.9654  -19.4234   19.8884 C.ar    1  UNL1        0.0376
      4 C          -5.8611  -20.2238   20.5127 C.ar    1  UNL1        0.1453
      5 C          -6.0004  -20.7238   21.9200 C.ar    1  UNL1        0.0376
      6 C          -7.2440  -20.4234   22.7030 C.ar    1  UNL1        0.0063
      7 N         -11.7506  -18.4218   23.5096 N.ar    1  UNL1       -0.1516
      8 N         -11.2610  -19.2988   24.6237 N.ar    1  UNL1       -0.0451
      9 N          -9.9269  -19.8555   24.2233 N.ar    1  UNL1       -0.1077
     10 C          -9.5920  -19.3225   22.8617 C.ar    1  UNL1        0.2058
     11 N         -10.7191  -18.4365   22.4207 N.ar    1  UNL1       -0.1297
     12 C         -13.1489  -16.3799   22.7189 C.3     1  UNL1        0.0298
     13 C         -13.0445  -17.6633   23.4883 C.3     1  UNL1        0.1427
     14 C         -14.2340  -18.1882   24.2363 C.3     1  UNL1        0.0917
     15 N         -14.1115  -18.5381   25.6897 N.3     1  UNL1       -0.3195
     16 H         -13.4793  -19.3314   25.7963 H       1  UNL1        0.1189
     17 H         -15.0301  -18.7834   26.0589 H       1  UNL1        0.1189
     18 O          -4.6174  -20.5242   19.7297 O.3     1  UNL1       -0.4535
     19 C          -3.4209  -19.6276   19.8493 C.ar    1  UNL1        0.1454
     20 C          -3.0597  -18.7047   18.7234 C.ar    1  UNL1        0.0384
     21 C          -1.8631  -17.8080   18.8431 C.ar    1  UNL1        0.0145
     22 C          -1.0278  -17.8342   20.0887 C.ar    1  UNL1        0.0579
     23 CL          0.1687  -16.9376   20.2083 Cl      1  UNL1       -0.0822
     24 C          -1.3890  -18.7571   21.2146 C.ar    1  UNL1        0.0145
     25 C          -2.5855  -19.6538   21.0950 C.ar    1  UNL1        0.0384
@<TRIPOS>BOND
     1    13    12    1
     2    13    14    1
     3    14    15    1
     4    13     7    1
     5     7     8   ar
     6     8     9   ar
     7     9    10   ar
     8    10     1    1
     9     1     2   ar
    10     2     3   ar
    11     3     4   ar
    12     4    18    1
    13    18    19    1
    14    19    20   ar
    15    20    21   ar
    16    21    22   ar
    17    22    23    1
    18    22    24   ar
    19    24    25   ar
    20     4     5   ar
    21     5     6   ar
    22    10    11   ar
    23    11     7   ar
    24     6     1   ar
    25    25    19   ar
    26    15    16    1
    27    15    17    1
@<TRIPOS>MOLECULE
*****
 25 27 0 0 0
SMALL
GASTEIGER

@<TRIPOS>ATOM
      1 C          -6.4971  -19.0789   20.6024 C.ar    1  UNL1        0.0395
      2 C          -7.3110  -19.7597   19.5423 C.ar    1  UNL1        0.0063
      3 C          -8.8059  -19.6366   19.5498 C.ar    1  UNL1        0.0376
      4 C          -9.4869  -18.8327   20.6175 C.ar    1  UNL1        0.1453
      5 C          -8.6730  -18.1519   21.6776 C.ar    1  UNL1        0.0376
      6 C          -7.1781  -18.2750   21.6701 C.ar    1  UNL1        0.0063
      7 N          -2.6404  -18.6448   20.5475 N.ar    1  UNL1       -0.1516
      8 N          -2.7630  -20.1381   20.6194 N.ar    1  UNL1       -0.0451
      9 N          -4.2226  -20.4824   20.6487 N.ar    1  UNL1       -0.1077
     10 C          -5.0021  -19.2020   20.5950 C.ar    1  UNL1        0.2058
     11 N          -4.0243  -18.0663   20.5324 N.ar    1  UNL1       -0.1297
     12 C          -0.1413  -18.4658   19.8602 C.3     1  UNL1        0.0298
     13 C          -1.3589  -17.8667   20.4992 C.3     1  UNL1        0.1427
     14 C          -1.2950  -16.4894   21.0899 C.3     1  UNL1        0.0917
     15 N          -2.4926  -15.9163   21.7878 N.3     1  UNL1       -0.3195
     16 H          -3.2452  -15.7779   21.1134 H       1  UNL1        0.1189
     17 H          -2.2446  -15.0210   22.2089 H       1  UNL1        0.1189
     18 O         -10.9819  -18.7096   20.6249 O.3     1  UNL1       -0.4535
     19 C         -11.7224  -18.6425   21.9276 C.ar    1  UNL1        0.1454
     20 C         -12.9808  -17.8331   22.0342 C.ar    1  UNL1        0.0384
     21 C         -13.7213  -17.7659   23.3370 C.ar    1  UNL1        0.0145
     22 C         -13.2034  -18.5081   24.5332 C.ar    1  UNL1        0.0579
     23 CL        -13.9439  -18.4410   25.8359 Cl      1  UNL1       -0.0822
     24 C         -11.9450  -19.3175   24.4266 C.ar    1  UNL1        0.0145
     25 C         -11.2045  -19.3847   23.1239 C.ar    1  UNL1        0.0384
@<TRIPOS>BOND
     1    13    12    1
     2    13    14    1
     3    14    15    1
     4    13     7    1
     5     7     8   ar
     6     8     9   ar
     7     9    10   ar
     8    10     1    1
     9     1     2   ar
    10     2     3   ar
    11     3     4   ar
    12     4    18    1
    13    18    19    1
    14    19    20   ar
    15    20    21   ar
    16    21    22   ar
    17    22    23    1
    18    22    24   ar
    19    24    25   ar
    20     4     5   ar
    21     5     6   ar
    22    10    11   ar
    23    11     7   ar
    24     6     1   ar
    25    25    19   ar
    26    15    16    1
    27    15    17    1
@<TRIPOS>MOLECULE
*****
 25 27 0 0 0
SMALL
GASTEIGER

@<TRIPOS>ATOM
      1 C         -13.2896   -1.8657   18.9520 C.ar    1  UNL1        0.0395
      2 C         -13.0883   -0.5107   18.3411 C.ar    1  UNL1        0.0063
      3 C         -14.1520    0.5383   18.4760 C.ar    1  UNL1        0.0376
      4 C         -15.4169    0.2322   19.2219 C.ar    1  UNL1        0.1453
      5 C         -15.6182   -1.1228   19.8328 C.ar    1  UNL1        0.0376
      6 C         -14.5545   -2.1718   19.6978 C.ar    1  UNL1        0.0063
      7 N         -11.1107   -5.0651   18.6656 N.ar    1  UNL1       -0.1516
      8 N         -10.0676   -3.9930   18.5530 N.ar    1  UNL1       -0.0451
      9 N         -10.7569   -2.6641   18.6466 N.ar    1  UNL1       -0.1077
     10 C         -12.2259   -2.9148   18.8170 C.ar    1  UNL1        0.2058
     11 N         -12.4446   -4.3987   18.8288 N.ar    1  UNL1       -0.1297
     12 C          -9.5317   -7.0940   19.0403 C.3     1  UNL1        0.0298
     13 C         -10.8632   -6.5439   18.6226 C.3     1  UNL1        0.1427
     14 C         -11.9473   -7.4727   18.1620 C.3     1  UNL1        0.0917
     15 N         -13.1630   -7.6875   19.0138 N.3     1  UNL1       -0.3195
     16 H         -12.8936   -8.1557   19.8790 H       1  UNL1        0.1189
     17 H         -13.8341   -8.2664   18.5088 H       1  UNL1        0.1189
     18 O         -16.4806    1.2813   19.3569 O.3     1  UNL1       -0.4535
     19 C         -16.5549    2.1185   20.5992 C.ar    1  UNL1        0.1454
     20 C         -17.3035    1.6165   21.7982 C.ar    1  UNL1        0.0384
     21 C         -17.3779    2.4537   23.0407 C.ar    1  UNL1        0.0145
     22 C         -16.7036    3.7929   23.0840 C.ar    1  UNL1        0.0579
     23 CL        -16.7780    4.6301   24.3264 Cl      1  UNL1       -0.0822
     24 C         -15.9551    4.2949   21.8850 C.ar    1  UNL1        0.0145
     25 C         -15.8807    3.4577   20.6427 C.ar    1  UNL1        0.0384
@<TRIPOS>BOND
     1    13    12    1
     2    13    14    1
     3    14    15    1
     4    13     7    1
     5     7     8   ar
     6     8     9   ar
     7     9    10   ar
     8    10     1    1
     9     1     2   ar
    10     2     3   ar
    11     3     4   ar
    12     4    18    1
    13    18    19    1
    14    19    20   ar
    15    20    21   ar
    16    21    22   ar
    17    22    23    1
    18    22    24   ar
    19    24    25   ar
    20     4     5   ar
    21     5     6   ar
    22    10    11   ar
    23    11     7   ar
    24     6     1   ar
    25    25    19   ar
    26    15    16    1
    27    15    17    1
@<TRIPOS>MOLECULE
*****
 25 27 0 0 0
SMALL
GASTEIGER

@<TRIPOS>ATOM
      1 C           2.0313    0.6991   18.9480 C.ar    1  UNL1        0.0395
      2 C           0.8355    0.3817   19.7960 C.ar    1  UNL1        0.0063
      3 C          -0.1316    1.4672   20.1652 C.ar    1  UNL1        0.0376
      4 C           0.0972    2.8702   19.6864 C.ar    1  UNL1        0.1453
      5 C           1.2930    3.1876   18.8383 C.ar    1  UNL1        0.0376
      6 C           2.2600    2.1021   18.4691 C.ar    1  UNL1        0.0063
      7 N           4.3860   -2.3751   18.6822 N.ar    1  UNL1       -0.1516
      8 N           4.5871   -1.7390   17.3387 N.ar    1  UNL1       -0.0451
      9 N           3.7294   -0.5100   17.2748 N.ar    1  UNL1       -0.1077
     10 C           2.9984   -0.3865   18.5787 C.ar    1  UNL1        0.2058
     11 N           3.4041   -1.5392   19.4486 N.ar    1  UNL1       -0.1297
     12 C           4.5284   -4.9683   18.7501 C.3     1  UNL1        0.0298
     13 C           5.0502   -3.6272   19.1732 C.3     1  UNL1        0.1427
     14 C           6.2362   -3.5382   20.0872 C.3     1  UNL1        0.0917
     15 N           6.1743   -4.1447   21.4576 N.3     1  UNL1       -0.3195
     16 H           5.4870   -3.6435   22.0205 H       1  UNL1        0.1189
     17 H           7.0906   -4.0780   21.9007 H       1  UNL1        0.1189
     18 O          -0.8699    3.9558   20.0556 O.3     1  UNL1       -0.4535
     19 C          -2.3286    3.7989   19.7432 C.ar    1  UNL1        0.1454
     20 C          -2.8281    4.0454   18.3505 C.ar    1  UNL1        0.0384
     21 C          -4.2868    3.8885   18.0382 C.ar    1  UNL1        0.0145
     22 C          -5.2460    3.4852   19.1185 C.ar    1  UNL1        0.0579
     23 CL         -6.7047    3.3283   18.8062 Cl      1  UNL1       -0.0822
     24 C          -4.7465    3.2386   20.5113 C.ar    1  UNL1        0.0145
     25 C          -3.2878    3.3955   20.8236 C.ar    1  UNL1        0.0384
@<TRIPOS>BOND
     1    13    12    1
     2    13    14    1
     3    14    15    1
     4    13     7    1
     5     7     8   ar
     6     8     9   ar
     7     9    10   ar
     8    10     1    1
     9     1     2   ar
    10     2     3   ar
    11     3     4   ar
    12     4    18    1
    13    18    19    1
    14    19    20   ar
    15    20    21   ar
    16    21    22   ar
    17    22    23    1
    18    22    24   ar
    19    24    25   ar
    20     4     5   ar
    21     5     6   ar
    22    10    11   ar
    23    11     7   ar
    24     6     1   ar
    25    25    19   ar
    26    15    16    1
    27    15    17    1
@<TRIPOS>MOLECULE
*****
 25 27 0 0 0
SMALL
GASTEIGER

@<TRIPOS>ATOM
      1 C         -15.2718   -0.8437   19.5614 C.ar    1  UNL1        0.0395
      2 C         -14.5806   -0.0178   18.5173 C.ar    1  UNL1        0.0063
      3 C         -13.2657   -0.4687   17.9537 C.ar    1  UNL1        0.0376
      4 C         -12.6420   -1.7455   18.4342 C.ar    1  UNL1        0.1453
      5 C         -13.3333   -2.5714   19.4782 C.ar    1  UNL1        0.0376
      6 C         -14.6481   -2.1205   20.0418 C.ar    1  UNL1        0.0063
      7 N         -18.3009    0.9546   21.1912 N.ar    1  UNL1       -0.1516
      8 N         -18.9196   -0.3528   20.7936 N.ar    1  UNL1       -0.0451
      9 N         -17.8602   -1.1855   20.1348 N.ar    1  UNL1       -0.1077
     10 C         -16.5868   -0.3928   20.1251 C.ar    1  UNL1        0.2058
     11 N         -16.8592    0.9299   20.7780 N.ar    1  UNL1       -0.1297
     12 C         -20.1849    2.7431   21.2335 C.3     1  UNL1        0.0298
     13 C         -19.0011    2.0879   21.8808 C.3     1  UNL1        0.1427
     14 C         -18.5174    2.5658   23.2179 C.3     1  UNL1        0.0917
     15 N         -18.7411    1.7260   24.4404 N.3     1  UNL1       -0.3195
     16 H         -19.7409    1.6648   24.6326 H       1  UNL1        0.1189
     17 H         -18.2672    2.1521   25.2369 H       1  UNL1        0.1189
     18 O         -11.3271   -2.1964   17.8705 O.3     1  UNL1       -0.4535
     19 C         -10.9351   -3.6423   17.9456 C.ar    1  UNL1        0.1454
     20 C         -11.5029   -4.6252   16.9650 C.ar    1  UNL1        0.0384
     21 C         -11.1109   -6.0712   17.0401 C.ar    1  UNL1        0.0145
     22 C         -10.1512   -6.5342   18.0958 C.ar    1  UNL1        0.0579
     23 CL         -9.7592   -7.9801   18.1709 Cl      1  UNL1       -0.0822
     24 C          -9.5834   -5.5513   19.0764 C.ar    1  UNL1        0.0145
     25 C          -9.9754   -4.1054   19.0013 C.ar    1  UNL1        0.0384
@<TRIPOS>BOND
     1    13    12    1
     2    13    14    1
     3    14    15    1
     4    13     7    1
     5     7     8   ar
     6     8     9   ar
     7     9    10   ar
     8    10     1    1
     9     1     2   ar
    10     2     3   ar
    11     3     4   ar
    12     4    18    1
    13    18    19    1
    14    19    20   ar
    15    20    21   ar
    16    21    22   ar
    17    22    23    1
    18    22    24   ar
    19    24    25   ar
    20     4     5   ar
    21     5     6   ar
    22    10    11   ar
    23    11     7   ar
    24     6     1   ar
    25    25    19   ar
    26    15    16    1
    27    15    17    1
@<TRIPOS>MOLECULE
*****
 25 27 0 0 0
SMALL
GASTEIGER

@<TRIPOS>ATOM
      1 C           7.3137   -4.9358   23.7653 C.ar    1  UNL1        0.0395
      2 C           6.6658   -4.2276   24.9180 C.ar    1  UNL1        0.0063
      3 C           6.8104   -4.7706   26.3087 C.ar    1  UNL1        0.0376
      4 C           7.6030   -6.0216   26.5468 C.ar    1  UNL1        0.1453
      5 C           8.2509   -6.7298   25.3942 C.ar    1  UNL1        0.0376
      6 C           8.1062   -6.1869   24.0034 C.ar    1  UNL1        0.0063
      7 N           6.2221   -3.7515   20.2338 N.ar    1  UNL1       -0.1516
      8 N           7.6711   -3.3633   20.2347 N.ar    1  UNL1       -0.0451
      9 N           8.2563   -3.7597   21.5577 N.ar    1  UNL1       -0.1077
     10 C           7.1691   -4.3929   22.3745 C.ar    1  UNL1        0.2058
     11 N           5.9119   -4.3878   21.5562 N.ar    1  UNL1       -0.1297
     12 C           4.0926   -4.4740   18.9325 C.3     1  UNL1        0.0298
     13 C           5.2535   -3.5405   19.1081 C.3     1  UNL1        0.1427
     14 C           5.4458   -2.3959   18.1578 C.3     1  UNL1        0.0917
     15 N           6.7756   -2.1850   17.4969 N.3     1  UNL1       -0.3195
     16 H           7.4707   -1.9400   18.2020 H       1  UNL1        0.1189
     17 H           6.7008   -1.4291   16.8160 H       1  UNL1        0.1189
     18 O           7.7476   -6.5646   27.9377 O.3     1  UNL1       -0.4535
     19 C           7.9198   -5.6260   29.0950 C.ar    1  UNL1        0.1454
     20 C           6.8469   -5.5159   30.1375 C.ar    1  UNL1        0.0384
     21 C           7.0192   -4.5773   31.2949 C.ar    1  UNL1        0.0145
     22 C           8.2644   -3.7489   31.4097 C.ar    1  UNL1        0.0579
     23 CL          8.4366   -2.8104   32.5670 Cl      1  UNL1       -0.0822
     24 C           9.3373   -3.8590   30.3672 C.ar    1  UNL1        0.0145
     25 C           9.1650   -4.7975   29.2099 C.ar    1  UNL1        0.0384
@<TRIPOS>BOND
     1    13    12    1
     2    13    14    1
     3    14    15    1
     4    13     7    1
     5     7     8   ar
     6     8     9   ar
     7     9    10   ar
     8    10     1    1
     9     1     2   ar
    10     2     3   ar
    11     3     4   ar
    12     4    18    1
    13    18    19    1
    14    19    20   ar
    15    20    21   ar
    16    21    22   ar
    17    22    23    1
    18    22    24   ar
    19    24    25   ar
    20     4     5   ar
    21     5     6   ar
    22    10    11   ar
    23    11     7   ar
    24     6     1   ar
    25    25    19   ar
    26    15    16    1
    27    15    17    1
@<TRIPOS>MOLECULE
*****
 25 27 0 0 0
SMALL
GASTEIGER

@<TRIPOS>ATOM
      1 C           5.9265   -3.3892   20.6164 C.ar    1  UNL1        0.0395
      2 C           4.7996   -3.9770   19.8200 C.ar    1  UNL1        0.0063
      3 C           3.9171   -3.0852   18.9980 C.ar    1  UNL1        0.0376
      4 C           4.1616   -1.6054   18.9724 C.ar    1  UNL1        0.1453
      5 C           5.2885   -1.0176   19.7689 C.ar    1  UNL1        0.0376
      6 C           6.1710   -1.9095   20.5909 C.ar    1  UNL1        0.0063
      7 N           7.7285   -5.5372   23.3006 N.ar    1  UNL1       -0.1516
      8 N           8.6058   -5.7699   22.1063 N.ar    1  UNL1       -0.0451
      9 N           8.0375   -4.9936   20.9555 N.ar    1  UNL1       -0.1077
     10 C           6.8090   -4.2811   21.4385 C.ar    1  UNL1        0.2058
     11 N           6.6181   -4.6171   22.8879 N.ar    1  UNL1       -0.1297
     12 C           8.4487   -7.5203   24.8167 C.3     1  UNL1        0.0298
     13 C           7.9268   -6.1220   24.6676 C.3     1  UNL1        0.1427
     14 C           7.6033   -5.3084   25.8856 C.3     1  UNL1        0.0917
     15 N           6.3637   -4.4645   25.9164 N.3     1  UNL1       -0.3195
     16 H           6.4445   -3.7163   25.2279 H       1  UNL1        0.1189
     17 H           6.2505   -4.0604   26.8461 H       1  UNL1        0.1189
     18 O           3.2790   -0.7135   18.1504 O.3     1  UNL1       -0.4535
     19 C           2.2236    0.1180   18.8171 C.ar    1  UNL1        0.1454
     20 C           2.0690    1.5653   18.4546 C.ar    1  UNL1        0.0384
     21 C           1.0135    2.3969   19.1213 C.ar    1  UNL1        0.0145
     22 C           0.1127    1.7811   20.1505 C.ar    1  UNL1        0.0579
     23 CL         -0.9428    2.6127   20.8173 Cl      1  UNL1       -0.0822
     24 C           0.2673    0.3338   20.5131 C.ar    1  UNL1        0.0145
     25 C           1.3227   -0.4977   19.8464 C.ar    1  UNL1        0.0384
@<TRIPOS>BOND
     1    13    12    1
     2    13    14    1
     3    14    15    1
     4    13     7    1
     5     7     8   ar
     6     8     9   ar
     7     9    10   ar
     8    10     1    1
     9     1     2   ar
    10     2     3   ar
    11     3     4   ar
    12     4    18    1
    13    18    19    1
    14    19    20   ar
    15    20    21   ar
    16    21    22   ar
    17    22    23    1
    18    22    24   ar
    19    24    25   ar
    20     4     5   ar
    21     5     6   ar
    22    10    11   ar
    23    11     7   ar
    24     6     1   ar
    25    25    19   ar
    26    15    16    1
    27    15    17    1
@<TRIPOS>MOLECULE
*****
 25 27 0 0 0
SMALL
GASTEIGER

@<TRIPOS>ATOM
      1 C           6.9979   -4.6788   25.7355 C.ar    1  UNL1        0.0395
      2 C           6.2582   -3.6387   24.9476 C.ar    1  UNL1        0.0063
      3 C           6.3787   -3.6037   23.4529 C.ar    1  UNL1        0.0376
      4 C           7.2390   -4.6089   22.7461 C.ar    1  UNL1        0.1453
      5 C           7.9787   -5.6491   23.5340 C.ar    1  UNL1        0.0376
      6 C           7.8581   -5.6841   25.0288 C.ar    1  UNL1        0.0063
      7 N           6.6071   -4.0226   29.5411 N.ar    1  UNL1       -0.1516
      8 N           6.7766   -5.5129   29.5199 N.ar    1  UNL1       -0.0451
      9 N           6.9436   -5.9401   28.0917 N.ar    1  UNL1       -0.1077
     10 C           6.8773   -4.7138   27.2303 C.ar    1  UNL1        0.2058
     11 N           6.6694   -3.5288   28.1261 N.ar    1  UNL1       -0.1297
     12 C           5.8650   -1.7838   30.6306 C.3     1  UNL1        0.0298
     13 C           6.4100   -3.1750   30.7629 C.3     1  UNL1        0.1427
     14 C           6.7579   -3.7186   32.1169 C.3     1  UNL1        0.0917
     15 N           6.3940   -5.1288   32.4752 N.3     1  UNL1       -0.3195
     16 H           5.3786   -5.2194   32.5108 H       1  UNL1        0.1189
     17 H           6.7881   -5.3605   33.3870 H       1  UNL1        0.1189
     18 O           7.3595   -4.5739   21.2513 O.3     1  UNL1       -0.4535
     19 C           6.4491   -3.6952   20.4459 C.ar    1  UNL1        0.1454
     20 C           5.0853   -4.1842   20.0571 C.ar    1  UNL1        0.0384
     21 C           4.1749   -3.3053   19.2516 C.ar    1  UNL1        0.0145
     22 C           4.6282   -1.9376   18.8349 C.ar    1  UNL1        0.0579
     23 CL          3.7178   -1.0588   18.0294 Cl      1  UNL1       -0.0822
     24 C           5.9920   -1.4486   19.2236 C.ar    1  UNL1        0.0145
     25 C           6.9024   -2.3273   20.0290 C.ar    1  UNL1        0.0384
@<TRIPOS>BOND
     1    13    12    1
     2    13    14    1
     3    14    15    1
     4    13     7    1
     5     7     8   ar
     6     8     9   ar
     7     9    10   ar
     8    10     1    1
     9     1     2   ar
    10     2     3   ar
    11     3     4   ar
    12     4    18    1
    13    18    19    1
    14    19    20   ar
    15    20    21   ar
    16    21    22   ar
    17    22    23    1
    18    22    24   ar
    19    24    25   ar
    20     4     5   ar
    21     5     6   ar
    22    10    11   ar
    23    11     7   ar
    24     6     1   ar
    25    25    19   ar
    26    15    16    1
    27    15    17    1
@<TRIPOS>MOLECULE
*****
 25 27 0 0 0
SMALL
GASTEIGER

@<TRIPOS>ATOM
      1 C           6.5511   -3.5251   25.6846 C.ar    1  UNL1        0.0395
      2 C           7.4108   -4.6709   25.2398 C.ar    1  UNL1        0.0063
      3 C           7.4766   -5.0395   23.7873 C.ar    1  UNL1        0.0376
      4 C           6.6827   -4.2621   22.7796 C.ar    1  UNL1        0.1453
      5 C           5.8230   -3.1162   23.2243 C.ar    1  UNL1        0.0376
      6 C           5.7573   -2.7477   24.6768 C.ar    1  UNL1        0.0063
      7 N           6.5313   -3.3005   29.5595 N.ar    1  UNL1       -0.1516
      8 N           6.2367   -1.8780   29.1852 N.ar    1  UNL1       -0.0451
      9 N           6.2083   -1.7891   27.6881 N.ar    1  UNL1       -0.1077
     10 C           6.4853   -3.1565   27.1371 C.ar    1  UNL1        0.2058
     11 N           6.6849   -4.0906   28.2937 N.ar    1  UNL1       -0.1297
     12 C           6.1945   -3.0107   32.1193 C.3     1  UNL1        0.0298
     13 C           6.6511   -3.8383   30.9546 C.3     1  UNL1        0.1427
     14 C           7.2276   -5.2038   31.1850 C.3     1  UNL1        0.0917
     15 N           6.5363   -6.1640   32.1069 N.3     1  UNL1       -0.3195
     16 H           6.5677   -5.8025   33.0602 H       1  UNL1        0.1189
     17 H           7.0065   -7.0685   32.0706 H       1  UNL1        0.1189
     18 O           6.7485   -4.6307   21.3270 O.3     1  UNL1       -0.4535
     19 C           6.0394   -3.7900   20.3070 C.ar    1  UNL1        0.1454
     20 C           6.7772   -2.6974   19.5916 C.ar    1  UNL1        0.0384
     21 C           6.0680   -1.8568   18.5715 C.ar    1  UNL1        0.0145
     22 C           4.6210   -2.1087   18.2671 C.ar    1  UNL1        0.0579
     23 CL          3.9119   -1.2680   17.2471 Cl      1  UNL1       -0.0822
     24 C           3.8832   -3.2012   18.9825 C.ar    1  UNL1        0.0145
     25 C           4.5923   -4.0419   20.0025 C.ar    1  UNL1        0.0384
@<TRIPOS>BOND
     1    13    12    1
     2    13    14    1
     3    14    15    1
     4    13     7    1
     5     7     8   ar
     6     8     9   ar
     7     9    10   ar
     8    10     1    1
     9     1     2   ar
    10     2     3   ar
    11     3     4   ar
    12     4    18    1
    13    18    19    1
    14    19    20   ar
    15    20    21   ar
    16    21    22   ar
    17    22    23    1
    18    22    24   ar
    19    24    25   ar
    20     4     5   ar
    21     5     6   ar
    22    10    11   ar
    23    11     7   ar
    24     6     1   ar
    25    25    19   ar
    26    15    16    1
    27    15    17    1
