@<TRIPOS>MOLECULE
*****
 33 37 0 0 0
SMALL
GASTEIGER

@<TRIPOS>ATOM
      1 N          -8.7833  -18.4922   22.5082 N.ar    1  UNL1       -0.2444
      2 C          -7.4260  -18.8752   21.9974 C.ar    1  UNL1        0.2659
      3 O          -7.2765  -20.0426   21.0674 O.2     1  UNL1       -0.2668
      4 C          -6.2180  -18.0908   22.4165 C.ar    1  UNL1        0.0735
      5 C          -4.8607  -18.4738   21.9057 C.ar    1  UNL1        0.0261
      6 C          -3.6528  -17.6894   22.3249 C.ar    1  UNL1        0.1222
      7 C          -3.8023  -16.5220   23.2549 C.ar    1  UNL1        0.0214
      8 C          -5.1596  -16.1390   23.7657 C.ar    1  UNL1        0.0188
      9 C          -6.3674  -16.9234   23.3465 C.ar    1  UNL1        0.0685
     10 N          -7.7248  -16.5404   23.8574 N.ar    1  UNL1       -0.2810
     11 C          -8.9327  -17.3248   23.4382 C.ar    1  UNL1        0.3340
     12 O         -10.2901  -16.9419   23.9490 O.2     1  UNL1       -0.2462
     13 S          -2.2954  -18.0723   21.8140 S.O2    1  UNL1        0.0601
     14 O          -1.9283  -16.6223   21.7026 O.2     1  UNL1       -0.1530
     15 O          -2.6625  -19.5224   21.9255 O.2     1  UNL1       -0.1530
     16 N          -0.9381  -18.4552   21.3032 N.3     1  UNL1       -0.1820
     17 H          -0.8757  -19.4714   21.3660 H       1  UNL1        0.1487
     18 C          -0.5283  -18.0815   19.9095 C.3     1  UNL1        0.0622
     19 C           0.8771  -17.6238   20.1652 C.3     1  UNL1        0.0175
     20 C          -0.6066  -17.8667   18.4270 C.3     1  UNL1        0.0175
     21 C          -1.7914  -18.4094   19.1699 C.3     1  UNL1        0.0175
     22 C          -9.9912  -19.2766   22.0890 C.3     1  UNL1        0.1434
     23 C         -14.5050  -18.2039   24.6100 C.3     1  UNL1        0.1537
     24 N         -13.4399  -18.2664   23.5556 N.ar    1  UNL1       -0.2476
     25 C         -12.1088  -18.9453   23.6862 C.ar    1  UNL1        0.0943
     26 C         -11.3652  -18.7595   22.3968 C.ar    1  UNL1        0.0403
     27 C         -12.2368  -17.9658   21.4693 C.ar    1  UNL1        0.1193
     28 N         -13.5191  -17.6610   22.1854 N.ar    1  UNL1       -0.1679
     29 C          -7.8743  -15.3731   24.7874 C.3     1  UNL1        0.1155
     30 C          -7.5425  -15.5259   26.2423 C.3     1  UNL1        0.0819
     31 C          -8.2348  -16.1241   27.4309 C.3     1  UNL1        0.1465
     32 O          -7.0732  -15.7421   28.2997 O.3     1  UNL1       -0.3535
     33 C          -6.3809  -15.1439   27.1110 C.3     1  UNL1        0.1465
@<TRIPOS>BOND
     1    23    24    1
     2    24    25   ar
     3    25    26   ar
     4    26    22    1
     5    22     1    1
     6     1     2   ar
     7     2     3    2
     8     2     4   ar
     9     4     5   ar
    10     5     6   ar
    11     6    13    1
    12    13    14    2
    13    13    15    2
    14    13    16    1
    15    16    18    1
    16    18    19    1
    17    18    20    1
    18    20    21    1
    19     6     7   ar
    20     7     8   ar
    21     8     9   ar
    22     9    10   ar
    23    10    29    1
    24    29    30    1
    25    30    31    1
    26    31    32    1
    27    32    33    1
    28    10    11   ar
    29    11    12    2
    30    26    27   ar
    31    27    28   ar
    32    28    24   ar
    33    11     1   ar
    34     9     4   ar
    35    33    30    1
    36    21    18    1
    37    16    17    1
@<TRIPOS>MOLECULE
*****
 33 37 0 0 0
SMALL
GASTEIGER

@<TRIPOS>ATOM
      1 N           4.8862   -0.5042   27.5561 N.ar    1  UNL1       -0.2444
      2 C           4.6437   -0.8808   26.1246 C.ar    1  UNL1        0.2659
      3 O           3.6277   -0.1322   25.3139 O.2     1  UNL1       -0.2668
      4 C           5.4173   -2.0061   25.5037 C.ar    1  UNL1        0.0735
      5 C           5.1747   -2.3827   24.0722 C.ar    1  UNL1        0.0261
      6 C           5.9483   -3.5079   23.4514 C.ar    1  UNL1        0.1222
      7 C           6.9643   -4.2566   24.2621 C.ar    1  UNL1        0.0214
      8 C           7.2068   -3.8799   25.6936 C.ar    1  UNL1        0.0188
      9 C           6.4333   -2.7547   26.3144 C.ar    1  UNL1        0.0685
     10 N           6.6758   -2.3781   27.7460 N.ar    1  UNL1       -0.2810
     11 C           5.9023   -1.2528   28.3668 C.ar    1  UNL1        0.3340
     12 O           6.1448   -0.8762   29.7984 O.2     1  UNL1       -0.2462
     13 S           5.7058   -3.8846   22.0198 S.O2    1  UNL1        0.0601
     14 O           7.1085   -3.4797   21.6757 O.2     1  UNL1       -0.1530
     15 O           4.3031   -4.2895   22.3638 O.2     1  UNL1       -0.1530
     16 N           5.4634   -4.2612   20.5882 N.3     1  UNL1       -0.1820
     17 H           5.2555   -5.2598   20.5776 H       1  UNL1        0.1487
     18 C           4.3754   -3.5842   19.8085 C.3     1  UNL1        0.0622
     19 C           3.6508   -4.7848   19.2761 C.3     1  UNL1        0.0175
     20 C           3.5391   -2.4902   19.2136 C.3     1  UNL1        0.0175
     21 C           4.7223   -2.1485   20.0701 C.3     1  UNL1        0.0175
     22 C           4.1127    0.6211   28.1770 C.3     1  UNL1        0.1434
     23 C          -1.1641    0.7293   28.3347 C.3     1  UNL1        0.1537
     24 N           0.2683    0.4547   28.6853 N.ar    1  UNL1       -0.2476
     25 C           1.4683    0.8965   27.9011 C.ar    1  UNL1        0.0943
     26 C           2.6938    0.4050   28.6129 C.ar    1  UNL1        0.0403
     27 C           2.2512   -0.3406   29.8370 C.ar    1  UNL1        0.1193
     28 N           0.7522   -0.3099   29.8818 N.ar    1  UNL1       -0.1679
     29 C           7.6918   -3.1267   28.5567 C.3     1  UNL1        0.1155
     30 C           7.2645   -4.2810   29.4140 C.3     1  UNL1        0.0819
     31 C           7.0093   -5.7402   29.1780 C.3     1  UNL1        0.1465
     32 O           6.6602   -5.9134   30.6265 O.3     1  UNL1       -0.3535
     33 C           6.9154   -4.4542   30.8625 C.3     1  UNL1        0.1465
@<TRIPOS>BOND
     1    23    24    1
     2    24    25   ar
     3    25    26   ar
     4    26    22    1
     5    22     1    1
     6     1     2   ar
     7     2     3    2
     8     2     4   ar
     9     4     5   ar
    10     5     6   ar
    11     6    13    1
    12    13    14    2
    13    13    15    2
    14    13    16    1
    15    16    18    1
    16    18    19    1
    17    18    20    1
    18    20    21    1
    19     6     7   ar
    20     7     8   ar
    21     8     9   ar
    22     9    10   ar
    23    10    29    1
    24    29    30    1
    25    30    31    1
    26    31    32    1
    27    32    33    1
    28    10    11   ar
    29    11    12    2
    30    26    27   ar
    31    27    28   ar
    32    28    24   ar
    33    11     1   ar
    34     9     4   ar
    35    33    30    1
    36    21    18    1
    37    16    17    1
@<TRIPOS>MOLECULE
*****
 33 37 0 0 0
SMALL
GASTEIGER

@<TRIPOS>ATOM
      1 N           5.4323   -3.3636   22.0481 N.ar    1  UNL1       -0.2444
      2 C           4.5721   -2.4162   22.8307 C.ar    1  UNL1        0.2659
      3 O           3.4687   -1.6653   22.1463 O.2     1  UNL1       -0.2668
      4 C           4.8154   -2.2198   24.2978 C.ar    1  UNL1        0.0735
      5 C           3.9552   -1.2724   25.0804 C.ar    1  UNL1        0.0261
      6 C           4.1984   -1.0760   26.5475 C.ar    1  UNL1        0.1222
      7 C           5.3019   -1.8270   27.2319 C.ar    1  UNL1        0.0214
      8 C           6.1621   -2.7744   26.4493 C.ar    1  UNL1        0.0188
      9 C           5.9188   -2.9708   24.9823 C.ar    1  UNL1        0.0685
     10 N           6.7791   -3.9182   24.1996 N.ar    1  UNL1       -0.2810
     11 C           6.5358   -4.1145   22.7325 C.ar    1  UNL1        0.3340
     12 O           7.3960   -5.0619   21.9498 O.2     1  UNL1       -0.2462
     13 S           3.3382   -0.1286   27.3302 S.O2    1  UNL1        0.0601
     14 O           2.6952   -1.2898   28.0288 O.2     1  UNL1       -0.1530
     15 O           3.9813    1.0325   26.6315 O.2     1  UNL1       -0.1530
     16 N           2.4780    0.8187   28.1128 N.3     1  UNL1       -0.1820
     17 H           2.8311    1.7577   27.9286 H       1  UNL1        0.1487
     18 C           0.9975    0.8584   27.8750 C.3     1  UNL1        0.0622
     19 C           0.9778    1.1578   26.4053 C.3     1  UNL1        0.0175
     20 C          -0.4761    0.7942   28.1475 C.3     1  UNL1        0.0175
     21 C           0.5031    0.5728   29.2620 C.3     1  UNL1        0.0175
     22 C           5.1891   -3.5600   20.5810 C.3     1  UNL1        0.1434
     23 C           8.1127    0.2891   18.4556 C.3     1  UNL1        0.1537
     24 N           7.2117   -0.9008   18.6055 N.ar    1  UNL1       -0.2476
     25 C           6.7512   -1.5003   19.9011 C.ar    1  UNL1        0.0943
     26 C           5.8678   -2.6700   19.5825 C.ar    1  UNL1        0.0403
     27 C           5.7824   -2.7933   18.0900 C.ar    1  UNL1        0.1193
     28 N           6.6129   -1.6999   17.4862 N.ar    1  UNL1       -0.1679
     29 C           7.8825   -4.6691   24.8840 C.3     1  UNL1        0.1155
     30 C           7.6706   -6.0924   25.3077 C.3     1  UNL1        0.0819
     31 C           8.0872   -7.4311   24.7744 C.3     1  UNL1        0.1465
     32 O           7.3709   -8.1051   25.9070 O.3     1  UNL1       -0.3535
     33 C           6.9543   -6.7664   26.4402 C.3     1  UNL1        0.1465
@<TRIPOS>BOND
     1    23    24    1
     2    24    25   ar
     3    25    26   ar
     4    26    22    1
     5    22     1    1
     6     1     2   ar
     7     2     3    2
     8     2     4   ar
     9     4     5   ar
    10     5     6   ar
    11     6    13    1
    12    13    14    2
    13    13    15    2
    14    13    16    1
    15    16    18    1
    16    18    19    1
    17    18    20    1
    18    20    21    1
    19     6     7   ar
    20     7     8   ar
    21     8     9   ar
    22     9    10   ar
    23    10    29    1
    24    29    30    1
    25    30    31    1
    26    31    32    1
    27    32    33    1
    28    10    11   ar
    29    11    12    2
    30    26    27   ar
    31    27    28   ar
    32    28    24   ar
    33    11     1   ar
    34     9     4   ar
    35    33    30    1
    36    21    18    1
    37    16    17    1
@<TRIPOS>MOLECULE
*****
 33 37 0 0 0
SMALL
GASTEIGER

@<TRIPOS>ATOM
      1 N          -8.7758  -18.2688   22.5680 N.ar    1  UNL1       -0.2444
      2 C          -7.4467  -18.6995   22.0221 C.ar    1  UNL1        0.2659
      3 O          -7.3740  -19.8039   21.0097 O.2     1  UNL1       -0.2668
      4 C          -6.1903  -18.0256   22.4885 C.ar    1  UNL1        0.0735
      5 C          -4.8613  -18.4562   21.9425 C.ar    1  UNL1        0.0261
      6 C          -3.6050  -17.7824   22.4089 C.ar    1  UNL1        0.1222
      7 C          -3.6777  -16.6779   23.4213 C.ar    1  UNL1        0.0214
      8 C          -5.0068  -16.2473   23.9672 C.ar    1  UNL1        0.0188
      9 C          -6.2631  -16.9211   23.5008 C.ar    1  UNL1        0.0685
     10 N          -7.5922  -16.4905   24.0468 N.ar    1  UNL1       -0.2810
     11 C          -8.8485  -17.1644   23.5804 C.ar    1  UNL1        0.3340
     12 O         -10.1777  -16.7337   24.1263 O.2     1  UNL1       -0.2462
     13 S          -2.2758  -18.2130   21.8630 S.O2    1  UNL1        0.0601
     14 O          -2.7210  -19.6446   21.9084 O.2     1  UNL1       -0.1530
     15 O          -1.8306  -16.7813   21.8176 O.2     1  UNL1       -0.1530
     16 N          -0.9467  -18.6436   21.3171 N.3     1  UNL1       -0.1820
     17 H          -0.9877  -19.6569   21.2075 H       1  UNL1        0.1487
     18 C          -0.4551  -18.0866   20.0139 C.3     1  UNL1        0.0622
     19 C          -1.6613  -18.3284   19.1558 C.3     1  UNL1        0.0175
     20 C           0.4555  -17.4458   19.0088 C.3     1  UNL1        0.0175
     21 C           0.9219  -17.6516   20.4196 C.3     1  UNL1        0.0175
     22 C         -10.0322  -18.9427   22.1016 C.3     1  UNL1        0.1434
     23 C         -12.5860  -15.5086   19.0089 C.3     1  UNL1        0.1537
     24 N         -12.2976  -16.5571   20.0421 N.ar    1  UNL1       -0.2476
     25 C         -10.9468  -17.1168   20.3770 C.ar    1  UNL1        0.0943
     26 C         -11.1237  -18.1356   21.4637 C.ar    1  UNL1        0.0403
     27 C         -12.5838  -18.2054   21.8004 C.ar    1  UNL1        0.1193
     28 N         -13.3093  -17.2299   20.9218 N.ar    1  UNL1       -0.1679
     29 C          -7.6650  -15.3860   25.0591 C.3     1  UNL1        0.1155
     30 C          -8.1215  -15.6793   26.4576 C.3     1  UNL1        0.0819
     31 C          -8.4299  -14.8497   27.6686 C.3     1  UNL1        0.1465
     32 O          -8.7671  -16.0942   28.4352 O.3     1  UNL1       -0.3535
     33 C          -8.4586  -16.9238   27.2242 C.3     1  UNL1        0.1465
@<TRIPOS>BOND
     1    23    24    1
     2    24    25   ar
     3    25    26   ar
     4    26    22    1
     5    22     1    1
     6     1     2   ar
     7     2     3    2
     8     2     4   ar
     9     4     5   ar
    10     5     6   ar
    11     6    13    1
    12    13    14    2
    13    13    15    2
    14    13    16    1
    15    16    18    1
    16    18    19    1
    17    18    20    1
    18    20    21    1
    19     6     7   ar
    20     7     8   ar
    21     8     9   ar
    22     9    10   ar
    23    10    29    1
    24    29    30    1
    25    30    31    1
    26    31    32    1
    27    32    33    1
    28    10    11   ar
    29    11    12    2
    30    26    27   ar
    31    27    28   ar
    32    28    24   ar
    33    11     1   ar
    34     9     4   ar
    35    33    30    1
    36    21    18    1
    37    16    17    1
@<TRIPOS>MOLECULE
*****
 33 37 0 0 0
SMALL
GASTEIGER

@<TRIPOS>ATOM
      1 N           4.0977    0.1639   30.5139 N.ar    1  UNL1       -0.2444
      2 C           4.9353   -0.7614   29.6819 C.ar    1  UNL1        0.2659
      3 O           5.1133   -0.4980   28.2159 O.2     1  UNL1       -0.2668
      4 C           5.5949   -1.9503   30.3158 C.ar    1  UNL1        0.0735
      5 C           6.4324   -2.8756   29.4838 C.ar    1  UNL1        0.0261
      6 C           7.0919   -4.0643   30.1177 C.ar    1  UNL1        0.1222
      7 C           6.9139   -4.3277   31.5836 C.ar    1  UNL1        0.0214
      8 C           6.0763   -3.4024   32.4156 C.ar    1  UNL1        0.0188
      9 C           5.4168   -2.2137   31.7817 C.ar    1  UNL1        0.0685
     10 N           4.5792   -1.2883   32.6137 N.ar    1  UNL1       -0.2810
     11 C           3.9197   -0.0996   31.9798 C.ar    1  UNL1        0.3340
     12 O           3.0821    0.8258   32.8118 O.2     1  UNL1       -0.2462
     13 S           7.9295   -4.9897   29.2857 S.O2    1  UNL1        0.0601
     14 O           7.3296   -6.1686   29.9930 O.2     1  UNL1       -0.1530
     15 O           8.5294   -3.8108   28.5784 O.2     1  UNL1       -0.1530
     16 N           8.7671   -5.9151   28.4537 N.3     1  UNL1       -0.1820
     17 H           9.3327   -6.4631   29.1019 H       1  UNL1        0.1487
     18 C           8.1087   -6.8897   27.5227 C.3     1  UNL1        0.0622
     19 C           8.8248   -8.1482   27.9142 C.3     1  UNL1        0.0175
     20 C           7.2017   -7.4272   26.4557 C.3     1  UNL1        0.0175
     21 C           7.1640   -5.9695   26.8079 C.3     1  UNL1        0.0175
     22 C           3.4382    1.3527   29.8799 C.3     1  UNL1        0.1434
     23 C          -1.3767   -0.5172   28.7842 C.3     1  UNL1        0.1537
     24 N          -0.1913    0.3956   28.8921 N.ar    1  UNL1       -0.2476
     25 C           1.1349    0.0501   29.5019 C.ar    1  UNL1        0.0943
     26 C           2.0219    1.2551   29.3957 C.ar    1  UNL1        0.0403
     27 C           1.2439    2.3453   28.7203 C.ar    1  UNL1        0.1193
     28 N          -0.1239    1.8141   28.4090 N.ar    1  UNL1       -0.1679
     29 C           4.4011   -1.5518   34.0796 C.3     1  UNL1        0.1155
     30 C           5.1402   -0.7207   35.0862 C.3     1  UNL1        0.0819
     31 C           6.5193   -0.1371   35.1724 C.3     1  UNL1        0.1465
     32 O           6.1853    0.4547   36.5097 O.3     1  UNL1       -0.3535
     33 C           4.8062   -0.1289   36.4234 C.3     1  UNL1        0.1465
@<TRIPOS>BOND
     1    23    24    1
     2    24    25   ar
     3    25    26   ar
     4    26    22    1
     5    22     1    1
     6     1     2   ar
     7     2     3    2
     8     2     4   ar
     9     4     5   ar
    10     5     6   ar
    11     6    13    1
    12    13    14    2
    13    13    15    2
    14    13    16    1
    15    16    18    1
    16    18    19    1
    17    18    20    1
    18    20    21    1
    19     6     7   ar
    20     7     8   ar
    21     8     9   ar
    22     9    10   ar
    23    10    29    1
    24    29    30    1
    25    30    31    1
    26    31    32    1
    27    32    33    1
    28    10    11   ar
    29    11    12    2
    30    26    27   ar
    31    27    28   ar
    32    28    24   ar
    33    11     1   ar
    34     9     4   ar
    35    33    30    1
    36    21    18    1
    37    16    17    1
@<TRIPOS>MOLECULE
*****
 33 37 0 0 0
SMALL
GASTEIGER

@<TRIPOS>ATOM
      1 N           3.7463    1.2778   34.5773 N.ar    1  UNL1       -0.2444
      2 C           2.9124    1.9392   33.5203 C.ar    1  UNL1        0.2659
      3 O           2.3857    3.3265   33.7396 O.2     1  UNL1       -0.2668
      4 C           2.6054    1.2134   32.2440 C.ar    1  UNL1        0.0735
      5 C           1.7715    1.8747   31.1870 C.ar    1  UNL1        0.0261
      6 C           1.4645    1.1489   29.9108 C.ar    1  UNL1        0.1222
      7 C           1.9913   -0.2383   29.6915 C.ar    1  UNL1        0.0214
      8 C           2.8251   -0.8997   30.7485 C.ar    1  UNL1        0.0188
      9 C           3.1321   -0.1739   32.0247 C.ar    1  UNL1        0.0685
     10 N           3.9660   -0.8353   33.0818 N.ar    1  UNL1       -0.2810
     11 C           4.2731   -0.1094   34.3580 C.ar    1  UNL1        0.3340
     12 O           5.1069   -0.7708   35.4151 O.2     1  UNL1       -0.2462
     13 S           0.6306    1.8103   28.8537 S.O2    1  UNL1        0.0601
     14 O           0.6703    0.5534   28.0360 O.2     1  UNL1       -0.1530
     15 O           0.5909    3.0672   29.6714 O.2     1  UNL1       -0.1530
     16 N          -0.2032    2.4716   27.7967 N.3     1  UNL1       -0.1820
     17 H          -0.3942    3.4191   28.1223 H       1  UNL1        0.1487
     18 C           0.3192    2.5922   26.3957 C.3     1  UNL1        0.0622
     19 C           1.6917    3.1290   26.6750 C.3     1  UNL1        0.0175
     20 C           0.3649    2.5264   24.8979 C.3     1  UNL1        0.0175
     21 C          -0.8720    2.0973   25.6301 C.3     1  UNL1        0.0175
     22 C           4.0534    2.0037   35.8536 C.3     1  UNL1        0.1434
     23 C           1.0579    0.6564   39.9879 C.3     1  UNL1        0.1537
     24 N           1.6569    1.4331   38.8530 N.ar    1  UNL1       -0.2476
     25 C           2.7454    0.9578   37.9368 C.ar    1  UNL1        0.0943
     26 C           3.0338    2.0524   36.9527 C.ar    1  UNL1        0.0403
     27 C           2.1236    3.2043   37.2606 C.ar    1  UNL1        0.1193
     28 N           1.2726    2.8216   38.4351 N.ar    1  UNL1       -0.1679
     29 C           4.4928   -2.2225   32.8625 C.3     1  UNL1        0.1155
     30 C           5.7871   -2.4265   32.1322 C.3     1  UNL1        0.0819
     31 C           6.8762   -3.4572   32.1716 C.3     1  UNL1        0.1465
     32 O           7.6173   -2.7150   31.0993 O.3     1  UNL1       -0.3535
     33 C           6.5282   -1.6844   31.0599 C.3     1  UNL1        0.1465
@<TRIPOS>BOND
     1    23    24    1
     2    24    25   ar
     3    25    26   ar
     4    26    22    1
     5    22     1    1
     6     1     2   ar
     7     2     3    2
     8     2     4   ar
     9     4     5   ar
    10     5     6   ar
    11     6    13    1
    12    13    14    2
    13    13    15    2
    14    13    16    1
    15    16    18    1
    16    18    19    1
    17    18    20    1
    18    20    21    1
    19     6     7   ar
    20     7     8   ar
    21     8     9   ar
    22     9    10   ar
    23    10    29    1
    24    29    30    1
    25    30    31    1
    26    31    32    1
    27    32    33    1
    28    10    11   ar
    29    11    12    2
    30    26    27   ar
    31    27    28   ar
    32    28    24   ar
    33    11     1   ar
    34     9     4   ar
    35    33    30    1
    36    21    18    1
    37    16    17    1
@<TRIPOS>MOLECULE
*****
 33 37 0 0 0
SMALL
GASTEIGER

@<TRIPOS>ATOM
      1 N           6.6281   -1.9634   27.2204 N.ar    1  UNL1       -0.2444
      2 C           6.4209   -2.4499   25.8168 C.ar    1  UNL1        0.2659
      3 O           7.3459   -3.4774   25.2349 O.2     1  UNL1       -0.2668
      4 C           5.2886   -1.9090   24.9949 C.ar    1  UNL1        0.0735
      5 C           5.0813   -2.3955   23.5913 C.ar    1  UNL1        0.0261
      6 C           3.9491   -1.8545   22.7695 C.ar    1  UNL1        0.1222
      7 C           3.0241   -0.8271   23.3514 C.ar    1  UNL1        0.0214
      8 C           3.2313   -0.3405   24.7550 C.ar    1  UNL1        0.0188
      9 C           4.3635   -0.8815   25.5768 C.ar    1  UNL1        0.0685
     10 N           4.5708   -0.3949   26.9805 N.ar    1  UNL1       -0.2810
     11 C           5.7030   -0.9359   27.8023 C.ar    1  UNL1        0.3340
     12 O           5.9103   -0.4494   29.2061 O.2     1  UNL1       -0.2462
     13 S           3.7418   -2.3411   21.3658 S.O2    1  UNL1        0.0601
     14 O           4.6127   -3.5290   21.6490 O.2     1  UNL1       -0.1530
     15 O           2.8709   -1.1531   21.0826 O.2     1  UNL1       -0.1530
     16 N           3.5346   -2.8276   19.9621 N.3     1  UNL1       -0.1820
     17 H           2.9291   -2.1483   19.5014 H       1  UNL1        0.1487
     18 C           4.7141   -3.0386   19.0596 C.3     1  UNL1        0.0622
     19 C           4.5370   -4.4923   18.7352 C.3     1  UNL1        0.0175
     20 C           5.9550   -2.7447   18.2698 C.3     1  UNL1        0.0175
     21 C           5.3007   -1.6581   19.0707 C.3     1  UNL1        0.0175
     22 C           7.7604   -2.5043   28.0423 C.3     1  UNL1        0.1434
     23 C           8.8123   -7.6203   28.8171 C.3     1  UNL1        0.1537
     24 N           8.1871   -6.2608   28.9209 N.ar    1  UNL1       -0.2476
     25 C           8.5940   -5.0418   28.1473 C.ar    1  UNL1        0.0943
     26 C           7.7035   -3.9092   28.5647 C.ar    1  UNL1        0.0403
     27 C           6.7463   -4.4282   29.5964 C.ar    1  UNL1        0.1193
     28 N           7.0451   -5.8816   29.8166 N.ar    1  UNL1       -0.1679
     29 C           3.6458    0.6325   27.5624 C.3     1  UNL1        0.1155
     30 C           2.5025    0.2045   28.4342 C.3     1  UNL1        0.0819
     31 C           2.3788   -0.5246   29.7392 C.3     1  UNL1        0.1465
     32 O           0.8857   -0.4007   29.6669 O.3     1  UNL1       -0.3535
     33 C           1.0094    0.3283   28.3618 C.3     1  UNL1        0.1465
@<TRIPOS>BOND
     1    23    24    1
     2    24    25   ar
     3    25    26   ar
     4    26    22    1
     5    22     1    1
     6     1     2   ar
     7     2     3    2
     8     2     4   ar
     9     4     5   ar
    10     5     6   ar
    11     6    13    1
    12    13    14    2
    13    13    15    2
    14    13    16    1
    15    16    18    1
    16    18    19    1
    17    18    20    1
    18    20    21    1
    19     6     7   ar
    20     7     8   ar
    21     8     9   ar
    22     9    10   ar
    23    10    29    1
    24    29    30    1
    25    30    31    1
    26    31    32    1
    27    32    33    1
    28    10    11   ar
    29    11    12    2
    30    26    27   ar
    31    27    28   ar
    32    28    24   ar
    33    11     1   ar
    34     9     4   ar
    35    33    30    1
    36    21    18    1
    37    16    17    1
@<TRIPOS>MOLECULE
*****
 33 37 0 0 0
SMALL
GASTEIGER

@<TRIPOS>ATOM
      1 N           4.4570    2.1279   35.1737 N.ar    1  UNL1       -0.2444
      2 C           5.3502    0.9280   35.0624 C.ar    1  UNL1        0.2659
      3 O           6.0511    0.3993   36.2787 O.2     1  UNL1       -0.2668
      4 C           5.5426    0.2566   33.7349 C.ar    1  UNL1        0.0735
      5 C           6.4358   -0.9433   33.6237 C.ar    1  UNL1        0.0261
      6 C           6.6281   -1.6146   32.2961 C.ar    1  UNL1        0.1222
      7 C           5.9273   -1.0859   31.0798 C.ar    1  UNL1        0.0214
      8 C           5.0341    0.1140   31.1911 C.ar    1  UNL1        0.0188
      9 C           4.8417    0.7852   32.5186 C.ar    1  UNL1        0.0685
     10 N           3.9485    1.9852   32.6299 N.ar    1  UNL1       -0.2810
     11 C           3.7562    2.6565   33.9574 C.ar    1  UNL1        0.3340
     12 O           2.8630    3.8564   34.0687 O.2     1  UNL1       -0.2462
     13 S           7.5213   -2.8145   32.1849 S.O2    1  UNL1        0.0601
     14 O           6.3408   -3.6579   31.8040 O.2     1  UNL1       -0.1530
     15 O           8.7018   -1.9712   32.5657 O.2     1  UNL1       -0.1530
     16 N           8.4145   -4.0145   32.0736 N.3     1  UNL1       -0.1820
     17 H           8.0870   -4.6903   32.7638 H       1  UNL1        0.1487
     18 C           8.5271   -4.7473   30.7696 C.3     1  UNL1        0.0622
     19 C           8.8556   -3.6039   29.8559 C.3     1  UNL1        0.0175
     20 C           8.5256   -5.8771   29.7829 C.3     1  UNL1        0.0175
     21 C           8.2377   -6.1450   31.2305 C.3     1  UNL1        0.0175
     22 C           4.2647    2.7992   36.5012 C.3     1  UNL1        0.1434
     23 C           1.0970    0.0526   39.7110 C.3     1  UNL1        0.1537
     24 N           1.6544    1.1493   38.8527 N.ar    1  UNL1       -0.2476
     25 C           2.9500    1.1061   38.0980 C.ar    1  UNL1        0.0943
     26 C           3.1104    2.4117   37.3774 C.ar    1  UNL1        0.0403
     27 C           1.9140    3.2620   37.6867 C.ar    1  UNL1        0.1193
     28 N           1.0141    2.4817   38.5985 N.ar    1  UNL1       -0.1679
     29 C           3.2477    2.5138   31.4136 C.3     1  UNL1        0.1155
     30 C           1.9008    1.9757   31.0309 C.3     1  UNL1        0.0819
     31 C           1.4102    0.9180   30.0871 C.3     1  UNL1        0.1465
     32 O          -0.0040    1.2148   30.4897 O.3     1  UNL1       -0.3535
     33 C           0.4866    2.2724   31.4334 C.3     1  UNL1        0.1465
@<TRIPOS>BOND
     1    23    24    1
     2    24    25   ar
     3    25    26   ar
     4    26    22    1
     5    22     1    1
     6     1     2   ar
     7     2     3    2
     8     2     4   ar
     9     4     5   ar
    10     5     6   ar
    11     6    13    1
    12    13    14    2
    13    13    15    2
    14    13    16    1
    15    16    18    1
    16    18    19    1
    17    18    20    1
    18    20    21    1
    19     6     7   ar
    20     7     8   ar
    21     8     9   ar
    22     9    10   ar
    23    10    29    1
    24    29    30    1
    25    30    31    1
    26    31    32    1
    27    32    33    1
    28    10    11   ar
    29    11    12    2
    30    26    27   ar
    31    27    28   ar
    32    28    24   ar
    33    11     1   ar
    34     9     4   ar
    35    33    30    1
    36    21    18    1
    37    16    17    1
@<TRIPOS>MOLECULE
*****
 33 37 0 0 0
SMALL
GASTEIGER

@<TRIPOS>ATOM
      1 N           4.0184   -2.0129   21.8504 N.ar    1  UNL1       -0.2444
      2 C           4.8930   -2.9114   22.6737 C.ar    1  UNL1        0.2659
      3 O           5.3959   -4.2019   22.0975 O.2     1  UNL1       -0.2668
      4 C           5.2648   -2.5195   24.0731 C.ar    1  UNL1        0.0735
      5 C           6.1393   -3.4181   24.8963 C.ar    1  UNL1        0.0261
      6 C           6.5110   -3.0261   26.2956 C.ar    1  UNL1        0.1222
      7 C           6.0082   -1.7357   26.8718 C.ar    1  UNL1        0.0214
      8 C           5.1336   -0.8372   26.0485 C.ar    1  UNL1        0.0188
      9 C           4.7619   -1.2291   24.6492 C.ar    1  UNL1        0.0685
     10 N           3.8873   -0.3305   23.8259 N.ar    1  UNL1       -0.2810
     11 C           3.5156   -0.7224   22.4265 C.ar    1  UNL1        0.3340
     12 O           2.6410    0.1761   21.6032 O.2     1  UNL1       -0.2462
     13 S           7.3856   -3.9247   27.1189 S.O2    1  UNL1        0.0601
     14 O           8.2051   -2.7411   27.5401 O.2     1  UNL1       -0.1530
     15 O           6.5661   -5.1083   26.6978 O.2     1  UNL1       -0.1530
     16 N           8.2602   -4.8231   27.9422 N.3     1  UNL1       -0.1820
     17 H           9.0416   -4.2547   28.2689 H       1  UNL1        0.1487
     18 C           7.6981   -5.5193   29.1462 C.3     1  UNL1        0.0622
     19 C           8.2635   -6.8933   28.9402 C.3     1  UNL1        0.0175
     20 C           6.9396   -5.7383   30.4217 C.3     1  UNL1        0.0175
     21 C           6.9375   -4.3870   29.7702 C.3     1  UNL1        0.0175
     22 C           3.6467   -2.4048   20.4510 C.3     1  UNL1        0.1434
     23 C           6.2810    0.3709   16.8129 C.3     1  UNL1        0.1537
     24 N           5.7590   -0.7701   17.6348 N.ar    1  UNL1       -0.2476
     25 C           4.7926   -0.6642   18.7772 C.ar    1  UNL1        0.0943
     26 C           4.5482   -2.0459   19.3071 C.ar    1  UNL1        0.0403
     27 C           5.3635   -3.0059   18.4923 C.ar    1  UNL1        0.1193
     28 N           6.1118   -2.2174   17.4588 N.ar    1  UNL1       -0.1679
     29 C           3.3844    0.9599   24.4020 C.3     1  UNL1        0.1155
     30 C           2.0030    1.0345   24.9819 C.3     1  UNL1        0.0819
     31 C           0.6149    1.0688   24.4146 C.3     1  UNL1        0.1465
     32 O           0.0495    1.1400   25.8021 O.3     1  UNL1       -0.3535
     33 C           1.4377    1.1057   26.3695 C.3     1  UNL1        0.1465
@<TRIPOS>BOND
     1    23    24    1
     2    24    25   ar
     3    25    26   ar
     4    26    22    1
     5    22     1    1
     6     1     2   ar
     7     2     3    2
     8     2     4   ar
     9     4     5   ar
    10     5     6   ar
    11     6    13    1
    12    13    14    2
    13    13    15    2
    14    13    16    1
    15    16    18    1
    16    18    19    1
    17    18    20    1
    18    20    21    1
    19     6     7   ar
    20     7     8   ar
    21     8     9   ar
    22     9    10   ar
    23    10    29    1
    24    29    30    1
    25    30    31    1
    26    31    32    1
    27    32    33    1
    28    10    11   ar
    29    11    12    2
    30    26    27   ar
    31    27    28   ar
    32    28    24   ar
    33    11     1   ar
    34     9     4   ar
    35    33    30    1
    36    21    18    1
    37    16    17    1
