@<TRIPOS>MOLECULE
*****
 35 39 0 0 0
SMALL
GASTEIGER

@<TRIPOS>ATOM
      1 C           7.0572   -1.6623   23.3841 C.2     1  UNL1        0.2488
      2 O           7.2484   -0.6057   22.3367 O.2     1  UNL1       -0.2728
      3 N           7.8196   -1.5867   24.6736 N.am    1  UNL1       -0.2779
      4 C           8.7734   -0.4545   24.9158 C.3     1  UNL1        0.0935
      5 C           9.5358   -0.3789   26.2053 C.3     1  UNL1        0.0219
      6 C           9.3446   -1.4355   27.2527 C.3     1  UNL1        0.0078
      7 C           8.3910   -2.5676   27.0106 C.3     1  UNL1        0.0419
      8 C           7.6284   -2.6433   25.7210 C.3     1  UNL1        0.0953
      9 C           8.1997   -3.6242   28.0580 C.ar    1  UNL1       -0.0209
     10 C           9.2333   -4.6959   28.2397 C.ar    1  UNL1       -0.0042
     11 C           9.0421   -5.7525   29.2871 C.ar    1  UNL1       -0.0003
     12 C           7.8173   -5.7374   30.1528 C.ar    1  UNL1       -0.0000
     13 C           6.7836   -4.6656   29.9712 C.ar    1  UNL1       -0.0003
     14 C           6.9748   -3.6091   28.9238 C.ar    1  UNL1       -0.0042
     15 C           6.1034   -2.7945   23.1419 C.3     1  UNL1        0.1943
     16 C           0.5420    0.3390   20.5922 C.3     1  UNL1        0.0307
     17 C           1.7622   -0.4784   20.8972 C.ar    1  UNL1       -0.0242
     18 C           2.3018   -1.4316   19.8725 C.ar    1  UNL1        0.0160
     19 C           3.5220   -2.2490   20.1775 C.ar    1  UNL1        0.0970
     20 N           4.0616   -3.2023   19.1527 N.ar    1  UNL1       -0.2374
     21 C           5.2818   -4.0196   19.4577 C.ar    1  UNL1        0.1595
     22 C           5.9624   -3.8837   20.7875 C.ar    1  UNL1        0.2806
     23 O           7.1826   -4.7010   21.0925 O.2     1  UNL1       -0.2652
     24 N           5.4228   -2.9304   21.8122 N.ar    1  UNL1       -0.2839
     25 C           4.2026   -2.1131   21.5072 C.ar    1  UNL1        0.0803
     26 C           3.6630   -1.1598   22.5319 C.ar    1  UNL1        0.0142
     27 C           2.4428   -0.3425   22.2269 C.ar    1  UNL1       -0.0243
     28 C           1.9032    0.6108   23.2517 C.3     1  UNL1        0.0307
     29 C           6.6748   -3.7754   25.4789 C.3     1  UNL1        0.0926
     30 N           7.1871   -5.1827   25.3948 N.3     1  UNL1       -0.2670
     31 C           6.6855   -6.2221   26.3530 C.3     1  UNL1        0.1047
     32 C           7.1978   -7.6293   26.2689 C.3     1  UNL1        0.1595
     33 O           8.2118   -7.9972   25.2265 O.3     1  UNL1       -0.3508
     34 C           8.7134   -6.9579   24.2683 C.3     1  UNL1        0.1595
     35 C           8.2011   -5.5506   24.3525 C.3     1  UNL1        0.1047
@<TRIPOS>BOND
     1    16    17    1
     2    17    18   ar
     3    18    19   ar
     4    19    20   ar
     5    20    21   ar
     6    21    22   ar
     7    22    23    2
     8    22    24   ar
     9    24    15    1
    10    15     1    1
    11     1     2    2
    12     1     3   am
    13     3     4    1
    14     4     5    1
    15     5     6    1
    16     6     7    1
    17     7     9    1
    18     9    10   ar
    19    10    11   ar
    20    11    12   ar
    21    12    13   ar
    22    13    14   ar
    23     7     8    1
    24     8    29    1
    25    29    30    1
    26    30    31    1
    27    31    32    1
    28    32    33    1
    29    33    34    1
    30    34    35    1
    31    24    25   ar
    32    25    26   ar
    33    26    27   ar
    34    27    28    1
    35    27    17   ar
    36    25    19   ar
    37     8     3    1
    38    35    30    1
    39    14     9   ar
@<TRIPOS>MOLECULE
*****
 35 39 0 0 0
SMALL
GASTEIGER

@<TRIPOS>ATOM
      1 C           7.3485   -1.5958   23.1537 C.2     1  UNL1        0.2488
      2 O           8.7355   -1.5219   23.7201 O.2     1  UNL1       -0.2728
      3 N           6.6841   -0.3561   22.6326 N.am    1  UNL1       -0.2779
      4 C           7.4068    0.9577   22.6779 C.3     1  UNL1        0.0935
      5 C           6.7424    2.1974   22.1568 C.3     1  UNL1        0.0219
      6 C           5.3554    2.1236   21.5904 C.3     1  UNL1        0.0078
      7 C           4.6327    0.8099   21.5452 C.3     1  UNL1        0.0419
      8 C           5.2971   -0.4299   22.0663 C.3     1  UNL1        0.0953
      9 C           3.2457    0.7360   20.9788 C.ar    1  UNL1       -0.0209
     10 C           3.0423    0.7194   19.4928 C.ar    1  UNL1       -0.0042
     11 C           1.6553    0.6455   18.9264 C.ar    1  UNL1       -0.0003
     12 C           0.4717    0.5882   19.8461 C.ar    1  UNL1       -0.0000
     13 C           0.6751    0.6049   21.3322 C.ar    1  UNL1       -0.0003
     14 C           2.0621    0.6787   21.8986 C.ar    1  UNL1       -0.0042
     15 C           6.6259   -2.9095   23.1084 C.3     1  UNL1        0.1943
     16 C           7.8695   -8.2815   27.2127 C.3     1  UNL1        0.0307
     17 C           7.7494   -7.2555   26.1252 C.ar    1  UNL1       -0.0242
     18 C           8.3925   -7.4971   24.7917 C.ar    1  UNL1        0.0160
     19 C           8.2723   -6.4710   23.7042 C.ar    1  UNL1        0.0970
     20 N           8.9154   -6.7126   22.3707 N.ar    1  UNL1       -0.2374
     21 C           8.7953   -5.6866   21.2832 C.ar    1  UNL1        0.1595
     22 C           8.0321   -4.4188   21.5291 C.ar    1  UNL1        0.2806
     23 O           7.9120   -3.3927   20.4416 O.2     1  UNL1       -0.2652
     24 N           7.3890   -4.1772   22.8626 N.ar    1  UNL1       -0.2839
     25 C           7.5092   -5.2033   23.9501 C.ar    1  UNL1        0.0803
     26 C           6.8661   -4.9617   25.2835 C.ar    1  UNL1        0.0142
     27 C           6.9862   -5.9878   26.3711 C.ar    1  UNL1       -0.0243
     28 C           6.3431   -5.7461   27.7045 C.3     1  UNL1        0.0307
     29 C           4.5745   -1.7436   22.0210 C.3     1  UNL1        0.0926
     30 N           4.6226   -2.5837   20.7792 N.3     1  UNL1       -0.2670
     31 C           5.1987   -2.0198   19.5142 C.3     1  UNL1        0.1047
     32 C           5.2468   -2.8599   18.2724 C.3     1  UNL1        0.1595
     33 O           4.7189   -4.2638   18.2957 O.3     1  UNL1       -0.3508
     34 C           4.1429   -4.8276   19.5608 C.3     1  UNL1        0.1595
     35 C           4.0947   -3.9875   20.8025 C.3     1  UNL1        0.1047
@<TRIPOS>BOND
     1    16    17    1
     2    17    18   ar
     3    18    19   ar
     4    19    20   ar
     5    20    21   ar
     6    21    22   ar
     7    22    23    2
     8    22    24   ar
     9    24    15    1
    10    15     1    1
    11     1     2    2
    12     1     3   am
    13     3     4    1
    14     4     5    1
    15     5     6    1
    16     6     7    1
    17     7     9    1
    18     9    10   ar
    19    10    11   ar
    20    11    12   ar
    21    12    13   ar
    22    13    14   ar
    23     7     8    1
    24     8    29    1
    25    29    30    1
    26    30    31    1
    27    31    32    1
    28    32    33    1
    29    33    34    1
    30    34    35    1
    31    24    25   ar
    32    25    26   ar
    33    26    27   ar
    34    27    28    1
    35    27    17   ar
    36    25    19   ar
    37     8     3    1
    38    35    30    1
    39    14     9   ar
@<TRIPOS>MOLECULE
*****
 35 39 0 0 0
SMALL
GASTEIGER

@<TRIPOS>ATOM
      1 C           0.3693    3.3537   20.4910 C.2     1  UNL1        0.2488
      2 O           1.8630    3.4334   20.3789 O.2     1  UNL1       -0.2728
      3 N          -0.4962    4.1484   19.5587 N.am    1  UNL1       -0.2779
      4 C           0.1319    5.0228   18.5142 C.3     1  UNL1        0.0935
      5 C          -0.7336    5.8175   17.5819 C.3     1  UNL1        0.0219
      6 C          -2.2273    5.7378   17.6939 C.3     1  UNL1        0.0078
      7 C          -2.8554    4.8634   18.7383 C.3     1  UNL1        0.0419
      8 C          -1.9899    4.0687   19.6707 C.3     1  UNL1        0.0953
      9 C          -4.3491    4.7837   18.8504 C.ar    1  UNL1       -0.0209
     10 C          -5.0693    3.5444   18.4084 C.ar    1  UNL1       -0.0042
     11 C          -6.5630    3.4647   18.5204 C.ar    1  UNL1       -0.0003
     12 C          -7.3365    4.6243   19.0746 C.ar    1  UNL1       -0.0000
     13 C          -6.6163    5.8636   19.5167 C.ar    1  UNL1       -0.0003
     14 C          -5.1226    5.9433   19.4046 C.ar    1  UNL1       -0.0042
     15 C          -0.2588    2.4792   21.5355 C.3     1  UNL1        0.1943
     16 C           4.3252   -2.5864   22.2951 C.3     1  UNL1        0.0307
     17 C           3.3785   -1.4279   22.4039 C.ar    1  UNL1       -0.0242
     18 C           3.2290   -0.7015   23.7077 C.ar    1  UNL1        0.0160
     19 C           2.2823    0.4570   23.8165 C.ar    1  UNL1        0.0970
     20 N           2.1328    1.1835   25.1203 N.ar    1  UNL1       -0.2374
     21 C           1.1861    2.3419   25.2292 C.ar    1  UNL1        0.1595
     22 C           0.3889    2.7738   24.0341 C.ar    1  UNL1        0.2806
     23 O          -0.5578    3.9322   24.1430 O.2     1  UNL1       -0.2652
     24 N           0.5384    2.0473   22.7304 N.ar    1  UNL1       -0.2839
     25 C           1.4851    0.8889   22.6216 C.ar    1  UNL1        0.0803
     26 C           1.6346    0.1624   21.3178 C.ar    1  UNL1        0.0142
     27 C           2.5813   -0.9960   21.2090 C.ar    1  UNL1       -0.0243
     28 C           2.7308   -1.7225   19.9051 C.3     1  UNL1        0.0307
     29 C          -2.6180    3.1943   20.7151 C.3     1  UNL1        0.0926
     30 N          -3.5150    3.7956   21.7563 N.3     1  UNL1       -0.2670
     31 C          -4.7932    3.1069   22.1334 C.3     1  UNL1        0.1047
     32 C          -5.6901    3.7082   23.1745 C.3     1  UNL1        0.1595
     33 O          -5.3089    4.9981   23.8385 O.3     1  UNL1       -0.3508
     34 C          -4.0308    5.6867   23.4614 C.3     1  UNL1        0.1595
     35 C          -3.1339    5.0854   22.4203 C.3     1  UNL1        0.1047
@<TRIPOS>BOND
     1    16    17    1
     2    17    18   ar
     3    18    19   ar
     4    19    20   ar
     5    20    21   ar
     6    21    22   ar
     7    22    23    2
     8    22    24   ar
     9    24    15    1
    10    15     1    1
    11     1     2    2
    12     1     3   am
    13     3     4    1
    14     4     5    1
    15     5     6    1
    16     6     7    1
    17     7     9    1
    18     9    10   ar
    19    10    11   ar
    20    11    12   ar
    21    12    13   ar
    22    13    14   ar
    23     7     8    1
    24     8    29    1
    25    29    30    1
    26    30    31    1
    27    31    32    1
    28    32    33    1
    29    33    34    1
    30    34    35    1
    31    24    25   ar
    32    25    26   ar
    33    26    27   ar
    34    27    28    1
    35    27    17   ar
    36    25    19   ar
    37     8     3    1
    38    35    30    1
    39    14     9   ar
@<TRIPOS>MOLECULE
*****
 35 39 0 0 0
SMALL
GASTEIGER

@<TRIPOS>ATOM
      1 C           4.8647    1.2444   25.3182 C.2     1  UNL1        0.2488
      2 O           5.6848    1.5521   24.1005 O.2     1  UNL1       -0.2728
      3 N           4.7914    2.2343   26.4428 N.am    1  UNL1       -0.2779
      4 C           5.5382    3.5319   26.3497 C.3     1  UNL1        0.0935
      5 C           5.4649    4.5217   27.4743 C.3     1  UNL1        0.0219
      6 C           4.6448    4.2141   28.6920 C.3     1  UNL1        0.0078
      7 C           3.8980    2.9165   28.7851 C.3     1  UNL1        0.0419
      8 C           3.9713    1.9266   27.6605 C.3     1  UNL1        0.0953
      9 C           3.0780    2.6088   30.0028 C.ar    1  UNL1       -0.0209
     10 C           3.6165    1.6871   31.0565 C.ar    1  UNL1       -0.0042
     11 C           2.7965    1.3794   32.2742 C.ar    1  UNL1       -0.0003
     12 C           1.4378    1.9935   32.4382 C.ar    1  UNL1       -0.0000
     13 C           0.8992    2.9153   31.3845 C.ar    1  UNL1       -0.0003
     14 C           1.7192    3.2230   30.1668 C.ar    1  UNL1       -0.0042
     15 C           4.1179   -0.0532   25.4112 C.3     1  UNL1        0.1943
     16 C           3.6544   -3.5095   19.4877 C.3     1  UNL1        0.0307
     17 C           3.9334   -2.9641   20.8568 C.ar    1  UNL1       -0.0242
     18 C           4.8649   -3.6932   21.7791 C.ar    1  UNL1        0.0160
     19 C           5.1439   -3.1477   23.1483 C.ar    1  UNL1        0.0970
     20 N           6.0754   -3.8769   24.0707 N.ar    1  UNL1       -0.2374
     21 C           6.3544   -3.3315   25.4398 C.ar    1  UNL1        0.1595
     22 C           5.7019   -2.0568   25.8867 C.ar    1  UNL1        0.2806
     23 O           5.9809   -1.5114   27.2559 O.2     1  UNL1       -0.2652
     24 N           4.7704   -1.3277   24.9644 N.ar    1  UNL1       -0.2839
     25 C           4.4914   -1.8732   23.5952 C.ar    1  UNL1        0.0803
     26 C           3.5599   -1.1441   22.6729 C.ar    1  UNL1        0.0142
     27 C           3.2809   -1.6895   21.3037 C.ar    1  UNL1       -0.0243
     28 C           2.3494   -0.9604   20.3814 C.3     1  UNL1        0.0307
     29 C           3.2246    0.6291   27.7536 C.3     1  UNL1        0.0926
     30 N           1.7277    0.6304   27.8502 N.3     1  UNL1       -0.2670
     31 C           1.0410   -0.2321   28.8674 C.3     1  UNL1        0.1047
     32 C          -0.4559   -0.2307   28.9640 C.3     1  UNL1        0.1595
     33 O          -1.2661    0.6332   28.0435 O.3     1  UNL1       -0.3508
     34 C          -0.5794    1.4957   27.0264 C.3     1  UNL1        0.1595
     35 C           0.9175    1.4943   26.9297 C.3     1  UNL1        0.1047
@<TRIPOS>BOND
     1    16    17    1
     2    17    18   ar
     3    18    19   ar
     4    19    20   ar
     5    20    21   ar
     6    21    22   ar
     7    22    23    2
     8    22    24   ar
     9    24    15    1
    10    15     1    1
    11     1     2    2
    12     1     3   am
    13     3     4    1
    14     4     5    1
    15     5     6    1
    16     6     7    1
    17     7     9    1
    18     9    10   ar
    19    10    11   ar
    20    11    12   ar
    21    12    13   ar
    22    13    14   ar
    23     7     8    1
    24     8    29    1
    25    29    30    1
    26    30    31    1
    27    31    32    1
    28    32    33    1
    29    33    34    1
    30    34    35    1
    31    24    25   ar
    32    25    26   ar
    33    26    27   ar
    34    27    28    1
    35    27    17   ar
    36    25    19   ar
    37     8     3    1
    38    35    30    1
    39    14     9   ar
@<TRIPOS>MOLECULE
*****
 35 39 0 0 0
SMALL
GASTEIGER

@<TRIPOS>ATOM
      1 C           4.6742   -1.2401   26.8325 C.2     1  UNL1        0.2488
      2 O           3.9255   -1.3785   25.5401 O.2     1  UNL1       -0.2728
      3 N           3.9367   -0.9018   28.0940 N.am    1  UNL1       -0.2779
      4 C           2.4503   -0.7020   28.0632 C.3     1  UNL1        0.0935
      5 C           1.7127   -0.3638   29.3248 C.3     1  UNL1        0.0219
      6 C           2.4614   -0.2253   30.6171 C.3     1  UNL1        0.0078
      7 C           3.9477   -0.4250   30.6480 C.3     1  UNL1        0.0419
      8 C           4.6854   -0.7633   29.3864 C.3     1  UNL1        0.0953
      9 C           4.6964   -0.2866   31.9404 C.ar    1  UNL1       -0.0209
     10 C           5.5548    0.9191   32.1844 C.ar    1  UNL1       -0.0042
     11 C           6.3035    1.0576   33.4768 C.ar    1  UNL1       -0.0003
     12 C           6.1939   -0.0096   34.5251 C.ar    1  UNL1       -0.0000
     13 C           5.3354   -1.2153   34.2812 C.ar    1  UNL1       -0.0003
     14 C           4.5867   -1.3538   32.9888 C.ar    1  UNL1       -0.0042
     15 C           6.1606   -1.4398   26.8633 C.3     1  UNL1        0.1943
     16 C           8.3398   -7.3500   24.1118 C.3     1  UNL1        0.0307
     17 C           7.9816   -5.9412   24.4817 C.ar    1  UNL1       -0.0242
     18 C           8.3697   -4.8072   23.5799 C.ar    1  UNL1        0.0160
     19 C           8.0114   -3.3983   23.9498 C.ar    1  UNL1        0.0970
     20 N           8.3996   -2.2643   23.0479 N.ar    1  UNL1       -0.2374
     21 C           8.0414   -0.8554   23.4179 C.ar    1  UNL1        0.1595
     22 C           7.2950   -0.5806   24.6897 C.ar    1  UNL1        0.2806
     23 O           6.9368    0.8282   25.0596 O.2     1  UNL1       -0.2652
     24 N           6.9069   -1.7147   25.5915 N.ar    1  UNL1       -0.2839
     25 C           7.2651   -3.1235   25.2216 C.ar    1  UNL1        0.0803
     26 C           6.8770   -4.2575   26.1234 C.ar    1  UNL1        0.0142
     27 C           7.2353   -5.6664   25.7535 C.ar    1  UNL1       -0.0243
     28 C           6.8471   -6.8004   26.6554 C.3     1  UNL1        0.0307
     29 C           6.1717   -0.9631   29.4173 C.3     1  UNL1        0.0926
     30 N           6.7548   -2.1453   30.1330 N.3     1  UNL1       -0.2670
     31 C           6.3403   -3.5345   29.7478 C.3     1  UNL1        0.1047
     32 C           6.9235   -4.7168   30.4635 C.3     1  UNL1        0.1595
     33 O           7.9212   -4.5098   31.5644 O.3     1  UNL1       -0.3508
     34 C           8.3356   -3.1206   31.9495 C.3     1  UNL1        0.1595
     35 C           7.7524   -1.9384   31.2338 C.3     1  UNL1        0.1047
@<TRIPOS>BOND
     1    16    17    1
     2    17    18   ar
     3    18    19   ar
     4    19    20   ar
     5    20    21   ar
     6    21    22   ar
     7    22    23    2
     8    22    24   ar
     9    24    15    1
    10    15     1    1
    11     1     2    2
    12     1     3   am
    13     3     4    1
    14     4     5    1
    15     5     6    1
    16     6     7    1
    17     7     9    1
    18     9    10   ar
    19    10    11   ar
    20    11    12   ar
    21    12    13   ar
    22    13    14   ar
    23     7     8    1
    24     8    29    1
    25    29    30    1
    26    30    31    1
    27    31    32    1
    28    32    33    1
    29    33    34    1
    30    34    35    1
    31    24    25   ar
    32    25    26   ar
    33    26    27   ar
    34    27    28    1
    35    27    17   ar
    36    25    19   ar
    37     8     3    1
    38    35    30    1
    39    14     9   ar
@<TRIPOS>MOLECULE
*****
 35 39 0 0 0
SMALL
GASTEIGER

@<TRIPOS>ATOM
      1 C           2.8523    2.5463   24.3393 C.2     1  UNL1        0.2488
      2 O           4.2618    2.7417   23.8648 O.2     1  UNL1       -0.2728
      3 N           1.8530    3.6560   24.1989 N.am    1  UNL1       -0.2779
      4 C           2.2632    4.9614   23.5840 C.3     1  UNL1        0.0935
      5 C           1.2639    6.0711   23.4437 C.3     1  UNL1        0.0219
      6 C          -0.1456    5.8757   23.9182 C.3     1  UNL1        0.0078
      7 C          -0.5558    4.5705   24.5330 C.3     1  UNL1        0.0419
      8 C           0.4435    3.4606   24.6734 C.3     1  UNL1        0.0953
      9 C          -1.9653    4.3750   25.0075 C.ar    1  UNL1       -0.0209
     10 C          -2.9795    3.7392   24.1037 C.ar    1  UNL1       -0.0042
     11 C          -4.3890    3.5437   24.5782 C.ar    1  UNL1       -0.0003
     12 C          -4.7842    3.9841   25.9566 C.ar    1  UNL1       -0.0000
     13 C          -3.7700    4.6200   26.8605 C.ar    1  UNL1       -0.0003
     14 C          -2.3605    4.8154   26.3860 C.ar    1  UNL1       -0.0042
     15 C           2.4422    1.2410   24.9542 C.3     1  UNL1        0.1943
     16 C           3.6109   -2.9743   19.6518 C.3     1  UNL1        0.0307
     17 C           3.5416   -2.2205   20.9467 C.ar    1  UNL1       -0.0242
     18 C           4.3642   -2.6665   22.1191 C.ar    1  UNL1        0.0160
     19 C           4.2949   -1.9126   23.4140 C.ar    1  UNL1        0.0970
     20 N           5.1175   -2.3587   24.5864 N.ar    1  UNL1       -0.2374
     21 C           5.0483   -1.6048   25.8814 C.ar    1  UNL1        0.1595
     22 C           4.1564   -0.4049   26.0040 C.ar    1  UNL1        0.2806
     23 O           4.0872    0.3490   27.2989 O.2     1  UNL1       -0.2652
     24 N           3.3339    0.0411   24.8316 N.ar    1  UNL1       -0.2839
     25 C           3.4032   -0.7127   23.5366 C.ar    1  UNL1        0.0803
     26 C           2.5806   -0.2668   22.3643 C.ar    1  UNL1        0.0142
     27 C           2.6499   -1.0206   21.0693 C.ar    1  UNL1       -0.0243
     28 C           1.8273   -0.5746   19.8969 C.3     1  UNL1        0.0307
     29 C           0.0333    2.1554   25.2883 C.3     1  UNL1        0.0926
     30 N           0.0471    1.9915   26.7792 N.3     1  UNL1       -0.2670
     31 C           0.6650    3.0497   27.6444 C.3     1  UNL1        0.1047
     32 C           0.6787    2.8858   29.1354 C.3     1  UNL1        0.1595
     33 O           0.0745    1.6637   29.7612 O.3     1  UNL1       -0.3508
     34 C          -0.5433    0.6056   28.8960 C.3     1  UNL1        0.1595
     35 C          -0.5571    0.7695   27.4050 C.3     1  UNL1        0.1047
@<TRIPOS>BOND
     1    16    17    1
     2    17    18   ar
     3    18    19   ar
     4    19    20   ar
     5    20    21   ar
     6    21    22   ar
     7    22    23    2
     8    22    24   ar
     9    24    15    1
    10    15     1    1
    11     1     2    2
    12     1     3   am
    13     3     4    1
    14     4     5    1
    15     5     6    1
    16     6     7    1
    17     7     9    1
    18     9    10   ar
    19    10    11   ar
    20    11    12   ar
    21    12    13   ar
    22    13    14   ar
    23     7     8    1
    24     8    29    1
    25    29    30    1
    26    30    31    1
    27    31    32    1
    28    32    33    1
    29    33    34    1
    30    34    35    1
    31    24    25   ar
    32    25    26   ar
    33    26    27   ar
    34    27    28    1
    35    27    17   ar
    36    25    19   ar
    37     8     3    1
    38    35    30    1
    39    14     9   ar
@<TRIPOS>MOLECULE
*****
 35 39 0 0 0
SMALL
GASTEIGER

@<TRIPOS>ATOM
      1 C           1.3837    1.2006   22.8870 C.2     1  UNL1        0.2488
      2 O           0.1544    1.0933   22.0342 O.2     1  UNL1       -0.2728
      3 N           1.2564    1.2821   24.3794 N.am    1  UNL1       -0.2779
      4 C          -0.1002    1.2561   25.0190 C.3     1  UNL1        0.0935
      5 C          -0.2275    1.3375   26.5113 C.3     1  UNL1        0.0219
      6 C           1.0018    1.4449   27.3641 C.3     1  UNL1        0.0078
      7 C           2.3583    1.4708   26.7246 C.3     1  UNL1        0.0419
      8 C           2.4857    1.3894   25.2322 C.3     1  UNL1        0.0953
      9 C           3.5876    1.5782   27.5775 C.ar    1  UNL1       -0.0209
     10 C           4.2575    2.9073   27.7637 C.ar    1  UNL1       -0.0042
     11 C           5.4868    3.0147   28.6165 C.ar    1  UNL1       -0.0003
     12 C           6.0462    1.7930   29.2832 C.ar    1  UNL1       -0.0000
     13 C           5.3763    0.4638   29.0970 C.ar    1  UNL1       -0.0003
     14 C           4.1470    0.3564   28.2442 C.ar    1  UNL1       -0.0042
     15 C           2.7403    1.2266   22.2475 C.3     1  UNL1        0.1943
     16 C           4.6477   -4.5134   18.9819 C.3     1  UNL1        0.0307
     17 C           4.2071   -3.1522   19.4324 C.ar    1  UNL1       -0.0242
     18 C           3.9115   -2.0862   18.4195 C.ar    1  UNL1        0.0160
     19 C           3.4709   -0.7249   18.8700 C.ar    1  UNL1        0.0970
     20 N           3.1753    0.3411   17.8570 N.ar    1  UNL1       -0.2374
     21 C           2.7347    1.7023   18.3075 C.ar    1  UNL1        0.1595
     22 C           2.5897    1.9975   19.7710 C.ar    1  UNL1        0.2806
     23 O           2.1491    3.3587   20.2216 O.2     1  UNL1       -0.2652
     24 N           2.8853    0.9314   20.7840 N.ar    1  UNL1       -0.2839
     25 C           3.3259   -0.4298   20.3335 C.ar    1  UNL1        0.0803
     26 C           3.6215   -1.4958   21.3464 C.ar    1  UNL1        0.0142
     27 C           4.0621   -2.8570   20.8959 C.ar    1  UNL1       -0.0243
     28 C           4.3578   -3.9231   21.9090 C.3     1  UNL1        0.0307
     29 C           3.8423    1.4154   24.5927 C.3     1  UNL1        0.0926
     30 N           4.8127    0.3002   24.8469 N.3     1  UNL1       -0.2670
     31 C           6.2533    0.6093   25.1285 C.3     1  UNL1        0.1047
     32 C           7.2238   -0.5059   25.3827 C.3     1  UNL1        0.1595
     33 O           6.7537   -1.9301   25.3553 O.3     1  UNL1       -0.3508
     34 C           5.3131   -2.2391   25.0737 C.3     1  UNL1        0.1595
     35 C           4.3426   -1.1239   24.8196 C.3     1  UNL1        0.1047
@<TRIPOS>BOND
     1    16    17    1
     2    17    18   ar
     3    18    19   ar
     4    19    20   ar
     5    20    21   ar
     6    21    22   ar
     7    22    23    2
     8    22    24   ar
     9    24    15    1
    10    15     1    1
    11     1     2    2
    12     1     3   am
    13     3     4    1
    14     4     5    1
    15     5     6    1
    16     6     7    1
    17     7     9    1
    18     9    10   ar
    19    10    11   ar
    20    11    12   ar
    21    12    13   ar
    22    13    14   ar
    23     7     8    1
    24     8    29    1
    25    29    30    1
    26    30    31    1
    27    31    32    1
    28    32    33    1
    29    33    34    1
    30    34    35    1
    31    24    25   ar
    32    25    26   ar
    33    26    27   ar
    34    27    28    1
    35    27    17   ar
    36    25    19   ar
    37     8     3    1
    38    35    30    1
    39    14     9   ar
@<TRIPOS>MOLECULE
*****
 35 39 0 0 0
SMALL
GASTEIGER

@<TRIPOS>ATOM
      1 C           3.2217    1.9840   23.6042 C.2     1  UNL1        0.2488
      2 O           3.0066    3.4032   24.0397 O.2     1  UNL1       -0.2728
      3 N           3.5480    1.6802   22.1721 N.am    1  UNL1       -0.2779
      4 C           3.6591    2.7956   21.1752 C.3     1  UNL1        0.0935
      5 C           3.9853    2.4917   19.7430 C.3     1  UNL1        0.0219
      6 C           4.2005    1.0725   19.3076 C.3     1  UNL1        0.0078
      7 C           4.0894   -0.0428   20.3044 C.3     1  UNL1        0.0419
      8 C           3.7631    0.2610   21.7366 C.3     1  UNL1        0.0953
      9 C           4.3045   -1.4620   19.8689 C.ar    1  UNL1       -0.0209
     10 C           5.6973   -1.9855   19.6795 C.ar    1  UNL1       -0.0042
     11 C           5.9125   -3.4047   19.2441 C.ar    1  UNL1       -0.0003
     12 C           4.7348   -4.3004   18.9981 C.ar    1  UNL1       -0.0000
     13 C           3.3418   -3.7770   19.1876 C.ar    1  UNL1       -0.0003
     14 C           3.1267   -2.3578   19.6230 C.ar    1  UNL1       -0.0042
     15 C           3.1106    0.8686   24.6011 C.3     1  UNL1        0.1943
     16 C           3.1893   -0.6022   31.3153 C.3     1  UNL1        0.0307
     17 C           2.8950   -0.2311   29.8920 C.ar    1  UNL1       -0.0242
     18 C           1.5020    0.1534   29.4899 C.ar    1  UNL1        0.0160
     19 C           1.2077    0.5244   28.0667 C.ar    1  UNL1        0.0970
     20 N          -0.1854    0.9090   27.6646 N.ar    1  UNL1       -0.2374
     21 C          -0.4797    1.2800   26.2413 C.ar    1  UNL1        0.1595
     22 C           0.6190    1.2666   25.2201 C.ar    1  UNL1        0.2806
     23 O           0.3246    1.6376   23.7969 O.2     1  UNL1       -0.2652
     24 N           2.0120    0.8821   25.6222 N.ar    1  UNL1       -0.2839
     25 C           2.3063    0.5110   27.0455 C.ar    1  UNL1        0.0803
     26 C           3.6993    0.1265   27.4476 C.ar    1  UNL1        0.0142
     27 C           3.9936   -0.2446   28.8709 C.ar    1  UNL1       -0.0243
     28 C           5.3867   -0.6291   29.2730 C.3     1  UNL1        0.0307
     29 C           3.6520   -0.8544   22.7334 C.3     1  UNL1        0.0926
     30 N           4.8724   -1.6323   23.1276 N.3     1  UNL1       -0.2670
     31 C           6.1405   -0.9116   23.4778 C.3     1  UNL1        0.1047
     32 C           7.3609   -1.6895   23.8720 C.3     1  UNL1        0.1595
     33 O           7.3132   -3.1882   23.9160 O.3     1  UNL1       -0.3508
     34 C           6.0452   -3.9088   23.5659 C.3     1  UNL1        0.1595
     35 C           4.8248   -3.1309   23.1717 C.3     1  UNL1        0.1047
@<TRIPOS>BOND
     1    16    17    1
     2    17    18   ar
     3    18    19   ar
     4    19    20   ar
     5    20    21   ar
     6    21    22   ar
     7    22    23    2
     8    22    24   ar
     9    24    15    1
    10    15     1    1
    11     1     2    2
    12     1     3   am
    13     3     4    1
    14     4     5    1
    15     5     6    1
    16     6     7    1
    17     7     9    1
    18     9    10   ar
    19    10    11   ar
    20    11    12   ar
    21    12    13   ar
    22    13    14   ar
    23     7     8    1
    24     8    29    1
    25    29    30    1
    26    30    31    1
    27    31    32    1
    28    32    33    1
    29    33    34    1
    30    34    35    1
    31    24    25   ar
    32    25    26   ar
    33    26    27   ar
    34    27    28    1
    35    27    17   ar
    36    25    19   ar
    37     8     3    1
    38    35    30    1
    39    14     9   ar
@<TRIPOS>MOLECULE
*****
 35 39 0 0 0
SMALL
GASTEIGER

@<TRIPOS>ATOM
      1 C           0.2717    3.5539   19.3738 C.2     1  UNL1        0.2488
      2 O           1.7354    3.6726   19.0681 O.2     1  UNL1       -0.2728
      3 N          -0.6860    4.5933   18.8716 N.am    1  UNL1       -0.2779
      4 C          -0.1801    5.7515   18.0636 C.3     1  UNL1        0.0935
      5 C          -1.1379    6.7909   17.5614 C.3     1  UNL1        0.0219
      6 C          -2.6016    6.6722   17.8671 C.3     1  UNL1        0.0078
      7 C          -3.1076    5.5141   18.6750 C.3     1  UNL1        0.0419
      8 C          -2.1498    4.4746   19.1773 C.3     1  UNL1        0.0953
      9 C          -4.5713    5.3954   18.9807 C.ar    1  UNL1       -0.0209
     10 C          -5.1870    6.2534   20.0459 C.ar    1  UNL1       -0.0042
     11 C          -6.6507    6.1347   20.3516 C.ar    1  UNL1       -0.0003
     12 C          -7.4987    5.1580   19.5921 C.ar    1  UNL1       -0.0000
     13 C          -6.8830    4.2999   18.5269 C.ar    1  UNL1       -0.0003
     14 C          -5.4193    4.4186   18.2212 C.ar    1  UNL1       -0.0042
     15 C          -0.2342    2.3958   20.1818 C.3     1  UNL1        0.1943
     16 C           2.3241    0.8136   26.3626 C.3     1  UNL1        0.0307
     17 C           1.9201    0.9373   24.9233 C.ar    1  UNL1       -0.0242
     18 C           2.4584   -0.0265   23.9077 C.ar    1  UNL1        0.0160
     19 C           2.0544    0.0972   22.4685 C.ar    1  UNL1        0.0970
     20 N           2.5928   -0.8666   21.4529 N.ar    1  UNL1       -0.2374
     21 C           2.1888   -0.7429   20.0136 C.ar    1  UNL1        0.1595
     22 C           1.2464    0.3446   19.5899 C.ar    1  UNL1        0.2806
     23 O           0.8424    0.4683   18.1507 O.2     1  UNL1       -0.2652
     24 N           0.7081    1.3083   20.6055 N.ar    1  UNL1       -0.2839
     25 C           1.1121    1.1846   22.0448 C.ar    1  UNL1        0.0803
     26 C           0.5738    2.1484   23.0604 C.ar    1  UNL1        0.0142
     27 C           0.9778    2.0247   24.4996 C.ar    1  UNL1       -0.0243
     28 C           0.4395    2.9885   25.5152 C.3     1  UNL1        0.0307
     29 C          -2.6557    3.3165   19.9852 C.3     1  UNL1        0.0926
     30 N          -3.2475    3.5512   21.3435 N.3     1  UNL1       -0.2670
     31 C          -4.6089    3.0135   21.6714 C.3     1  UNL1        0.1047
     32 C          -5.2007    3.2482   23.0297 C.3     1  UNL1        0.1595
     33 O          -4.4310    4.0204   24.0599 O.3     1  UNL1       -0.3508
     34 C          -3.0696    4.5580   23.7319 C.3     1  UNL1        0.1595
     35 C          -2.4779    4.3234   22.3737 C.3     1  UNL1        0.1047
@<TRIPOS>BOND
     1    16    17    1
     2    17    18   ar
     3    18    19   ar
     4    19    20   ar
     5    20    21   ar
     6    21    22   ar
     7    22    23    2
     8    22    24   ar
     9    24    15    1
    10    15     1    1
    11     1     2    2
    12     1     3   am
    13     3     4    1
    14     4     5    1
    15     5     6    1
    16     6     7    1
    17     7     9    1
    18     9    10   ar
    19    10    11   ar
    20    11    12   ar
    21    12    13   ar
    22    13    14   ar
    23     7     8    1
    24     8    29    1
    25    29    30    1
    26    30    31    1
    27    31    32    1
    28    32    33    1
    29    33    34    1
    30    34    35    1
    31    24    25   ar
    32    25    26   ar
    33    26    27   ar
    34    27    28    1
    35    27    17   ar
    36    25    19   ar
    37     8     3    1
    38    35    30    1
    39    14     9   ar
