@<TRIPOS>MOLECULE
*****
 40 42 0 0 0
SMALL
GASTEIGER

@<TRIPOS>ATOM
      1 C           7.5364   -2.9690   29.1747 C.3     1  UNL1        0.0577
      2 C           6.8540   -3.9986   30.0257 C.3     1  UNL1        0.0177
      3 C           6.7797   -5.4238   29.5639 C.3     1  UNL1        0.0210
      4 C           7.3877   -5.8194   28.2510 C.3     1  UNL1        0.0734
      5 C           8.0701   -4.7898   27.4000 C.3     1  UNL1        0.0433
      6 C           8.1444   -3.3646   27.8618 C.3     1  UNL1        0.0194
      7 N           7.3134   -7.2446   27.7891 N.am    1  UNL1       -0.3045
      8 C           8.2907   -8.2547   28.3129 C.2     1  UNL1        0.2425
      9 O           9.3424   -7.8397   29.2987 O.2     1  UNL1       -0.2733
     10 H           6.6231   -7.5170   27.1421 H       1  UNL1        0.1494
     11 C           8.2163   -9.6799   27.8510 C.3     1  UNL1        0.1759
     12 N           6.8820  -10.3410   27.6700 N.am    1  UNL1       -0.2931
     13 C           6.7079  -11.7882   28.0236 C.2     1  UNL1        0.2462
     14 O           7.8682  -12.5744   28.5584 O.2     1  UNL1       -0.2701
     15 H           6.1206   -9.8249   27.3190 H       1  UNL1        0.1502
     16 C           5.3737  -12.4493   27.8426 C.ar    1  UNL1        0.0533
     17 C           5.0502  -13.1451   26.5537 C.ar    1  UNL1        0.0045
     18 C           3.7159  -13.8062   26.3727 C.ar    1  UNL1        0.0001
     19 C           2.7053  -13.7715   27.4805 C.ar    1  UNL1        0.0039
     20 C           3.0288  -13.0758   28.7694 C.ar    1  UNL1        0.0716
     21 C           4.3630  -12.4147   28.9505 C.ar    1  UNL1        0.0084
     22 C           2.0182  -13.0411   29.8773 C.3     1  UNL1        0.4186
     23 F           1.0075  -13.0065   30.9852 F       1  UNL1       -0.1659
     24 F           1.2422  -14.1338   29.2036 F       1  UNL1       -0.1659
     25 F           2.7941  -11.9484   30.5509 F       1  UNL1       -0.1659
     26 N           7.6108   -1.5439   29.6366 N.3     1  UNL1       -0.2741
     27 C           8.7947   -1.0727   30.4280 C.3     1  UNL1        0.0896
     28 C           6.2912   -0.1442   27.8903 C.3     1  UNL1        0.0173
     29 C           6.5012   -0.5898   29.3071 C.3     1  UNL1        0.0576
     30 C           5.6016   -0.0813   30.3944 C.3     1  UNL1        0.0173
     31 C           8.6782   -5.1854   26.0870 C.3     1  UNL1        0.1576
     32 S           8.0051   -4.8013   24.8027 S.O2    1  UNL1        0.0087
     33 O           6.9115   -5.7897   25.0802 O.2     1  UNL1       -0.1686
     34 O           9.0987   -3.8129   24.5252 O.2     1  UNL1       -0.1686
     35 C           7.3320   -4.4172   23.5183 C.ar    1  UNL1        0.1057
     36 C           8.0859   -4.4953   22.2239 C.ar    1  UNL1        0.0183
     37 C           7.4128   -4.1113   20.9396 C.ar    1  UNL1        0.0013
     38 C           5.9859   -3.6492   20.9498 C.ar    1  UNL1        0.0001
     39 C           5.2319   -3.5711   22.2442 C.ar    1  UNL1        0.0013
     40 C           5.9050   -3.9551   23.5285 C.ar    1  UNL1        0.0183
@<TRIPOS>BOND
     1    28    29    1
     2    29    30    1
     3    29    26    1
     4    26    27    1
     5     1    26    1
     6     1     2    1
     7     2     3    1
     8     3     4    1
     9     4     7    1
    10     7     8   am
    11     8     9    2
    12     8    11    1
    13    11    12    1
    14    12    13   am
    15    13    14    2
    16    13    16    1
    17    16    17   ar
    18    17    18   ar
    19    18    19   ar
    20    19    20   ar
    21    20    22    1
    22    22    23    1
    23    22    24    1
    24    22    25    1
    25    20    21   ar
    26     4     5    1
    27     5    31    1
    28    31    32    1
    29    32    33    2
    30    32    34    2
    31    32    35    1
    32    35    36   ar
    33    36    37   ar
    34    37    38   ar
    35    38    39   ar
    36    39    40   ar
    37     5     6    1
    38     6     1    1
    39    21    16   ar
    40    40    35   ar
    41     7    10    1
    42    12    15    1
@<TRIPOS>MOLECULE
*****
 40 42 0 0 0
SMALL
GASTEIGER

@<TRIPOS>ATOM
      1 C           0.7533    2.2410   26.9949 C.3     1  UNL1        0.0577
      2 C          -0.4556    2.0182   26.1354 C.3     1  UNL1        0.0177
      3 C          -0.2954    1.7754   24.6639 C.3     1  UNL1        0.0210
      4 C           1.0739    1.7553   24.0519 C.3     1  UNL1        0.0734
      5 C           2.2829    1.9780   24.9113 C.3     1  UNL1        0.0433
      6 C           2.1226    2.2209   26.3828 C.3     1  UNL1        0.0194
      7 N           1.2341    1.5124   22.5803 N.am    1  UNL1       -0.3045
      8 C           1.2267    2.6682   21.6243 C.2     1  UNL1        0.2425
      9 O           1.0589    4.0669   22.1397 O.2     1  UNL1       -0.2733
     10 H           1.3442    0.5944   22.2421 H       1  UNL1        0.1494
     11 C           1.3869    2.4253   20.1528 C.3     1  UNL1        0.1759
     12 N           2.4489    1.4882   19.6586 N.am    1  UNL1       -0.2931
     13 C           2.2195    0.0063   19.6994 C.2     1  UNL1        0.2462
     14 O           0.9283   -0.5383   20.2344 O.2     1  UNL1       -0.2701
     15 H           3.2963    1.8456   19.3074 H       1  UNL1        0.1502
     16 C           3.2814   -0.9308   19.2052 C.ar    1  UNL1        0.0533
     17 C           4.4871   -0.3906   18.4950 C.ar    1  UNL1        0.0045
     18 C           5.5490   -1.3278   18.0008 C.ar    1  UNL1        0.0001
     19 C           5.4051   -2.8052   18.2169 C.ar    1  UNL1        0.0039
     20 C           4.1993   -3.3454   18.9271 C.ar    1  UNL1        0.0716
     21 C           3.1375   -2.4082   19.4212 C.ar    1  UNL1        0.0084
     22 C           4.0554   -4.8227   19.1432 C.3     1  UNL1        0.4186
     23 F           3.9115   -6.3001   19.3592 F       1  UNL1       -0.1659
     24 F           2.5687   -4.7008   18.9864 F       1  UNL1       -0.1659
     25 F           5.5422   -4.9446   19.3000 F       1  UNL1       -0.1659
     26 N           0.5931    2.4838   28.4664 N.3     1  UNL1       -0.2741
     27 C           0.5420    3.8871   28.9937 C.3     1  UNL1        0.0896
     28 C           1.6303    0.9825   30.3157 C.3     1  UNL1        0.0173
     29 C           0.4838    1.3234   29.4105 C.3     1  UNL1        0.0576
     30 C          -0.7719    0.5039   29.4495 C.3     1  UNL1        0.0173
     31 C           3.6522    1.9579   24.2992 C.3     1  UNL1        0.1576
     32 S           4.1976    0.6850   23.7230 S.O2    1  UNL1        0.0087
     33 O           4.2553    1.3235   22.3670 O.2     1  UNL1       -0.1686
     34 O           4.1399    0.0464   25.0791 O.2     1  UNL1       -0.1686
     35 C           4.7430   -0.5881   23.1467 C.ar    1  UNL1        0.1057
     36 C           5.9155   -0.5464   22.2121 C.ar    1  UNL1        0.0183
     37 C           6.4609   -1.8193   21.6359 C.ar    1  UNL1        0.0013
     38 C           5.8337   -3.1339   21.9942 C.ar    1  UNL1        0.0001
     39 C           4.6612   -3.1756   22.9288 C.ar    1  UNL1        0.0013
     40 C           4.1158   -1.9027   23.5050 C.ar    1  UNL1        0.0183
@<TRIPOS>BOND
     1    28    29    1
     2    29    30    1
     3    29    26    1
     4    26    27    1
     5     1    26    1
     6     1     2    1
     7     2     3    1
     8     3     4    1
     9     4     7    1
    10     7     8   am
    11     8     9    2
    12     8    11    1
    13    11    12    1
    14    12    13   am
    15    13    14    2
    16    13    16    1
    17    16    17   ar
    18    17    18   ar
    19    18    19   ar
    20    19    20   ar
    21    20    22    1
    22    22    23    1
    23    22    24    1
    24    22    25    1
    25    20    21   ar
    26     4     5    1
    27     5    31    1
    28    31    32    1
    29    32    33    2
    30    32    34    2
    31    32    35    1
    32    35    36   ar
    33    36    37   ar
    34    37    38   ar
    35    38    39   ar
    36    39    40   ar
    37     5     6    1
    38     6     1    1
    39    21    16   ar
    40    40    35   ar
    41     7    10    1
    42    12    15    1
@<TRIPOS>MOLECULE
*****
 40 42 0 0 0
SMALL
GASTEIGER

@<TRIPOS>ATOM
      1 C           4.3303   -1.3025   18.8807 C.3     1  UNL1        0.0577
      2 C           4.7188   -0.1496   18.0032 C.3     1  UNL1        0.0177
      3 C           3.7940    1.0214   17.8502 C.3     1  UNL1        0.0210
      4 C           2.4807    1.0396   18.5747 C.3     1  UNL1        0.0734
      5 C           2.0923   -0.1132   19.4522 C.3     1  UNL1        0.0433
      6 C           3.0171   -1.2842   19.6052 C.3     1  UNL1        0.0194
      7 N           1.5560    2.2107   18.4217 N.am    1  UNL1       -0.3045
      8 C           1.7940    3.4627   19.2126 C.2     1  UNL1        0.2425
      9 O           2.9570    3.5438   20.1567 O.2     1  UNL1       -0.2733
     10 H           0.7927    2.1575   17.8021 H       1  UNL1        0.1494
     11 C           0.8692    4.6338   19.0596 C.3     1  UNL1        0.1759
     12 N          -0.5632    4.5194   19.4899 N.am    1  UNL1       -0.2931
     13 C          -1.5883    3.9663   18.5448 C.2     1  UNL1        0.2462
     14 O          -1.1809    3.5274   17.1695 O.2     1  UNL1       -0.2701
     15 H          -0.8305    4.8075   20.3926 H       1  UNL1        0.1502
     16 C          -3.0207    3.8519   18.9750 C.ar    1  UNL1        0.0533
     17 C          -4.1166    3.8914   17.9516 C.ar    1  UNL1        0.0045
     18 C          -5.5491    3.7771   18.3819 C.ar    1  UNL1        0.0001
     19 C          -5.8855    3.6232   19.8355 C.ar    1  UNL1        0.0039
     20 C          -4.7896    3.5837   20.8590 C.ar    1  UNL1        0.0716
     21 C          -3.3572    3.6981   20.4287 C.ar    1  UNL1        0.0084
     22 C          -5.1261    3.4299   22.3126 C.3     1  UNL1        0.4186
     23 F          -5.4625    3.2760   23.7663 F       1  UNL1       -0.1659
     24 F          -3.6752    3.2132   22.6255 F       1  UNL1       -0.1659
     25 F          -6.5770    3.6465   21.9997 F       1  UNL1       -0.1659
     26 N           5.2551   -2.4735   19.0338 N.3     1  UNL1       -0.2741
     27 C           6.6316   -2.4248   18.4397 C.3     1  UNL1        0.0896
     28 C           4.1011   -4.8011   19.0533 C.3     1  UNL1        0.0173
     29 C           4.8034   -3.6933   19.7808 C.3     1  UNL1        0.0576
     30 C           5.0541   -3.8052   21.2555 C.3     1  UNL1        0.0173
     31 C           0.7789   -0.0950   20.1768 C.3     1  UNL1        0.1576
     32 S           0.6027    0.7716   21.3883 S.O2    1  UNL1        0.0087
     33 O          -0.5541    1.4606   20.7272 O.2     1  UNL1       -0.1686
     34 O           1.7595    0.0827   22.0494 O.2     1  UNL1       -0.1686
     35 C           0.4264    1.6383   22.5999 C.ar    1  UNL1        0.1057
     36 C          -0.2323    2.9799   22.4729 C.ar    1  UNL1        0.0183
     37 C          -0.4086    3.8466   23.6844 C.ar    1  UNL1        0.0013
     38 C           0.0739    3.3717   25.0229 C.ar    1  UNL1        0.0001
     39 C           0.7326    2.0301   25.1499 C.ar    1  UNL1        0.0013
     40 C           0.9089    1.1634   23.9384 C.ar    1  UNL1        0.0183
@<TRIPOS>BOND
     1    28    29    1
     2    29    30    1
     3    29    26    1
     4    26    27    1
     5     1    26    1
     6     1     2    1
     7     2     3    1
     8     3     4    1
     9     4     7    1
    10     7     8   am
    11     8     9    2
    12     8    11    1
    13    11    12    1
    14    12    13   am
    15    13    14    2
    16    13    16    1
    17    16    17   ar
    18    17    18   ar
    19    18    19   ar
    20    19    20   ar
    21    20    22    1
    22    22    23    1
    23    22    24    1
    24    22    25    1
    25    20    21   ar
    26     4     5    1
    27     5    31    1
    28    31    32    1
    29    32    33    2
    30    32    34    2
    31    32    35    1
    32    35    36   ar
    33    36    37   ar
    34    37    38   ar
    35    38    39   ar
    36    39    40   ar
    37     5     6    1
    38     6     1    1
    39    21    16   ar
    40    40    35   ar
    41     7    10    1
    42    12    15    1
@<TRIPOS>MOLECULE
*****
 40 42 0 0 0
SMALL
GASTEIGER

@<TRIPOS>ATOM
      1 C           2.1835    2.0566   31.7000 C.3     1  UNL1        0.0577
      2 C           3.5974    1.5570   31.6648 C.3     1  UNL1        0.0177
      3 C           4.0030    0.5242   30.6555 C.3     1  UNL1        0.0210
      4 C           2.9947   -0.0092   29.6815 C.3     1  UNL1        0.0734
      5 C           1.5808    0.4904   29.7167 C.3     1  UNL1        0.0433
      6 C           1.1752    1.5232   30.7260 C.3     1  UNL1        0.0194
      7 N           3.4004   -1.0420   28.6722 N.am    1  UNL1       -0.3045
      8 C           4.2440   -0.6501   27.4955 C.2     1  UNL1        0.2425
      9 O           4.6821    0.7747   27.3281 O.2     1  UNL1       -0.2733
     10 H           3.1128   -1.9772   28.7821 H       1  UNL1        0.1494
     11 C           4.6496   -1.6830   26.4862 C.3     1  UNL1        0.1759
     12 N           4.1336   -1.6008   25.0801 N.am    1  UNL1       -0.2931
     13 C           4.7205   -2.4770   24.0135 C.2     1  UNL1        0.2462
     14 O           5.8235   -3.4354   24.3529 O.2     1  UNL1       -0.2701
     15 H           3.4097   -0.9719   24.8574 H       1  UNL1        0.1502
     16 C           4.2045   -2.3950   22.6074 C.ar    1  UNL1        0.0533
     17 C           3.3312   -1.2473   22.1948 C.ar    1  UNL1        0.0045
     18 C           2.8153   -1.1653   20.7887 C.ar    1  UNL1        0.0001
     19 C           3.1726   -2.2308   19.7953 C.ar    1  UNL1        0.0039
     20 C           4.0458   -3.3785   20.2079 C.ar    1  UNL1        0.0716
     21 C           4.5618   -3.4606   21.6139 C.ar    1  UNL1        0.0084
     22 C           4.4031   -4.4440   19.2145 C.3     1  UNL1        0.4186
     23 F           4.7605   -5.5096   18.2211 F       1  UNL1       -0.1659
     24 F           5.8507   -4.2993   19.5799 F       1  UNL1       -0.1659
     25 F           2.9556   -4.5888   18.8492 F       1  UNL1       -0.1659
     26 N           1.7778    3.0894   32.7093 N.3     1  UNL1       -0.2741
     27 C           2.0663    2.8697   34.1648 C.3     1  UNL1        0.0896
     28 C           1.7392    5.2468   31.2622 C.3     1  UNL1        0.0173
     29 C           1.0837    4.3420   32.2631 C.3     1  UNL1        0.0576
     30 C          -0.2659    4.6899   32.8178 C.3     1  UNL1        0.0173
     31 C           0.5724   -0.0430   28.7426 C.3     1  UNL1        0.1576
     32 S           0.0068    0.8543   27.6820 S.O2    1  UNL1        0.0087
     33 O           1.3487    0.9112   27.0143 O.2     1  UNL1       -0.1686
     34 O          -1.3352    0.7973   28.3496 O.2     1  UNL1       -0.1686
     35 C          -0.5589    1.7516   26.6213 C.ar    1  UNL1        0.1057
     36 C          -0.0385    1.6730   25.2166 C.ar    1  UNL1        0.0183
     37 C          -0.6042    2.5702   24.1560 C.ar    1  UNL1        0.0013
     38 C          -1.6902    3.5460   24.5000 C.ar    1  UNL1        0.0001
     39 C          -2.2105    3.6246   25.9047 C.ar    1  UNL1        0.0013
     40 C          -1.6449    2.7274   26.9653 C.ar    1  UNL1        0.0183
@<TRIPOS>BOND
     1    28    29    1
     2    29    30    1
     3    29    26    1
     4    26    27    1
     5     1    26    1
     6     1     2    1
     7     2     3    1
     8     3     4    1
     9     4     7    1
    10     7     8   am
    11     8     9    2
    12     8    11    1
    13    11    12    1
    14    12    13   am
    15    13    14    2
    16    13    16    1
    17    16    17   ar
    18    17    18   ar
    19    18    19   ar
    20    19    20   ar
    21    20    22    1
    22    22    23    1
    23    22    24    1
    24    22    25    1
    25    20    21   ar
    26     4     5    1
    27     5    31    1
    28    31    32    1
    29    32    33    2
    30    32    34    2
    31    32    35    1
    32    35    36   ar
    33    36    37   ar
    34    37    38   ar
    35    38    39   ar
    36    39    40   ar
    37     5     6    1
    38     6     1    1
    39    21    16   ar
    40    40    35   ar
    41     7    10    1
    42    12    15    1
@<TRIPOS>MOLECULE
*****
 40 42 0 0 0
SMALL
GASTEIGER

@<TRIPOS>ATOM
      1 C          -3.8329    3.8681   22.9359 C.3     1  UNL1        0.0577
      2 C          -4.1938    3.4586   21.5387 C.3     1  UNL1        0.0177
      3 C          -3.1133    3.1593   20.5422 C.3     1  UNL1        0.0210
      4 C          -1.6721    3.2694   20.9428 C.3     1  UNL1        0.0734
      5 C          -1.3112    3.6790   22.3400 C.3     1  UNL1        0.0433
      6 C          -2.3917    3.9783   23.3365 C.3     1  UNL1        0.0194
      7 N          -0.5916    2.9701   19.9463 N.am    1  UNL1       -0.3045
      8 C          -0.0599    4.0619   19.0659 C.2     1  UNL1        0.2425
      9 O          -0.6087    5.4532   19.1819 O.2     1  UNL1       -0.2733
     10 H          -0.2314    2.0570   19.8702 H       1  UNL1        0.1494
     11 C           1.0205    3.7626   18.0694 C.3     1  UNL1        0.1759
     12 N           2.1992    2.9256   18.4698 N.am    1  UNL1       -0.2931
     13 C           2.0924    1.4294   18.4665 C.2     1  UNL1        0.2462
     14 O           0.8068    0.7702   18.0628 O.2     1  UNL1       -0.2701
     15 H           3.0429    3.3583   18.7348 H       1  UNL1        0.1502
     16 C           3.2710    0.5925   18.8669 C.ar    1  UNL1        0.0533
     17 C           4.4620    1.2350   19.5139 C.ar    1  UNL1        0.0045
     18 C           5.6406    0.3980   19.9143 C.ar    1  UNL1        0.0001
     19 C           5.6282   -1.0815   19.6677 C.ar    1  UNL1        0.0039
     20 C           4.4372   -1.7241   19.0207 C.ar    1  UNL1        0.0716
     21 C           3.2586   -0.8871   18.6203 C.ar    1  UNL1        0.0084
     22 C           4.4248   -3.2036   18.7741 C.3     1  UNL1        0.4186
     23 F           4.4123   -4.6832   18.5275 F       1  UNL1       -0.1659
     24 F           3.3232   -3.3619   19.7798 F       1  UNL1       -0.1659
     25 F           5.5263   -3.0452   17.7685 F       1  UNL1       -0.1659
     26 N          -4.9134    4.1674   23.9324 N.3     1  UNL1       -0.2741
     27 C          -4.8022    3.6521   25.3366 C.3     1  UNL1        0.0896
     28 C          -5.9952    6.4750   23.4275 C.3     1  UNL1        0.0173
     29 C          -6.1050    4.9822   23.5246 C.3     1  UNL1        0.0576
     30 C          -7.4065    4.3041   23.2140 C.3     1  UNL1        0.0173
     31 C           0.1301    3.7892   22.7407 C.3     1  UNL1        0.1576
     32 S           0.9389    2.5488   22.9803 S.O2    1  UNL1        0.0087
     33 O           0.1339    2.2621   24.2130 O.2     1  UNL1       -0.1686
     34 O           1.7438    2.8356   21.7475 O.2     1  UNL1       -0.1686
     35 C           1.7477    1.3085   23.2199 C.ar    1  UNL1        0.1057
     36 C           2.0612    0.3857   22.0797 C.ar    1  UNL1        0.0183
     37 C           2.8700   -0.8547   22.3192 C.ar    1  UNL1        0.0013
     38 C           3.3652   -1.1722   23.6991 C.ar    1  UNL1        0.0001
     39 C           3.0516   -0.2494   24.8393 C.ar    1  UNL1        0.0013
     40 C           2.2428    0.9909   24.5997 C.ar    1  UNL1        0.0183
@<TRIPOS>BOND
     1    28    29    1
     2    29    30    1
     3    29    26    1
     4    26    27    1
     5     1    26    1
     6     1     2    1
     7     2     3    1
     8     3     4    1
     9     4     7    1
    10     7     8   am
    11     8     9    2
    12     8    11    1
    13    11    12    1
    14    12    13   am
    15    13    14    2
    16    13    16    1
    17    16    17   ar
    18    17    18   ar
    19    18    19   ar
    20    19    20   ar
    21    20    22    1
    22    22    23    1
    23    22    24    1
    24    22    25    1
    25    20    21   ar
    26     4     5    1
    27     5    31    1
    28    31    32    1
    29    32    33    2
    30    32    34    2
    31    32    35    1
    32    35    36   ar
    33    36    37   ar
    34    37    38   ar
    35    38    39   ar
    36    39    40   ar
    37     5     6    1
    38     6     1    1
    39    21    16   ar
    40    40    35   ar
    41     7    10    1
    42    12    15    1
@<TRIPOS>MOLECULE
*****
 40 42 0 0 0
SMALL
GASTEIGER

@<TRIPOS>ATOM
      1 C           3.9413   -2.0504   21.2688 C.3     1  UNL1        0.0577
      2 C           4.1466   -1.3581   22.5835 C.3     1  UNL1        0.0177
      3 C           3.2402   -0.2336   22.9886 C.3     1  UNL1        0.0210
      4 C           2.1286    0.1985   22.0789 C.3     1  UNL1        0.0734
      5 C           1.9233   -0.4939   20.7642 C.3     1  UNL1        0.0433
      6 C           2.8297   -1.6183   20.3592 C.3     1  UNL1        0.0194
      7 N           1.2222    1.3229   22.4840 N.am    1  UNL1       -0.3045
      8 C           1.7209    2.7372   22.4512 C.2     1  UNL1        0.2425
      9 O           3.1260    3.0271   22.0134 O.2     1  UNL1       -0.2733
     10 H           0.3000    1.1327   22.7713 H       1  UNL1        0.1494
     11 C           0.8145    3.8617   22.8563 C.3     1  UNL1        0.1759
     12 N          -0.5437    3.9918   22.2330 N.am    1  UNL1       -0.2931
     13 C          -1.7632    3.5689   22.9972 C.2     1  UNL1        0.2462
     14 O          -1.6245    3.0158   24.3846 O.2     1  UNL1       -0.2701
     15 H          -0.6347    4.3549   21.3224 H       1  UNL1        0.1502
     16 C          -3.1214    3.6991   22.3740 C.ar    1  UNL1        0.0533
     17 C          -4.3222    3.9477   23.2378 C.ar    1  UNL1        0.0045
     18 C          -5.6805    4.0779   22.6145 C.ar    1  UNL1        0.0001
     19 C          -5.8378    3.9594   21.1275 C.ar    1  UNL1        0.0039
     20 C          -4.6369    3.7107   20.2637 C.ar    1  UNL1        0.0716
     21 C          -3.2788    3.5806   20.8869 C.ar    1  UNL1        0.0084
     22 C          -4.7942    3.5922   18.7768 C.3     1  UNL1        0.4186
     23 F          -4.9515    3.4738   17.2897 F       1  UNL1       -0.1659
     24 F          -3.5127    4.3467   18.5811 F       1  UNL1       -0.1659
     25 F          -6.0758    2.8377   18.9725 F       1  UNL1       -0.1659
     26 N           4.8477   -3.1749   20.8638 N.3     1  UNL1       -0.2741
     27 C           5.8951   -3.6736   21.8146 C.3     1  UNL1        0.0896
     28 C           3.8757   -5.0373   19.3353 C.3     1  UNL1        0.0173
     29 C           4.7067   -3.8006   19.5078 C.3     1  UNL1        0.0576
     30 C           5.3968   -3.1895   18.3244 C.3     1  UNL1        0.0173
     31 C           0.8116   -0.0618   19.8545 C.3     1  UNL1        0.1576
     32 S           0.8712    1.2772   19.1810 S.O2    1  UNL1        0.0087
     33 O          -0.2699    1.7547   20.0294 O.2     1  UNL1       -0.1686
     34 O           2.0123    0.7997   18.3326 O.2     1  UNL1       -0.1686
     35 C           0.9307    2.6162   18.5076 C.ar    1  UNL1        0.1057
     36 C           2.2237    3.3752   18.4604 C.ar    1  UNL1        0.0183
     37 C           2.2833    4.7142   17.7869 C.ar    1  UNL1        0.0013
     38 C           1.0498    5.2942   17.1607 C.ar    1  UNL1        0.0001
     39 C          -0.2431    4.5353   17.2079 C.ar    1  UNL1        0.0013
     40 C          -0.3027    3.1963   17.8814 C.ar    1  UNL1        0.0183
@<TRIPOS>BOND
     1    28    29    1
     2    29    30    1
     3    29    26    1
     4    26    27    1
     5     1    26    1
     6     1     2    1
     7     2     3    1
     8     3     4    1
     9     4     7    1
    10     7     8   am
    11     8     9    2
    12     8    11    1
    13    11    12    1
    14    12    13   am
    15    13    14    2
    16    13    16    1
    17    16    17   ar
    18    17    18   ar
    19    18    19   ar
    20    19    20   ar
    21    20    22    1
    22    22    23    1
    23    22    24    1
    24    22    25    1
    25    20    21   ar
    26     4     5    1
    27     5    31    1
    28    31    32    1
    29    32    33    2
    30    32    34    2
    31    32    35    1
    32    35    36   ar
    33    36    37   ar
    34    37    38   ar
    35    38    39   ar
    36    39    40   ar
    37     5     6    1
    38     6     1    1
    39    21    16   ar
    40    40    35   ar
    41     7    10    1
    42    12    15    1
@<TRIPOS>MOLECULE
*****
 40 42 0 0 0
SMALL
GASTEIGER

@<TRIPOS>ATOM
      1 C           3.5281   -0.8140   20.4382 C.3     1  UNL1        0.0577
      2 C           2.2268   -1.2684   19.8465 C.3     1  UNL1        0.0177
      3 C           0.9666   -0.5063   20.1313 C.3     1  UNL1        0.0210
      4 C           1.0077    0.7103   21.0078 C.3     1  UNL1        0.0734
      5 C           2.3090    1.1647   21.5994 C.3     1  UNL1        0.0433
      6 C           3.5692    0.4026   21.3146 C.3     1  UNL1        0.0194
      7 N          -0.2525    1.4725   21.2925 N.am    1  UNL1       -0.3045
      8 C          -0.7221    2.5291   20.3371 C.2     1  UNL1        0.2425
      9 O           0.0685    2.8236   19.0968 O.2     1  UNL1       -0.2733
     10 H          -0.7713    1.2792   22.1066 H       1  UNL1        0.1494
     11 C          -1.9823    3.2912   20.6219 C.3     1  UNL1        0.1759
     12 N          -2.3064    3.7064   22.0264 N.am    1  UNL1       -0.2931
     13 C          -3.6475    3.3806   22.6142 C.2     1  UNL1        0.2462
     14 O          -4.6643    2.6396   21.7974 O.2     1  UNL1       -0.2701
     15 H          -1.6391    4.1928   22.5624 H       1  UNL1        0.1502
     16 C          -3.9717    3.7958   24.0186 C.ar    1  UNL1        0.0533
     17 C          -3.0131    3.4904   25.1312 C.ar    1  UNL1        0.0045
     18 C          -3.3374    3.9056   26.5357 C.ar    1  UNL1        0.0001
     19 C          -4.6202    4.6262   26.8275 C.ar    1  UNL1        0.0039
     20 C          -5.5788    4.9316   25.7149 C.ar    1  UNL1        0.0716
     21 C          -5.2545    4.5164   24.3105 C.ar    1  UNL1        0.0084
     22 C          -6.8616    5.6521   26.0067 C.3     1  UNL1        0.4186
     23 F          -8.1444    6.3728   26.2986 F       1  UNL1       -0.1659
     24 F          -6.3133    6.0915   27.3320 F       1  UNL1       -0.1659
     25 F          -7.4098    5.2128   24.6815 F       1  UNL1       -0.1659
     26 N           4.7882   -1.5761   20.1534 N.3     1  UNL1       -0.2741
     27 C           6.0699   -0.8388   19.9015 C.3     1  UNL1        0.0896
     28 C           4.8680   -3.7986   18.8101 C.3     1  UNL1        0.0173
     29 C           4.7667   -3.0756   20.1205 C.3     1  UNL1        0.0576
     30 C           4.6438   -3.8521   21.3980 C.3     1  UNL1        0.0173
     31 C           2.3502    2.3813   22.4760 C.3     1  UNL1        0.1576
     32 S           1.7683    2.3304   23.8575 S.O2    1  UNL1        0.0087
     33 O           0.6016    3.1527   23.3965 O.2     1  UNL1       -0.1686
     34 O           2.9349    1.5081   24.3186 O.2     1  UNL1       -0.1686
     35 C           1.1863    2.2795   25.2391 C.ar    1  UNL1        0.1057
     36 C           0.0295    1.3708   25.5327 C.ar    1  UNL1        0.0183
     37 C          -0.5524    1.3198   26.9142 C.ar    1  UNL1        0.0013
     38 C           0.0224    2.1775   28.0022 C.ar    1  UNL1        0.0001
     39 C           1.1792    3.0862   27.7087 C.ar    1  UNL1        0.0013
     40 C           1.7611    3.1372   26.3272 C.ar    1  UNL1        0.0183
@<TRIPOS>BOND
     1    28    29    1
     2    29    30    1
     3    29    26    1
     4    26    27    1
     5     1    26    1
     6     1     2    1
     7     2     3    1
     8     3     4    1
     9     4     7    1
    10     7     8   am
    11     8     9    2
    12     8    11    1
    13    11    12    1
    14    12    13   am
    15    13    14    2
    16    13    16    1
    17    16    17   ar
    18    17    18   ar
    19    18    19   ar
    20    19    20   ar
    21    20    22    1
    22    22    23    1
    23    22    24    1
    24    22    25    1
    25    20    21   ar
    26     4     5    1
    27     5    31    1
    28    31    32    1
    29    32    33    2
    30    32    34    2
    31    32    35    1
    32    35    36   ar
    33    36    37   ar
    34    37    38   ar
    35    38    39   ar
    36    39    40   ar
    37     5     6    1
    38     6     1    1
    39    21    16   ar
    40    40    35   ar
    41     7    10    1
    42    12    15    1
@<TRIPOS>MOLECULE
*****
 40 42 0 0 0
SMALL
GASTEIGER

@<TRIPOS>ATOM
      1 C           3.3265   -1.5952   20.9569 C.3     1  UNL1        0.0577
      2 C           2.2647   -1.6268   19.8980 C.3     1  UNL1        0.0177
      3 C           1.2149   -0.5562   19.8562 C.3     1  UNL1        0.0210
      4 C           1.2270    0.5461   20.8735 C.3     1  UNL1        0.0734
      5 C           2.2888    0.5777   21.9324 C.3     1  UNL1        0.0433
      6 C           3.3386   -0.4929   21.9742 C.3     1  UNL1        0.0194
      7 N           0.1772    1.6167   20.8317 N.am    1  UNL1       -0.3045
      8 C           0.1391    2.5855   19.6873 C.2     1  UNL1        0.2425
      9 O           1.1509    2.4838   18.5845 O.2     1  UNL1       -0.2733
     10 H          -0.4869    1.6835   21.5555 H       1  UNL1        0.1494
     11 C          -0.9107    3.6562   19.6455 C.3     1  UNL1        0.1759
     12 N          -1.8856    3.7951   20.7770 N.am    1  UNL1       -0.2931
     13 C          -3.3602    3.7459   20.5068 C.2     1  UNL1        0.2462
     14 O          -3.8599    3.5578   19.1050 O.2     1  UNL1       -0.2701
     15 H          -1.5576    3.9186   21.6971 H       1  UNL1        0.1502
     16 C          -4.3351    3.8849   21.6382 C.ar    1  UNL1        0.0533
     17 C          -5.7834    4.1504   21.3520 C.ar    1  UNL1        0.0045
     18 C          -6.7584    4.2893   22.4835 C.ar    1  UNL1        0.0001
     19 C          -6.2850    4.1627   23.9012 C.ar    1  UNL1        0.0039
     20 C          -4.8367    3.8972   24.1874 C.ar    1  UNL1        0.0716
     21 C          -3.8618    3.7582   23.0560 C.ar    1  UNL1        0.0084
     22 C          -4.3633    3.7706   25.6051 C.3     1  UNL1        0.4186
     23 F          -3.8899    3.6439   27.0228 F       1  UNL1       -0.1659
     24 F          -3.0822    3.1576   25.1225 F       1  UNL1       -0.1659
     25 F          -5.6445    4.3836   26.0876 F       1  UNL1       -0.1659
     26 N           4.3763   -2.6658   20.9987 N.3     1  UNL1       -0.2741
     27 C           4.7942   -3.2555   22.3130 C.3     1  UNL1        0.0896
     28 C           4.5430   -4.4251   19.0942 C.3     1  UNL1        0.0173
     29 C           5.0081   -3.1467   19.7261 C.3     1  UNL1        0.0576
     30 C           6.1052   -2.3491   19.0854 C.3     1  UNL1        0.0173
     31 C           2.3009    1.6800   22.9497 C.3     1  UNL1        0.1576
     32 S           1.7908    1.4258   24.3372 S.O2    1  UNL1        0.0087
     33 O           3.1940    1.1841   24.8088 O.2     1  UNL1       -0.1686
     34 O           0.3875    1.6675   23.8656 O.2     1  UNL1       -0.1686
     35 C           1.2807    1.1715   25.7247 C.ar    1  UNL1        0.1057
     36 C           2.2245    0.7202   26.7998 C.ar    1  UNL1        0.0183
     37 C           1.7144    0.4659   28.1873 C.ar    1  UNL1        0.0013
     38 C           0.2607    0.6629   28.4997 C.ar    1  UNL1        0.0001
     39 C          -0.6831    1.1142   27.4247 C.ar    1  UNL1        0.0013
     40 C          -0.1731    1.3685   26.0372 C.ar    1  UNL1        0.0183
@<TRIPOS>BOND
     1    28    29    1
     2    29    30    1
     3    29    26    1
     4    26    27    1
     5     1    26    1
     6     1     2    1
     7     2     3    1
     8     3     4    1
     9     4     7    1
    10     7     8   am
    11     8     9    2
    12     8    11    1
    13    11    12    1
    14    12    13   am
    15    13    14    2
    16    13    16    1
    17    16    17   ar
    18    17    18   ar
    19    18    19   ar
    20    19    20   ar
    21    20    22    1
    22    22    23    1
    23    22    24    1
    24    22    25    1
    25    20    21   ar
    26     4     5    1
    27     5    31    1
    28    31    32    1
    29    32    33    2
    30    32    34    2
    31    32    35    1
    32    35    36   ar
    33    36    37   ar
    34    37    38   ar
    35    38    39   ar
    36    39    40   ar
    37     5     6    1
    38     6     1    1
    39    21    16   ar
    40    40    35   ar
    41     7    10    1
    42    12    15    1
@<TRIPOS>MOLECULE
*****
 40 42 0 0 0
SMALL
GASTEIGER

@<TRIPOS>ATOM
      1 C          -2.7717    4.7119   23.7139 C.3     1  UNL1        0.0577
      2 C          -3.0865    4.5145   22.2606 C.3     1  UNL1        0.0177
      3 C          -2.1234    3.7773   21.3780 C.3     1  UNL1        0.0210
      4 C          -0.8456    3.2374   21.9487 C.3     1  UNL1        0.0734
      5 C          -0.5308    3.4348   23.4019 C.3     1  UNL1        0.0433
      6 C          -1.4939    4.1720   24.2845 C.3     1  UNL1        0.0194
      7 N           0.1175    2.5002   21.0661 N.am    1  UNL1       -0.3045
      8 C           1.1302    3.2601   20.2618 C.2     1  UNL1        0.2425
      9 O           1.1799    4.7573   20.3401 O.2     1  UNL1       -0.2733
     10 H           0.0849    1.5176   21.0147 H       1  UNL1        0.1494
     11 C           2.0933    2.5229   19.3792 C.3     1  UNL1        0.1759
     12 N           2.8548    1.3477   19.9171 N.am    1  UNL1       -0.2931
     13 C           2.1863    0.0099   20.0324 C.2     1  UNL1        0.2462
     14 O           0.7562   -0.1528   19.6098 O.2     1  UNL1       -0.2701
     15 H           3.7934    1.4545   20.1944 H       1  UNL1        0.1502
     16 C           2.9477   -1.1652   20.5703 C.ar    1  UNL1        0.0533
     17 C           3.3315   -1.2104   22.0196 C.ar    1  UNL1        0.0045
     18 C           4.0930   -2.3856   22.5575 C.ar    1  UNL1        0.0001
     19 C           4.4707   -3.5154   21.6459 C.ar    1  UNL1        0.0039
     20 C           4.0869   -3.4701   20.1966 C.ar    1  UNL1        0.0716
     21 C           3.3254   -2.2950   19.6587 C.ar    1  UNL1        0.0084
     22 C           4.4645   -4.5999   19.2851 C.3     1  UNL1        0.4186
     23 F           4.8422   -5.7298   18.3735 F       1  UNL1       -0.1659
     24 F           3.2809   -5.3848   19.7675 F       1  UNL1       -0.1659
     25 F           5.6482   -3.8150   18.8026 F       1  UNL1       -0.1659
     26 N          -3.7348    5.4491   24.5965 N.3     1  UNL1       -0.2741
     27 C          -3.7093    6.9480   24.6470 C.3     1  UNL1        0.0896
     28 C          -6.0593    4.3178   24.8550 C.3     1  UNL1        0.0173
     29 C          -4.7235    4.6874   25.4285 C.3     1  UNL1        0.0576
     30 C          -4.3763    4.2954   26.8342 C.3     1  UNL1        0.0173
     31 C           0.7470    2.8949   23.9726 C.3     1  UNL1        0.1576
     32 S           0.7271    2.1237   25.2590 S.O2    1  UNL1        0.0087
     33 O           1.3660    3.2833   25.9641 O.2     1  UNL1       -0.1686
     34 O           0.0883    0.9642   24.5539 O.2     1  UNL1       -0.1686
     35 C           0.7072    1.3526   26.5455 C.ar    1  UNL1        0.1057
     36 C          -0.5910    1.1179   27.2592 C.ar    1  UNL1        0.0183
     37 C          -0.6110    0.3468   28.5456 C.ar    1  UNL1        0.0013
     38 C           0.6673   -0.1897   29.1183 C.ar    1  UNL1        0.0001
     39 C           1.9656    0.0449   28.4045 C.ar    1  UNL1        0.0013
     40 C           1.9856    0.8161   27.1181 C.ar    1  UNL1        0.0183
@<TRIPOS>BOND
     1    28    29    1
     2    29    30    1
     3    29    26    1
     4    26    27    1
     5     1    26    1
     6     1     2    1
     7     2     3    1
     8     3     4    1
     9     4     7    1
    10     7     8   am
    11     8     9    2
    12     8    11    1
    13    11    12    1
    14    12    13   am
    15    13    14    2
    16    13    16    1
    17    16    17   ar
    18    17    18   ar
    19    18    19   ar
    20    19    20   ar
    21    20    22    1
    22    22    23    1
    23    22    24    1
    24    22    25    1
    25    20    21   ar
    26     4     5    1
    27     5    31    1
    28    31    32    1
    29    32    33    2
    30    32    34    2
    31    32    35    1
    32    35    36   ar
    33    36    37   ar
    34    37    38   ar
    35    38    39   ar
    36    39    40   ar
    37     5     6    1
    38     6     1    1
    39    21    16   ar
    40    40    35   ar
    41     7    10    1
    42    12    15    1
