@<TRIPOS>MOLECULE
*****
 28 31 0 0 0
SMALL
GASTEIGER

@<TRIPOS>ATOM
      1 C           5.0190   -2.5061   22.5426 C.3     1  UNL1        0.1693
      2 C           3.8295   -1.5938   22.4878 C.3     1  UNL1        0.0650
      3 C           3.2919   -0.9857   23.7493 C.3     1  UNL1        0.0959
      4 N           3.9438   -1.2900   25.0655 N.pl3   1  UNL1       -0.2916
      5 C           5.1332   -2.2022   25.1203 C.3     1  UNL1        0.0959
      6 C           5.6708   -2.8103   23.8589 C.3     1  UNL1        0.0650
      7 C           3.4062   -0.6819   26.3270 C.ar    1  UNL1        0.1536
      8 C           2.9515    0.7475   26.3360 C.ar    1  UNL1        0.0393
      9 C           2.4139    1.3555   27.5975 C.ar    1  UNL1        0.0421
     10 C           2.3310    0.5342   28.8499 C.ar    1  UNL1        0.1705
     11 N           2.7858   -0.8952   28.8409 N.ar    1  UNL1       -0.1286
     12 N           3.3234   -1.5033   27.5794 N.ar    1  UNL1       -0.1315
     13 N           1.7935    1.1422   30.1113 N.ar    1  UNL1       -0.2698
     14 C           0.6255    2.0781   30.2109 C.ar    1  UNL1        0.1036
     15 C           0.4396    2.4355   31.6559 C.ar    1  UNL1        0.1197
     16 N           1.4928    1.7203   32.4494 N.ar    1  UNL1       -0.2220
     17 C           2.3295    0.9211   31.4948 C.ar    1  UNL1        0.1840
     18 O           5.5566   -3.1141   21.2812 O.3     1  UNL1       -0.4791
     19 C           4.7337   -2.5709   18.8774 C.ar    1  UNL1        0.1053
     20 C           4.8267   -1.7463   17.6279 C.ar    1  UNL1        0.0069
     21 C           5.8357   -0.6405   17.5324 C.ar    1  UNL1        0.0001
     22 C           6.7516   -0.3592   18.6864 C.ar    1  UNL1        0.0031
     23 C           6.6585   -1.1837   19.9360 C.ar    1  UNL1        0.0368
     24 C           5.6496   -2.2895   20.0315 C.ar    1  UNL1        0.1422
     25 F           2.7157   -4.7825   19.0684 F       1  UNL1       -0.1657
     26 C           3.7247   -3.6767   18.9729 C.3     1  UNL1        0.4214
     27 F           4.6906   -4.6151   18.3123 F       1  UNL1       -0.1657
     28 F           2.7588   -2.7383   19.6335 F       1  UNL1       -0.1657
@<TRIPOS>BOND
     1    25    26    1
     2    26    27    1
     3    26    28    1
     4    26    19    1
     5    19    20   ar
     6    20    21   ar
     7    21    22   ar
     8    22    23   ar
     9    23    24   ar
    10    24    18    1
    11    18     1    1
    12     1     2    1
    13     2     3    1
    14     3     4    1
    15     4     7    1
    16     7     8   ar
    17     8     9   ar
    18     9    10   ar
    19    10    13    1
    20    13    14   ar
    21    14    15   ar
    22    15    16   ar
    23    16    17   ar
    24    10    11   ar
    25    11    12   ar
    26     4     5    1
    27     5     6    1
    28    24    19   ar
    29     6     1    1
    30    12     7   ar
    31    17    13   ar
@<TRIPOS>MOLECULE
*****
 28 31 0 0 0
SMALL
GASTEIGER

@<TRIPOS>ATOM
      1 C           5.7108   -3.6612   22.8448 C.3     1  UNL1        0.1693
      2 C           6.5606   -3.9816   24.0387 C.3     1  UNL1        0.0650
      3 C           6.2910   -3.3108   25.3529 C.3     1  UNL1        0.0959
      4 N           5.1716   -2.3196   25.4733 N.pl3   1  UNL1       -0.2916
      5 C           4.3219   -1.9992   24.2795 C.3     1  UNL1        0.0959
      6 C           4.5915   -2.6700   22.9652 C.3     1  UNL1        0.0650
      7 C           4.9020   -1.6487   26.7876 C.ar    1  UNL1        0.1536
      8 C           6.0112   -0.9451   27.5120 C.ar    1  UNL1        0.0393
      9 C           5.7415   -0.2743   28.8262 C.ar    1  UNL1        0.0421
     10 C           4.3628   -0.3070   29.4161 C.ar    1  UNL1        0.1705
     11 N           3.2536   -1.0105   28.6917 N.ar    1  UNL1       -0.1286
     12 N           3.5232   -1.6814   27.3774 N.ar    1  UNL1       -0.1315
     13 N           4.0932    0.3638   30.7303 N.ar    1  UNL1       -0.2698
     14 C           4.6900    1.6579   31.1986 C.ar    1  UNL1        0.1036
     15 C           4.1450    1.9523   32.5648 C.ar    1  UNL1        0.1197
     16 N           3.2113    0.8401   32.9409 N.ar    1  UNL1       -0.2220
     17 C           3.1793   -0.1416   31.8072 C.ar    1  UNL1        0.1840
     18 O           5.9805   -4.3321   21.5306 O.3     1  UNL1       -0.4791
     19 C           5.2660   -3.4863   19.1802 C.ar    1  UNL1        0.1053
     20 C           5.5393   -2.6600   17.9585 C.ar    1  UNL1        0.0069
     21 C           6.8004   -1.8532   17.8655 C.ar    1  UNL1        0.0001
     22 C           7.7882   -1.8727   18.9941 C.ar    1  UNL1        0.0031
     23 C           7.5149   -2.6990   20.2158 C.ar    1  UNL1        0.0368
     24 C           6.2538   -3.5058   20.3088 C.ar    1  UNL1        0.1422
     25 F           2.7437   -5.0998   19.3663 F       1  UNL1       -0.1657
     26 C           4.0048   -4.2931   19.2732 C.3     1  UNL1        0.4214
     27 F           4.7018   -5.4565   18.6324 F       1  UNL1       -0.1657
     28 F           3.3078   -3.1296   19.9140 F       1  UNL1       -0.1657
@<TRIPOS>BOND
     1    25    26    1
     2    26    27    1
     3    26    28    1
     4    26    19    1
     5    19    20   ar
     6    20    21   ar
     7    21    22   ar
     8    22    23   ar
     9    23    24   ar
    10    24    18    1
    11    18     1    1
    12     1     2    1
    13     2     3    1
    14     3     4    1
    15     4     7    1
    16     7     8   ar
    17     8     9   ar
    18     9    10   ar
    19    10    13    1
    20    13    14   ar
    21    14    15   ar
    22    15    16   ar
    23    16    17   ar
    24    10    11   ar
    25    11    12   ar
    26     4     5    1
    27     5     6    1
    28    24    19   ar
    29     6     1    1
    30    12     7   ar
    31    17    13   ar
@<TRIPOS>MOLECULE
*****
 28 31 0 0 0
SMALL
GASTEIGER

@<TRIPOS>ATOM
      1 C           3.0907   -0.9757   19.0214 C.3     1  UNL1        0.1693
      2 C           2.7452   -1.2340   20.4581 C.3     1  UNL1        0.0650
      3 C           1.7722   -0.3399   21.1678 C.3     1  UNL1        0.0959
      4 N           1.1446    0.8124   20.4410 N.pl3   1  UNL1       -0.2916
      5 C           1.4901    1.0707   19.0044 C.3     1  UNL1        0.0959
      6 C           2.4632    0.1766   18.2946 C.3     1  UNL1        0.0650
      7 C           0.1716    1.7065   21.1508 C.ar    1  UNL1        0.1536
      8 C           0.4784    2.2011   22.5333 C.ar    1  UNL1        0.0393
      9 C          -0.4946    3.0952   23.2431 C.ar    1  UNL1        0.0421
     10 C          -1.7744    3.4947   22.5705 C.ar    1  UNL1        0.1705
     11 N          -2.0813    3.0001   21.1880 N.ar    1  UNL1       -0.1286
     12 N          -1.1082    2.1059   20.4782 N.ar    1  UNL1       -0.1315
     13 N          -2.7474    4.3887   23.2803 N.ar    1  UNL1       -0.2698
     14 C          -2.5690    5.8551   23.5411 C.ar    1  UNL1        0.1036
     15 C          -3.7811    6.3461   24.2759 C.ar    1  UNL1        0.1197
     16 N          -4.7087    5.1831   24.4692 N.ar    1  UNL1       -0.2220
     17 C          -4.0698    3.9734   23.8539 C.ar    1  UNL1        0.1840
     18 O           4.0637   -1.8698   18.3116 O.3     1  UNL1       -0.4791
     19 C           5.5039   -3.5674   19.6511 C.ar    1  UNL1        0.1053
     20 C           6.8005   -3.9366   20.3087 C.ar    1  UNL1        0.0069
     21 C           7.9536   -2.9775   20.2844 C.ar    1  UNL1        0.0001
     22 C           7.8101   -1.6492   19.6025 C.ar    1  UNL1        0.0031
     23 C           6.5135   -1.2800   18.9449 C.ar    1  UNL1        0.0368
     24 C           5.3604   -2.2391   18.9692 C.ar    1  UNL1        0.1422
     25 F           3.1977   -5.4855   19.6997 F       1  UNL1       -0.1657
     26 C           4.3508   -4.5264   19.6754 C.3     1  UNL1        0.4214
     27 F           4.6321   -4.9008   18.2504 F       1  UNL1       -0.1657
     28 F           4.0695   -4.1521   21.1005 F       1  UNL1       -0.1657
@<TRIPOS>BOND
     1    25    26    1
     2    26    27    1
     3    26    28    1
     4    26    19    1
     5    19    20   ar
     6    20    21   ar
     7    21    22   ar
     8    22    23   ar
     9    23    24   ar
    10    24    18    1
    11    18     1    1
    12     1     2    1
    13     2     3    1
    14     3     4    1
    15     4     7    1
    16     7     8   ar
    17     8     9   ar
    18     9    10   ar
    19    10    13    1
    20    13    14   ar
    21    14    15   ar
    22    15    16   ar
    23    16    17   ar
    24    10    11   ar
    25    11    12   ar
    26     4     5    1
    27     5     6    1
    28    24    19   ar
    29     6     1    1
    30    12     7   ar
    31    17    13   ar
@<TRIPOS>MOLECULE
*****
 28 31 0 0 0
SMALL
GASTEIGER

@<TRIPOS>ATOM
      1 C          -2.5655    4.5671   20.6144 C.3     1  UNL1        0.1693
      2 C          -2.1332    4.3557   19.1936 C.3     1  UNL1        0.0650
      3 C          -1.0814    3.3352   18.8737 C.3     1  UNL1        0.0959
      4 N          -0.4619    2.5262   19.9744 N.pl3   1  UNL1       -0.2916
      5 C          -0.8941    2.7375   21.3951 C.3     1  UNL1        0.0959
      6 C          -1.9460    3.7580   21.7151 C.3     1  UNL1        0.0650
      7 C           0.5899    1.5057   19.6544 C.ar    1  UNL1        0.1536
      8 C           0.6243    0.2048   20.4005 C.ar    1  UNL1        0.0393
      9 C           1.6761   -0.8157   20.0805 C.ar    1  UNL1        0.0421
     10 C           2.6934   -0.5353   19.0145 C.ar    1  UNL1        0.1705
     11 N           2.6590    0.7655   18.2684 N.ar    1  UNL1       -0.1286
     12 N           1.6072    1.7861   18.5884 N.ar    1  UNL1       -0.1315
     13 N           3.7452   -1.5557   18.6945 N.ar    1  UNL1       -0.2698
     14 C           3.7505   -2.9870   19.1433 C.ar    1  UNL1        0.1036
     15 C           4.9850   -3.6400   18.5957 C.ar    1  UNL1        0.1197
     16 N           5.7426   -2.6122   17.8084 N.ar    1  UNL1       -0.2220
     17 C           4.9764   -1.3241   17.8695 C.ar    1  UNL1        0.1840
     18 O          -3.6172    5.5875   20.9344 O.3     1  UNL1       -0.4791
     19 C          -5.7802    4.3615   21.6884 C.ar    1  UNL1        0.1053
     20 C          -6.8103    4.0726   22.7398 C.ar    1  UNL1        0.0069
     21 C          -6.7075    4.7208   24.0886 C.ar    1  UNL1        0.0001
     22 C          -5.5746    5.6579   24.3860 C.ar    1  UNL1        0.0031
     23 C          -4.5446    5.9468   23.3346 C.ar    1  UNL1        0.0368
     24 C          -4.6474    5.2986   21.9858 C.ar    1  UNL1        0.1422
     25 F          -5.9858    3.0651   18.9908 F       1  UNL1       -0.1657
     26 C          -5.8830    3.7133   20.3396 C.3     1  UNL1        0.4214
     27 F          -6.7560    4.8374   19.8659 F       1  UNL1       -0.1657
     28 F          -5.0100    2.5893   20.8132 F       1  UNL1       -0.1657
@<TRIPOS>BOND
     1    25    26    1
     2    26    27    1
     3    26    28    1
     4    26    19    1
     5    19    20   ar
     6    20    21   ar
     7    21    22   ar
     8    22    23   ar
     9    23    24   ar
    10    24    18    1
    11    18     1    1
    12     1     2    1
    13     2     3    1
    14     3     4    1
    15     4     7    1
    16     7     8   ar
    17     8     9   ar
    18     9    10   ar
    19    10    13    1
    20    13    14   ar
    21    14    15   ar
    22    15    16   ar
    23    16    17   ar
    24    10    11   ar
    25    11    12   ar
    26     4     5    1
    27     5     6    1
    28    24    19   ar
    29     6     1    1
    30    12     7   ar
    31    17    13   ar
@<TRIPOS>MOLECULE
*****
 28 31 0 0 0
SMALL
GASTEIGER

@<TRIPOS>ATOM
      1 C           4.9420   -2.1970   20.9548 C.3     1  UNL1        0.1693
      2 C           5.7437   -1.2453   21.7925 C.3     1  UNL1        0.0650
      3 C           6.1841   -1.6459   23.1693 C.3     1  UNL1        0.0959
      4 N           5.8228   -2.9982   23.7085 N.pl3   1  UNL1       -0.2916
      5 C           5.0212   -3.9499   22.8709 C.3     1  UNL1        0.0959
      6 C           4.5808   -3.5493   21.4941 C.3     1  UNL1        0.0650
      7 C           6.2632   -3.3987   25.0853 C.ar    1  UNL1        0.1536
      8 C           6.8392   -4.7636   25.3211 C.ar    1  UNL1        0.0393
      9 C           7.2796   -5.1641   26.6979 C.ar    1  UNL1        0.0421
     10 C           7.1440   -4.1999   27.8389 C.ar    1  UNL1        0.1705
     11 N           6.5681   -2.8352   27.6031 N.ar    1  UNL1       -0.1286
     12 N           6.1277   -2.4345   26.2263 N.ar    1  UNL1       -0.1315
     13 N           7.5844   -4.6005   29.2156 N.ar    1  UNL1       -0.2698
     14 C           7.0816   -5.7802   29.9938 C.ar    1  UNL1        0.1036
     15 C           7.7914   -5.8005   31.3152 C.ar    1  UNL1        0.1197
     16 N           8.7328   -4.6333   31.3536 N.ar    1  UNL1       -0.2220
     17 C           8.6049   -3.8917   30.0561 C.ar    1  UNL1        0.1840
     18 O           4.5016   -1.7965   19.5781 O.3     1  UNL1       -0.4791
     19 C           3.2317    0.0712   18.2940 C.ar    1  UNL1        0.1053
     20 C           2.0125    0.9267   18.1158 C.ar    1  UNL1        0.0069
     21 C           0.8442    0.7701   19.0434 C.ar    1  UNL1        0.0001
     22 C           0.8951   -0.2420   20.1493 C.ar    1  UNL1        0.0031
     23 C           2.1142   -1.0975   20.3275 C.ar    1  UNL1        0.0368
     24 C           3.2825   -0.9409   19.3998 C.ar    1  UNL1        0.1422
     25 F           5.5683    0.3845   16.4386 F       1  UNL1       -0.1657
     26 C           4.4000    0.2278   17.3663 C.3     1  UNL1        0.4214
     27 F           5.0022    1.2397   18.2956 F       1  UNL1       -0.1657
     28 F           3.7977   -0.7840   16.4370 F       1  UNL1       -0.1657
@<TRIPOS>BOND
     1    25    26    1
     2    26    27    1
     3    26    28    1
     4    26    19    1
     5    19    20   ar
     6    20    21   ar
     7    21    22   ar
     8    22    23   ar
     9    23    24   ar
    10    24    18    1
    11    18     1    1
    12     1     2    1
    13     2     3    1
    14     3     4    1
    15     4     7    1
    16     7     8   ar
    17     8     9   ar
    18     9    10   ar
    19    10    13    1
    20    13    14   ar
    21    14    15   ar
    22    15    16   ar
    23    16    17   ar
    24    10    11   ar
    25    11    12   ar
    26     4     5    1
    27     5     6    1
    28    24    19   ar
    29     6     1    1
    30    12     7   ar
    31    17    13   ar
@<TRIPOS>MOLECULE
*****
 28 31 0 0 0
SMALL
GASTEIGER

@<TRIPOS>ATOM
      1 C           2.7693    2.0896   35.1206 C.3     1  UNL1        0.1693
      2 C           3.8541    1.2311   35.7006 C.3     1  UNL1        0.0650
      3 C           4.5455    0.2140   34.8418 C.3     1  UNL1        0.0959
      4 N           4.1521    0.0554   33.4030 N.pl3   1  UNL1       -0.2916
      5 C           3.0674    0.9138   32.8230 C.3     1  UNL1        0.0959
      6 C           2.3760    1.9310   33.6818 C.3     1  UNL1        0.0650
      7 C           4.8435   -0.9616   32.5442 C.ar    1  UNL1        0.1536
      8 C           5.4037   -2.2086   33.1619 C.ar    1  UNL1        0.0393
      9 C           6.0950   -3.2256   32.3031 C.ar    1  UNL1        0.0421
     10 C           6.2263   -2.9958   30.8266 C.ar    1  UNL1        0.1705
     11 N           5.6661   -1.7490   30.2089 N.ar    1  UNL1       -0.1286
     12 N           4.9747   -0.7318   31.0677 N.ar    1  UNL1       -0.1315
     13 N           6.9176   -4.0129   29.9678 N.ar    1  UNL1       -0.2698
     14 C           7.7732   -3.7209   28.7708 C.ar    1  UNL1        0.1036
     15 C           8.2592   -5.0281   28.2184 C.ar    1  UNL1        0.1197
     16 N           7.7039   -6.1280   29.0740 N.ar    1  UNL1       -0.2220
     17 C           6.8749   -5.5006   30.1552 C.ar    1  UNL1        0.1840
     18 O           2.0780    3.1066   35.9794 O.3     1  UNL1       -0.4791
     19 C           2.6232    3.2178   38.5172 C.ar    1  UNL1        0.1053
     20 C           3.3541    3.8540   39.6622 C.ar    1  UNL1        0.0069
     21 C           4.2708    5.0151   39.4144 C.ar    1  UNL1        0.0001
     22 C           4.4566    5.5401   38.0216 C.ar    1  UNL1        0.0031
     23 C           3.7256    4.9040   36.8767 C.ar    1  UNL1        0.0368
     24 C           2.8089    3.7428   37.1245 C.ar    1  UNL1        0.1422
     25 F           0.7899    0.8955   39.0128 F       1  UNL1       -0.1657
     26 C           1.7065    2.0567   38.7650 C.3     1  UNL1        0.4214
     27 F           2.8924    1.1460   38.8850 F       1  UNL1       -0.1657
     28 F           0.5206    2.9673   38.6451 F       1  UNL1       -0.1657
@<TRIPOS>BOND
     1    25    26    1
     2    26    27    1
     3    26    28    1
     4    26    19    1
     5    19    20   ar
     6    20    21   ar
     7    21    22   ar
     8    22    23   ar
     9    23    24   ar
    10    24    18    1
    11    18     1    1
    12     1     2    1
    13     2     3    1
    14     3     4    1
    15     4     7    1
    16     7     8   ar
    17     8     9   ar
    18     9    10   ar
    19    10    13    1
    20    13    14   ar
    21    14    15   ar
    22    15    16   ar
    23    16    17   ar
    24    10    11   ar
    25    11    12   ar
    26     4     5    1
    27     5     6    1
    28    24    19   ar
    29     6     1    1
    30    12     7   ar
    31    17    13   ar
@<TRIPOS>MOLECULE
*****
 28 31 0 0 0
SMALL
GASTEIGER

@<TRIPOS>ATOM
      1 C           3.5388   -1.1453   22.4695 C.3     1  UNL1        0.1693
      2 C           2.5030   -0.4380   21.6467 C.3     1  UNL1        0.0650
      3 C           1.4970    0.4536   22.3122 C.3     1  UNL1        0.0959
      4 N           1.5267    0.6381   23.8005 N.pl3   1  UNL1       -0.2916
      5 C           2.5624   -0.0691   24.6233 C.3     1  UNL1        0.0959
      6 C           3.5685   -0.9608   23.9579 C.3     1  UNL1        0.0650
      7 C           0.5207    1.5297   24.4660 C.ar    1  UNL1        0.1536
      8 C           0.1691    1.3179   25.9088 C.ar    1  UNL1        0.0393
      9 C          -0.8369    2.2096   26.5742 C.ar    1  UNL1        0.0421
     10 C          -1.4913    3.3130   25.7970 C.ar    1  UNL1        0.1705
     11 N          -1.1397    3.5248   24.3543 N.ar    1  UNL1       -0.1286
     12 N          -0.1337    2.6332   23.6887 N.ar    1  UNL1       -0.1315
     13 N          -2.4973    4.2046   26.4625 N.ar    1  UNL1       -0.2698
     14 C          -2.2265    5.5622   27.0402 C.ar    1  UNL1        0.1036
     15 C          -3.5127    6.0919   27.6019 C.ar    1  UNL1        0.1197
     16 N          -4.5783    5.0617   27.3712 N.ar    1  UNL1       -0.2220
     17 C          -3.9508    3.8953   26.6671 C.ar    1  UNL1        0.1840
     18 O           4.5448   -2.0369   21.8041 O.3     1  UNL1       -0.4791
     19 C           4.8111   -2.5276   19.2667 C.ar    1  UNL1        0.1053
     20 C           5.3680   -2.1587   17.9237 C.ar    1  UNL1        0.0069
     21 C           6.2155   -0.9299   17.7750 C.ar    1  UNL1        0.0001
     22 C           6.5060   -0.0702   18.9693 C.ar    1  UNL1        0.0031
     23 C           5.9491   -0.4392   20.3123 C.ar    1  UNL1        0.0368
     24 C           5.1017   -1.6679   20.4610 C.ar    1  UNL1        0.1422
     25 F           3.1162   -4.9851   19.5640 F       1  UNL1       -0.1657
     26 C           3.9637   -3.7564   19.4153 C.3     1  UNL1        0.4214
     27 F           5.1940   -4.6123   19.3549 F       1  UNL1       -0.1657
     28 F           2.7333   -2.9004   19.4758 F       1  UNL1       -0.1657
@<TRIPOS>BOND
     1    25    26    1
     2    26    27    1
     3    26    28    1
     4    26    19    1
     5    19    20   ar
     6    20    21   ar
     7    21    22   ar
     8    22    23   ar
     9    23    24   ar
    10    24    18    1
    11    18     1    1
    12     1     2    1
    13     2     3    1
    14     3     4    1
    15     4     7    1
    16     7     8   ar
    17     8     9   ar
    18     9    10   ar
    19    10    13    1
    20    13    14   ar
    21    14    15   ar
    22    15    16   ar
    23    16    17   ar
    24    10    11   ar
    25    11    12   ar
    26     4     5    1
    27     5     6    1
    28    24    19   ar
    29     6     1    1
    30    12     7   ar
    31    17    13   ar
@<TRIPOS>MOLECULE
*****
 28 31 0 0 0
SMALL
GASTEIGER

@<TRIPOS>ATOM
      1 C           3.1600    0.4113   20.6700 C.3     1  UNL1        0.1693
      2 C           3.1527    1.7877   21.2663 C.3     1  UNL1        0.0650
      3 C           1.8502    2.4746   21.5515 C.3     1  UNL1        0.0959
      4 N           0.5548    1.7852   21.2404 N.pl3   1  UNL1       -0.2916
      5 C           0.5621    0.4088   20.6441 C.3     1  UNL1        0.0959
      6 C           1.8647   -0.2781   20.3589 C.3     1  UNL1        0.0650
      7 C          -0.7478    2.4721   21.5257 C.ar    1  UNL1        0.1536
      8 C          -0.9394    3.2102   22.8174 C.ar    1  UNL1        0.0393
      9 C          -2.2420    3.8970   23.1027 C.ar    1  UNL1        0.0421
     10 C          -3.3530    3.8459   22.0962 C.ar    1  UNL1        0.1705
     11 N          -3.1614    3.1079   20.8045 N.ar    1  UNL1       -0.1286
     12 N          -1.8588    2.4209   20.5192 N.ar    1  UNL1       -0.1315
     13 N          -4.6556    4.5328   22.3814 N.ar    1  UNL1       -0.2698
     14 C          -4.9139    6.0074   22.2874 C.ar    1  UNL1        0.1036
     15 C          -6.3466    6.2517   22.6586 C.ar    1  UNL1        0.1197
     16 N          -6.9737    4.9280   22.9821 N.ar    1  UNL1       -0.2220
     17 C          -5.9287    3.8657   22.8108 C.ar    1  UNL1        0.1840
     18 O           4.4626   -0.2756   20.3847 O.3     1  UNL1       -0.4791
     19 C           4.6687   -2.1673   18.6159 C.ar    1  UNL1        0.1053
     20 C           4.6871   -3.6270   18.2712 C.ar    1  UNL1        0.0069
     21 C           4.5178   -4.6548   19.3505 C.ar    1  UNL1        0.0001
     22 C           4.3301   -4.2228   20.7747 C.ar    1  UNL1        0.0031
     23 C           4.3117   -2.7631   21.1194 C.ar    1  UNL1        0.0368
     24 C           4.4810   -1.7354   20.0400 C.ar    1  UNL1        0.1422
     25 F           5.0073   -0.1119   16.4571 F       1  UNL1       -0.1657
     26 C           4.8380   -1.1396   17.5365 C.3     1  UNL1        0.4214
     27 F           3.3513   -0.9469   17.4868 F       1  UNL1       -0.1657
     28 F           6.3248   -1.3323   17.5861 F       1  UNL1       -0.1657
@<TRIPOS>BOND
     1    25    26    1
     2    26    27    1
     3    26    28    1
     4    26    19    1
     5    19    20   ar
     6    20    21   ar
     7    21    22   ar
     8    22    23   ar
     9    23    24   ar
    10    24    18    1
    11    18     1    1
    12     1     2    1
    13     2     3    1
    14     3     4    1
    15     4     7    1
    16     7     8   ar
    17     8     9   ar
    18     9    10   ar
    19    10    13    1
    20    13    14   ar
    21    14    15   ar
    22    15    16   ar
    23    16    17   ar
    24    10    11   ar
    25    11    12   ar
    26     4     5    1
    27     5     6    1
    28    24    19   ar
    29     6     1    1
    30    12     7   ar
    31    17    13   ar
@<TRIPOS>MOLECULE
*****
 28 31 0 0 0
SMALL
GASTEIGER

@<TRIPOS>ATOM
      1 C           0.3980    1.7078   25.8750 C.3     1  UNL1        0.1693
      2 C           0.0149    1.7540   24.4254 C.3     1  UNL1        0.0650
      3 C           0.9554    1.2243   23.3839 C.3     1  UNL1        0.0959
      4 N           2.2790    0.6484   23.7918 N.pl3   1  UNL1       -0.2916
      5 C           2.6621    0.6022   25.2413 C.3     1  UNL1        0.0959
      6 C           1.7216    1.1319   26.2829 C.3     1  UNL1        0.0650
      7 C           3.2195    0.1187   22.7503 C.ar    1  UNL1        0.1536
      8 C           2.7574   -0.9365   21.7895 C.ar    1  UNL1        0.0393
      9 C           3.6979   -1.4662   20.7479 C.ar    1  UNL1        0.0421
     10 C           5.1005   -0.9408   20.6672 C.ar    1  UNL1        0.1705
     11 N           5.5627    0.1143   21.6279 N.ar    1  UNL1       -0.1286
     12 N           4.6221    0.6441   22.6695 N.ar    1  UNL1       -0.1315
     13 N           6.0410   -1.4705   19.6256 N.ar    1  UNL1       -0.2698
     14 C           7.4428   -1.9479   19.8645 C.ar    1  UNL1        0.1036
     15 C           8.0130   -2.3883   18.5487 C.ar    1  UNL1        0.1197
     16 N           6.9636   -2.1830   17.4967 N.ar    1  UNL1       -0.2220
     17 C           5.7448   -1.6158   18.1623 C.ar    1  UNL1        0.1840
     18 O          -0.5425    2.2375   26.9165 O.3     1  UNL1       -0.4791
     19 C          -0.1888    1.3653   29.3381 C.ar    1  UNL1        0.1053
     20 C           0.2934    1.5867   30.7411 C.ar    1  UNL1        0.0069
     21 C           0.9042    2.9016   31.1255 C.ar    1  UNL1        0.0001
     22 C           1.0328    3.9952   30.1070 C.ar    1  UNL1        0.0031
     23 C           0.5505    3.7738   28.7040 C.ar    1  UNL1        0.0368
     24 C          -0.0603    2.4588   28.3196 C.ar    1  UNL1        0.1422
     25 F          -1.4104   -1.2647   28.5693 F       1  UNL1       -0.1657
     26 C          -0.7996    0.0503   28.9537 C.3     1  UNL1        0.4214
     27 F           0.5678   -0.5606   28.8707 F       1  UNL1       -0.1657
     28 F          -2.1671    0.6612   29.0367 F       1  UNL1       -0.1657
@<TRIPOS>BOND
     1    25    26    1
     2    26    27    1
     3    26    28    1
     4    26    19    1
     5    19    20   ar
     6    20    21   ar
     7    21    22   ar
     8    22    23   ar
     9    23    24   ar
    10    24    18    1
    11    18     1    1
    12     1     2    1
    13     2     3    1
    14     3     4    1
    15     4     7    1
    16     7     8   ar
    17     8     9   ar
    18     9    10   ar
    19    10    13    1
    20    13    14   ar
    21    14    15   ar
    22    15    16   ar
    23    16    17   ar
    24    10    11   ar
    25    11    12   ar
    26     4     5    1
    27     5     6    1
    28    24    19   ar
    29     6     1    1
    30    12     7   ar
    31    17    13   ar
