@<TRIPOS>MOLECULE
*****
 27 30 0 0 0
SMALL
GASTEIGER

@<TRIPOS>ATOM
      1 C           2.8510   -0.1304   31.2885 C.2     1  UNL1        0.1341
      2 C           2.9754    1.1286   32.0944 C.2     1  UNL1        0.0249
      3 C           3.6638    0.7881   33.3829 C.2     1  UNL1        0.0152
      4 C           4.0554    1.6263   34.5636 C.2     1  UNL1       -0.0033
      5 C           4.7480    0.9950   35.7348 C.2     1  UNL1       -0.0250
      6 C           5.0490   -0.4744   35.7253 C.2     1  UNL1       -0.0240
      7 C           4.6574   -1.3126   34.5446 C.3     1  UNL1        0.0714
      8 C           3.9648   -0.6813   33.3734 C.2     1  UNL1        0.0635
      9 N           3.4624   -1.2490   32.0790 N.2     1  UNL1       -0.2448
     10 C           5.1396    1.8332   36.9156 C.3     1  UNL1        0.0385
     11 C           5.2438    2.7925   38.0640 C.3     1  UNL1        0.0228
     12 C           6.6012    2.6307   38.6814 C.3     1  UNL1        0.0689
     13 N           7.3359    1.5714   37.9147 N.3     1  UNL1       -0.2972
     14 C           6.4326    1.0785   36.8233 C.3     1  UNL1        0.0729
     15 H           7.5801    0.8005   38.5364 H       1  UNL1        0.1233
     16 C           3.7647    2.4127   36.7610 C.3     1  UNL1        0.0317
     17 C           2.6921    2.0736   37.7531 C.ar    1  UNL1       -0.0218
     18 C           2.6492    0.7088   38.3743 C.ar    1  UNL1       -0.0043
     19 C           1.5766    0.3697   39.3665 C.ar    1  UNL1       -0.0003
     20 C           0.5467    1.3953   39.7375 C.ar    1  UNL1       -0.0000
     21 C           0.5895    2.7599   39.1163 C.ar    1  UNL1       -0.0003
     22 C           1.6622    3.0991   38.1241 C.ar    1  UNL1       -0.0043
     23 C           0.3141    0.3445   28.2738 C.3     1  UNL1        0.1110
     24 N           0.9401    0.4640   29.6317 N.am    1  UNL1       -0.2979
     25 C           2.2250   -0.2498   29.9306 C.2     1  UNL1        0.2636
     26 O           2.8839   -1.0831   28.8717 O.2     1  UNL1       -0.2685
     27 H           0.5076    1.0109   30.3267 H       1  UNL1        0.1498
@<TRIPOS>BOND
     1    23    24    1
     2    24    25   am
     3    25    26    2
     4    25     1    1
     5     1     2    2
     6     2     3    1
     7     3     4    2
     8     4     5    1
     9     5    10    1
    10    10    16    1
    11    16    17    1
    12    17    18   ar
    13    18    19   ar
    14    19    20   ar
    15    20    21   ar
    16    21    22   ar
    17    10    11    1
    18    11    12    1
    19    12    13    1
    20    13    14    1
    21     5     6    2
    22     6     7    1
    23     7     8    1
    24     8     9    2
    25     9     1    1
    26     8     3    1
    27    14    10    1
    28    22    17   ar
    29    24    27    1
    30    13    15    1
@<TRIPOS>MOLECULE
*****
 27 30 0 0 0
SMALL
GASTEIGER

@<TRIPOS>ATOM
      1 C           5.6735   -3.5939   23.4821 C.2     1  UNL1        0.1341
      2 C           4.9129   -2.3015   23.4474 C.2     1  UNL1        0.0249
      3 C           4.2356   -2.1978   22.1131 C.2     1  UNL1        0.0152
      4 C           3.3517   -1.1435   21.5154 C.2     1  UNL1       -0.0033
      5 C           2.8098   -1.3176   20.1276 C.2     1  UNL1       -0.0250
      6 C           3.1518   -2.5459   19.3375 C.2     1  UNL1       -0.0240
      7 C           4.0357   -3.6001   19.9352 C.3     1  UNL1        0.0714
      8 C           4.5776   -3.4261   21.3229 C.2     1  UNL1        0.0635
      9 N           5.4663   -4.2889   22.1690 N.2     1  UNL1       -0.2448
     10 C           1.9259   -0.2633   19.5299 C.3     1  UNL1        0.0385
     11 C           1.2132    0.7415   18.6741 C.3     1  UNL1        0.0228
     12 C           0.1384    1.3783   19.5044 C.3     1  UNL1        0.0689
     13 N           0.1868    0.7670   20.8733 N.3     1  UNL1       -0.2972
     14 C           1.2916   -0.2476   20.8891 C.3     1  UNL1        0.0729
     15 H          -0.7027    0.3134   21.0815 H       1  UNL1        0.1233
     16 C           2.7450   -0.4995   18.2957 C.3     1  UNL1        0.0317
     17 C           3.9524    0.3477   18.0235 C.ar    1  UNL1       -0.0218
     18 C           4.9912   -0.1185   17.0468 C.ar    1  UNL1       -0.0043
     19 C           6.1987    0.7287   16.7746 C.ar    1  UNL1       -0.0003
     20 C           6.3675    2.0422   17.4790 C.ar    1  UNL1       -0.0000
     21 C           5.3289    2.5085   18.4556 C.ar    1  UNL1       -0.0003
     22 C           4.1213    1.6613   18.7279 C.ar    1  UNL1       -0.0043
     23 C           6.9316   -4.2740   27.1840 C.3     1  UNL1        0.1110
     24 N           6.1084   -3.7658   26.0377 N.am    1  UNL1       -0.2979
     25 C           6.4967   -4.1021   24.6284 C.2     1  UNL1        0.2636
     26 O           7.7082   -4.9465   24.3654 O.2     1  UNL1       -0.2685
     27 H           5.3133   -3.2116   26.2103 H       1  UNL1        0.1498
@<TRIPOS>BOND
     1    23    24    1
     2    24    25   am
     3    25    26    2
     4    25     1    1
     5     1     2    2
     6     2     3    1
     7     3     4    2
     8     4     5    1
     9     5    10    1
    10    10    16    1
    11    16    17    1
    12    17    18   ar
    13    18    19   ar
    14    19    20   ar
    15    20    21   ar
    16    21    22   ar
    17    10    11    1
    18    11    12    1
    19    12    13    1
    20    13    14    1
    21     5     6    2
    22     6     7    1
    23     7     8    1
    24     8     9    2
    25     9     1    1
    26     8     3    1
    27    14    10    1
    28    22    17   ar
    29    24    27    1
    30    13    15    1
@<TRIPOS>MOLECULE
*****
 27 30 0 0 0
SMALL
GASTEIGER

@<TRIPOS>ATOM
      1 C           3.0948   -0.2131   25.5775 C.2     1  UNL1        0.1341
      2 C           3.9086   -1.2781   24.9041 C.2     1  UNL1        0.0249
      3 C           3.5842   -1.2532   23.4398 C.2     1  UNL1        0.0152
      4 C           4.0814   -2.0746   22.2875 C.2     1  UNL1       -0.0033
      5 C           3.5642   -1.8157   20.9035 C.2     1  UNL1       -0.0250
      6 C           2.5499   -0.7352   20.6719 C.2     1  UNL1       -0.0240
      7 C           2.0527    0.0863   21.8242 C.3     1  UNL1        0.0714
      8 C           2.5699   -0.1727   23.2082 C.2     1  UNL1        0.0635
      9 N           2.2674    0.4701   24.5293 N.2     1  UNL1       -0.2448
     10 C           4.0614   -2.6372   19.7511 C.3     1  UNL1        0.0385
     11 C           4.5274   -3.1915   18.4375 C.3     1  UNL1        0.0228
     12 C           4.8608   -4.6401   18.6378 C.3     1  UNL1        0.0689
     13 N           4.6010   -4.9812   20.0752 N.3     1  UNL1       -0.2972
     14 C           4.1069   -3.7433   20.7633 C.3     1  UNL1        0.0729
     15 H           5.4631   -5.3017   20.5162 H       1  UNL1        0.1233
     16 C           3.9120   -1.3593   18.9799 C.3     1  UNL1        0.0317
     17 C           5.1288   -0.6363   18.4834 C.ar    1  UNL1       -0.0218
     18 C           6.3264   -0.4844   19.3738 C.ar    1  UNL1       -0.0043
     19 C           7.5433    0.2386   18.8774 C.ar    1  UNL1       -0.0003
     20 C           7.5626    0.8097   17.4905 C.ar    1  UNL1       -0.0000
     21 C           6.3651    0.6579   16.6000 C.ar    1  UNL1       -0.0003
     22 C           5.1482   -0.0652   17.0965 C.ar    1  UNL1       -0.0043
     23 C           2.4594   -0.4899   29.4851 C.3     1  UNL1        0.1110
     24 N           2.4479   -0.8147   28.0207 N.am    1  UNL1       -0.2979
     25 C           3.1063    0.1116   27.0419 C.2     1  UNL1        0.2636
     26 O           3.7764    1.3627   27.5273 O.2     1  UNL1       -0.2685
     27 H           2.0081   -1.6359   27.7021 H       1  UNL1        0.1498
@<TRIPOS>BOND
     1    23    24    1
     2    24    25   am
     3    25    26    2
     4    25     1    1
     5     1     2    2
     6     2     3    1
     7     3     4    2
     8     4     5    1
     9     5    10    1
    10    10    16    1
    11    16    17    1
    12    17    18   ar
    13    18    19   ar
    14    19    20   ar
    15    20    21   ar
    16    21    22   ar
    17    10    11    1
    18    11    12    1
    19    12    13    1
    20    13    14    1
    21     5     6    2
    22     6     7    1
    23     7     8    1
    24     8     9    2
    25     9     1    1
    26     8     3    1
    27    14    10    1
    28    22    17   ar
    29    24    27    1
    30    13    15    1
@<TRIPOS>MOLECULE
*****
 27 30 0 0 0
SMALL
GASTEIGER

@<TRIPOS>ATOM
      1 C          -0.2029    2.0587   21.1625 C.2     1  UNL1        0.1341
      2 C           0.2105    1.2802   19.9488 C.2     1  UNL1        0.0249
      3 C           1.3224    0.3557   20.3475 C.2     1  UNL1        0.0152
      4 C           2.1209   -0.6479   19.5696 C.2     1  UNL1       -0.0033
      5 C           3.1932   -1.4444   20.2520 C.2     1  UNL1       -0.0250
      6 C           3.4671   -1.2374   21.7121 C.2     1  UNL1       -0.0240
      7 C           2.6686   -0.2337   22.4900 C.3     1  UNL1        0.0714
      8 C           1.5963    0.5628   21.8077 C.2     1  UNL1        0.0635
      9 N           0.6536    1.6153   22.3114 N.2     1  UNL1       -0.2448
     10 C           3.9918   -2.4481   19.4741 C.3     1  UNL1        0.0385
     11 C           4.7953   -3.2283   18.4763 C.3     1  UNL1        0.0228
     12 C           5.1009   -4.5695   19.0743 C.3     1  UNL1        0.0689
     13 N           4.4862   -4.6184   20.4416 N.3     1  UNL1       -0.2972
     14 C           3.8007   -3.3072   20.6887 C.3     1  UNL1        0.0729
     15 H           5.2123   -4.7669   21.1424 H       1  UNL1        0.1233
     16 C           4.0159   -1.3792   18.4221 C.3     1  UNL1        0.0317
     17 C           5.2705   -0.5936   18.1797 C.ar    1  UNL1       -0.0218
     18 C           6.3034   -0.4774   19.2613 C.ar    1  UNL1       -0.0043
     19 C           7.5581    0.3081   19.0189 C.ar    1  UNL1       -0.0003
     20 C           7.7799    0.9775   17.6950 C.ar    1  UNL1       -0.0000
     21 C           6.7471    0.8613   16.6134 C.ar    1  UNL1       -0.0003
     22 C           5.4924    0.0757   16.8558 C.ar    1  UNL1       -0.0043
     23 C          -3.7590    3.7919   20.8459 C.3     1  UNL1        0.1110
     24 N          -2.6788    2.7525   20.7908 N.am    1  UNL1       -0.2979
     25 C          -1.2830    3.0980   21.2177 C.2     1  UNL1        0.2636
     26 O          -0.9674    4.4829   21.6998 O.2     1  UNL1       -0.2685
     27 H          -2.8860    1.8436   20.4743 H       1  UNL1        0.1498
@<TRIPOS>BOND
     1    23    24    1
     2    24    25   am
     3    25    26    2
     4    25     1    1
     5     1     2    2
     6     2     3    1
     7     3     4    2
     8     4     5    1
     9     5    10    1
    10    10    16    1
    11    16    17    1
    12    17    18   ar
    13    18    19   ar
    14    19    20   ar
    15    20    21   ar
    16    21    22   ar
    17    10    11    1
    18    11    12    1
    19    12    13    1
    20    13    14    1
    21     5     6    2
    22     6     7    1
    23     7     8    1
    24     8     9    2
    25     9     1    1
    26     8     3    1
    27    14    10    1
    28    22    17   ar
    29    24    27    1
    30    13    15    1
@<TRIPOS>MOLECULE
*****
 27 30 0 0 0
SMALL
GASTEIGER

@<TRIPOS>ATOM
      1 C           5.2261   -0.8825   26.3803 C.2     1  UNL1        0.1341
      2 C           4.2630   -1.7006   25.5722 C.2     1  UNL1        0.0249
      3 C           4.7410   -1.7092   24.1505 C.2     1  UNL1        0.0152
      4 C           4.1929   -2.3521   22.9111 C.2     1  UNL1       -0.0033
      5 C           4.9034   -2.1822   21.6010 C.2     1  UNL1       -0.0250
      6 C           6.1621   -1.3694   21.5304 C.2     1  UNL1       -0.0240
      7 C           6.7103   -0.7264   22.7698 C.3     1  UNL1        0.0714
      8 C           5.9997   -0.8963   24.0798 C.2     1  UNL1        0.0635
      9 N           6.2995   -0.3854   25.4579 N.2     1  UNL1       -0.2448
     10 C           4.3553   -2.8251   20.3616 C.3     1  UNL1        0.0385
     11 C           3.8192   -3.1772   19.0056 C.3     1  UNL1        0.0228
     12 C           3.5447   -4.6516   18.9842 C.3     1  UNL1        0.0689
     13 N           3.9110   -5.2109   20.3269 N.3     1  UNL1       -0.2972
     14 C           4.4120   -4.0821   21.1782 C.3     1  UNL1        0.0729
     15 H           4.6413   -5.9151   20.2210 H       1  UNL1        0.1233
     16 C           4.4131   -1.4338   19.8041 C.3     1  UNL1        0.0317
     17 C           3.1508   -0.6422   19.6308 C.ar    1  UNL1       -0.0218
     18 C           3.0691    0.4167   18.5715 C.ar    1  UNL1       -0.0043
     19 C           1.8068    1.2083   18.3981 C.ar    1  UNL1       -0.0003
     20 C           0.6262    0.9409   19.2840 C.ar    1  UNL1       -0.0000
     21 C           0.7079   -0.1180   20.3433 C.ar    1  UNL1       -0.0003
     22 C           1.9703   -0.9096   20.5167 C.ar    1  UNL1       -0.0043
     23 C           5.4660   -1.3830   30.3099 C.3     1  UNL1        0.1110
     24 N           5.5597   -1.6561   28.8379 N.am    1  UNL1       -0.2979
     25 C           5.1324   -0.6094   27.8522 C.2     1  UNL1        0.2636
     26 O           4.6113    0.7105   28.3384 O.2     1  UNL1       -0.2685
     27 H           5.9017   -2.5224   28.5188 H       1  UNL1        0.1498
@<TRIPOS>BOND
     1    23    24    1
     2    24    25   am
     3    25    26    2
     4    25     1    1
     5     1     2    2
     6     2     3    1
     7     3     4    2
     8     4     5    1
     9     5    10    1
    10    10    16    1
    11    16    17    1
    12    17    18   ar
    13    18    19   ar
    14    19    20   ar
    15    20    21   ar
    16    21    22   ar
    17    10    11    1
    18    11    12    1
    19    12    13    1
    20    13    14    1
    21     5     6    2
    22     6     7    1
    23     7     8    1
    24     8     9    2
    25     9     1    1
    26     8     3    1
    27    14    10    1
    28    22    17   ar
    29    24    27    1
    30    13    15    1
@<TRIPOS>MOLECULE
*****
 27 30 0 0 0
SMALL
GASTEIGER

@<TRIPOS>ATOM
      1 C           0.9301    1.5458   22.9228 C.2     1  UNL1        0.1341
      2 C           2.3754    1.6056   22.5261 C.2     1  UNL1        0.0249
      3 C           2.4758    1.2173   21.0807 C.2     1  UNL1        0.0152
      4 C           3.6481    1.0979   20.1526 C.2     1  UNL1       -0.0033
      5 C           3.4371    0.6788   18.7279 C.2     1  UNL1       -0.0250
      6 C           2.0538    0.3789   18.2314 C.2     1  UNL1       -0.0240
      7 C           0.8815    0.4982   19.1595 C.3     1  UNL1        0.0714
      8 C           1.0925    0.9174   20.5841 C.2     1  UNL1        0.0635
      9 N           0.1372    1.1204   21.7226 N.2     1  UNL1       -0.2448
     10 C           4.6094    0.5594   17.7997 C.3     1  UNL1        0.0385
     11 C           5.6864    0.1427   16.8423 C.3     1  UNL1        0.0228
     12 C           6.5630    1.3323   16.5845 C.3     1  UNL1        0.0689
     13 N           6.0279    2.4841   17.3826 N.3     1  UNL1       -0.2972
     14 C           4.8205    2.0065   18.1336 C.3     1  UNL1        0.0729
     15 H           5.7674    3.2469   16.7575 H       1  UNL1        0.1233
     16 C           4.1533   -0.8627   17.6599 C.3     1  UNL1        0.0317
     17 C           4.6086   -1.8968   18.6464 C.ar    1  UNL1       -0.0218
     18 C           3.7046   -3.0380   19.0077 C.ar    1  UNL1       -0.0043
     19 C           4.1599   -4.0721   19.9943 C.ar    1  UNL1       -0.0003
     20 C           5.5191   -3.9651   20.6196 C.ar    1  UNL1       -0.0000
     21 C           6.4231   -2.8239   20.2583 C.ar    1  UNL1       -0.0003
     22 C           5.9678   -1.7897   19.2717 C.ar    1  UNL1       -0.0043
     23 C          -0.2001    1.1088   26.7020 C.3     1  UNL1        0.1110
     24 N           0.3549    0.7979   25.3435 N.am    1  UNL1       -0.2979
     25 C           0.3750    1.8567   24.2812 C.2     1  UNL1        0.2636
     26 O          -0.1599    3.2264   24.5774 O.2     1  UNL1       -0.2685
     27 H           0.7060   -0.1011   25.1492 H       1  UNL1        0.1498
@<TRIPOS>BOND
     1    23    24    1
     2    24    25   am
     3    25    26    2
     4    25     1    1
     5     1     2    2
     6     2     3    1
     7     3     4    2
     8     4     5    1
     9     5    10    1
    10    10    16    1
    11    16    17    1
    12    17    18   ar
    13    18    19   ar
    14    19    20   ar
    15    20    21   ar
    16    21    22   ar
    17    10    11    1
    18    11    12    1
    19    12    13    1
    20    13    14    1
    21     5     6    2
    22     6     7    1
    23     7     8    1
    24     8     9    2
    25     9     1    1
    26     8     3    1
    27    14    10    1
    28    22    17   ar
    29    24    27    1
    30    13    15    1
@<TRIPOS>MOLECULE
*****
 27 30 0 0 0
SMALL
GASTEIGER

@<TRIPOS>ATOM
      1 C          -8.4673  -16.2472   26.0457 C.2     1  UNL1        0.1341
      2 C          -8.1679  -16.1641   24.5782 C.2     1  UNL1        0.0249
      3 C          -8.6952  -17.4080   23.9264 C.2     1  UNL1        0.0152
      4 C          -8.6867  -17.8750   22.5010 C.2     1  UNL1       -0.0033
      5 C          -9.3035  -19.1938   22.1403 C.2     1  UNL1       -0.0250
      6 C          -9.9288  -20.0456   23.2049 C.2     1  UNL1       -0.0240
      7 C          -9.9372  -19.5786   24.6303 C.3     1  UNL1        0.0714
      8 C          -9.3204  -18.2598   24.9910 C.2     1  UNL1        0.0635
      9 N          -9.1796  -17.5424   26.3008 N.2     1  UNL1       -0.2448
     10 C          -9.2951  -19.6609   20.7148 C.3     1  UNL1        0.0385
     11 C          -9.5986  -20.1098   19.3161 C.3     1  UNL1        0.0228
     12 C          -8.2960  -20.3762   18.6219 C.3     1  UNL1        0.0689
     13 N          -7.1873  -20.0918   19.5914 N.3     1  UNL1       -0.2972
     14 C          -7.8048  -19.6497   20.8849 C.3     1  UNL1        0.0729
     15 H          -6.5872  -19.3534   19.2241 H       1  UNL1        0.1233
     16 C         -10.7871  -19.5743   20.8427 C.3     1  UNL1        0.0317
     17 C         -11.4693  -18.2401   20.7770 C.ar    1  UNL1       -0.0218
     18 C         -12.4339  -17.8371   21.8529 C.ar    1  UNL1       -0.0043
     19 C         -13.1161  -16.5029   21.7872 C.ar    1  UNL1       -0.0003
     20 C         -12.8338  -15.5715   20.6457 C.ar    1  UNL1       -0.0000
     21 C         -11.8694  -15.9745   19.5699 C.ar    1  UNL1       -0.0003
     22 C         -11.1871  -17.3088   19.6355 C.ar    1  UNL1       -0.0043
     23 C          -6.3561  -13.6810   28.2154 C.3     1  UNL1        0.1110
     24 N          -6.7074  -14.7121   27.1842 N.am    1  UNL1       -0.2979
     25 C          -8.1160  -15.2161   27.0770 C.2     1  UNL1        0.2636
     26 O          -9.1735  -14.6891   28.0011 O.2     1  UNL1       -0.2685
     27 H          -6.0133  -15.0580   26.5777 H       1  UNL1        0.1498
@<TRIPOS>BOND
     1    23    24    1
     2    24    25   am
     3    25    26    2
     4    25     1    1
     5     1     2    2
     6     2     3    1
     7     3     4    2
     8     4     5    1
     9     5    10    1
    10    10    16    1
    11    16    17    1
    12    17    18   ar
    13    18    19   ar
    14    19    20   ar
    15    20    21   ar
    16    21    22   ar
    17    10    11    1
    18    11    12    1
    19    12    13    1
    20    13    14    1
    21     5     6    2
    22     6     7    1
    23     7     8    1
    24     8     9    2
    25     9     1    1
    26     8     3    1
    27    14    10    1
    28    22    17   ar
    29    24    27    1
    30    13    15    1
@<TRIPOS>MOLECULE
*****
 27 30 0 0 0
SMALL
GASTEIGER

@<TRIPOS>ATOM
      1 C           0.9413    3.8161   18.5892 C.2     1  UNL1        0.1341
      2 C           2.2222    3.1045   18.2684 C.2     1  UNL1        0.0249
      3 C           2.1372    1.7185   18.8356 C.2     1  UNL1        0.0152
      4 C           3.1017    0.5698   18.8274 C.2     1  UNL1       -0.0033
      5 C           2.7327   -0.7240   19.4907 C.2     1  UNL1       -0.0250
      6 C           1.3992   -0.8690   20.1621 C.2     1  UNL1       -0.0240
      7 C           0.4347    0.2797   20.1702 C.3     1  UNL1        0.0714
      8 C           0.8037    1.5734   19.5070 C.2     1  UNL1        0.0635
      9 N           0.0647    2.8698   19.3547 N.2     1  UNL1       -0.2448
     10 C           3.6972   -1.8728   19.4825 C.3     1  UNL1        0.0385
     11 C           4.5769   -3.0521   19.7748 C.3     1  UNL1        0.0228
     12 C           5.3245   -3.3949   18.5204 C.3     1  UNL1        0.0689
     13 N           4.9069   -2.4275   17.4529 N.3     1  UNL1       -0.2972
     14 C           3.9012   -1.4868   18.0475 C.3     1  UNL1        0.0729
     15 H           4.4886   -2.9331   16.6720 H       1  UNL1        0.1233
     16 C           3.2917   -2.0187   20.9193 C.3     1  UNL1        0.0317
     17 C           4.2826   -1.7401   22.0103 C.ar    1  UNL1       -0.0218
     18 C           4.4724   -2.7294   23.1218 C.ar    1  UNL1       -0.0043
     19 C           5.4633   -2.4509   24.2128 C.ar    1  UNL1       -0.0003
     20 C           6.2646   -1.1829   24.1924 C.ar    1  UNL1       -0.0000
     21 C           6.0749   -0.1936   23.0810 C.ar    1  UNL1       -0.0003
     22 C           5.0839   -0.4722   21.9899 C.ar    1  UNL1       -0.0043
     23 C           0.4608    7.1068   16.4235 C.3     1  UNL1        0.1110
     24 N           0.8046    5.6966   16.8018 N.am    1  UNL1       -0.2979
     25 C           0.5975    5.2263   18.2110 C.2     1  UNL1        0.2636
     26 O           0.0465    6.1662   19.2419 O.2     1  UNL1       -0.2685
     27 H           1.1663    5.0797   16.1251 H       1  UNL1        0.1498
@<TRIPOS>BOND
     1    23    24    1
     2    24    25   am
     3    25    26    2
     4    25     1    1
     5     1     2    2
     6     2     3    1
     7     3     4    2
     8     4     5    1
     9     5    10    1
    10    10    16    1
    11    16    17    1
    12    17    18   ar
    13    18    19   ar
    14    19    20   ar
    15    20    21   ar
    16    21    22   ar
    17    10    11    1
    18    11    12    1
    19    12    13    1
    20    13    14    1
    21     5     6    2
    22     6     7    1
    23     7     8    1
    24     8     9    2
    25     9     1    1
    26     8     3    1
    27    14    10    1
    28    22    17   ar
    29    24    27    1
    30    13    15    1
@<TRIPOS>MOLECULE
*****
 27 30 0 0 0
SMALL
GASTEIGER

@<TRIPOS>ATOM
      1 C           1.4792    1.0085   24.3417 C.2     1  UNL1        0.1341
      2 C           2.5958    0.0426   24.0764 C.2     1  UNL1        0.0249
      3 C           2.5466   -0.3357   22.6258 C.2     1  UNL1        0.0152
      4 C           3.3980   -1.2522   21.7981 C.2     1  UNL1       -0.0033
      5 C           3.1025   -1.4366   20.3392 C.2     1  UNL1       -0.0250
      6 C           1.9555   -0.7046   19.7079 C.2     1  UNL1       -0.0240
      7 C           1.1041    0.2119   20.5355 C.3     1  UNL1        0.0714
      8 C           1.3996    0.3964   21.9945 C.2     1  UNL1        0.0635
      9 N           0.7400    1.2271   23.0550 N.2     1  UNL1       -0.2448
     10 C           3.9539   -2.3532   19.5114 C.3     1  UNL1        0.0385
     11 C           4.8038   -3.0323   18.4787 C.3     1  UNL1        0.0228
     12 C           5.1584   -4.3956   18.9939 C.3     1  UNL1        0.0689
     13 N           4.5277   -4.5592   20.3450 N.3     1  UNL1       -0.2972
     14 C           3.7833   -3.2968   20.6648 C.3     1  UNL1        0.0729
     15 H           5.2498   -4.7224   21.0466 H       1  UNL1        0.1233
     16 C           3.9466   -1.2179   18.5311 C.3     1  UNL1        0.0317
     17 C           5.2047   -0.4437   18.2707 C.ar    1  UNL1       -0.0218
     18 C           6.1894   -0.2177   19.3795 C.ar    1  UNL1       -0.0043
     19 C           7.4475    0.5565   19.1191 C.ar    1  UNL1       -0.0003
     20 C           7.7209    1.1047   17.7499 C.ar    1  UNL1       -0.0000
     21 C           6.7363    0.8787   16.6411 C.ar    1  UNL1       -0.0003
     22 C           5.4782    0.1045   16.9015 C.ar    1  UNL1       -0.0043
     23 C          -0.3388    3.2027   27.1040 C.3     1  UNL1        0.1110
     24 N          -0.0178    2.5671   25.7838 N.am    1  UNL1       -0.2979
     25 C           1.1583    1.6441   25.6620 C.2     1  UNL1        0.2636
     26 O           2.0134    1.3568   26.8603 O.2     1  UNL1       -0.2685
     27 H          -0.5791    2.7557   24.9973 H       1  UNL1        0.1498
@<TRIPOS>BOND
     1    23    24    1
     2    24    25   am
     3    25    26    2
     4    25     1    1
     5     1     2    2
     6     2     3    1
     7     3     4    2
     8     4     5    1
     9     5    10    1
    10    10    16    1
    11    16    17    1
    12    17    18   ar
    13    18    19   ar
    14    19    20   ar
    15    20    21   ar
    16    21    22   ar
    17    10    11    1
    18    11    12    1
    19    12    13    1
    20    13    14    1
    21     5     6    2
    22     6     7    1
    23     7     8    1
    24     8     9    2
    25     9     1    1
    26     8     3    1
    27    14    10    1
    28    22    17   ar
    29    24    27    1
    30    13    15    1
