@<TRIPOS>MOLECULE
*****
 22 24 0 0 0
SMALL
GASTEIGER

@<TRIPOS>ATOM
      1 N          -9.9112  -17.4268   24.4287 N.pl3   1  UNL1       -0.3144
      2 H          -9.9444  -18.0958   25.1502 H       1  UNL1        0.1485
      3 C         -10.3316  -17.8016   23.0384 C.ar    1  UNL1        0.1301
      4 N         -11.7135  -17.4710   22.5580 N.ar    1  UNL1       -0.2293
      5 C         -12.1339  -17.8458   21.1678 C.ar    1  UNL1        0.1018
      6 C         -11.1723  -18.5511   20.2579 C.ar    1  UNL1        0.0379
      7 C          -9.7903  -18.8817   20.7384 C.ar    1  UNL1        0.0640
      8 C          -9.3699  -18.5069   22.1286 C.ar    1  UNL1        0.0483
      9 C          -7.9531  -18.9599   22.3225 C.ar    1  UNL1        0.0170
     10 C          -7.4979  -19.6146   21.0521 C.ar    1  UNL1        0.0376
     11 C          -6.1448  -20.2128   20.8041 C.3     1  UNL1        0.0500
     12 N          -8.6333  -19.5663   20.0730 N.ar    1  UNL1       -0.3285
     13 C          -8.6150  -20.1075   18.6742 C.3     1  UNL1        0.1301
     14 C          -9.4402  -16.0327   24.7197 C.3     1  UNL1        0.1147
     15 C          -7.5674  -15.3084   22.4907 C.3     1  UNL1        0.0307
     16 C          -7.0550  -15.4138   23.8964 C.ar    1  UNL1       -0.0245
     17 C          -5.6060  -15.1571   24.1878 C.ar    1  UNL1       -0.0045
     18 C          -5.0935  -15.2626   25.5935 C.ar    1  UNL1       -0.0007
     19 C          -6.0299  -15.6247   26.7080 C.ar    1  UNL1       -0.0045
     20 C          -7.4787  -15.8814   26.4168 C.ar    1  UNL1       -0.0245
     21 C          -8.4151  -16.2435   27.5313 C.3     1  UNL1        0.0307
     22 C          -7.9913  -15.7760   25.0109 C.ar    1  UNL1       -0.0105
@<TRIPOS>BOND
     1    15    16    1
     2    16    17   ar
     3    17    18   ar
     4    18    19   ar
     5    19    20   ar
     6    20    21    1
     7    20    22   ar
     8    22    14    1
     9    14     1    1
    10     1     3    1
    11     3     4   ar
    12     4     5   ar
    13     5     6   ar
    14     6     7   ar
    15     7     8   ar
    16     8     9   ar
    17     9    10   ar
    18    10    11    1
    19    10    12   ar
    20    12    13    1
    21    22    16   ar
    22     8     3   ar
    23    12     7   ar
    24     1     2    1
@<TRIPOS>MOLECULE
*****
 22 24 0 0 0
SMALL
GASTEIGER

@<TRIPOS>ATOM
      1 N          -8.2152  -18.6219   20.6859 N.pl3   1  UNL1       -0.3144
      2 H          -8.3382  -18.1942   19.8078 H       1  UNL1        0.1485
      3 C          -7.0044  -18.3038   21.5122 C.ar    1  UNL1        0.1301
      4 N          -5.6739  -18.8954   21.1518 N.ar    1  UNL1       -0.2293
      5 C          -4.4632  -18.5772   21.9781 C.ar    1  UNL1        0.1018
      6 C          -4.5828  -17.6675   23.1647 C.ar    1  UNL1        0.0379
      7 C          -5.9132  -17.0759   23.5251 C.ar    1  UNL1        0.0640
      8 C          -7.1240  -17.3940   22.6988 C.ar    1  UNL1        0.0483
      9 C          -8.2945  -16.6679   23.2929 C.ar    1  UNL1        0.0170
     10 C          -7.8070  -15.9010   24.4863 C.ar    1  UNL1        0.0376
     11 C          -8.6442  -15.0342   25.3795 C.3     1  UNL1        0.0500
     12 N          -6.3353  -16.1532   24.6298 N.ar    1  UNL1       -0.3285
     13 C          -5.4425  -15.5828   25.6916 C.3     1  UNL1        0.1301
     14 C          -9.2388  -19.5916   21.1977 C.3     1  UNL1        0.1147
     15 C          -9.5201  -20.3227   24.0937 C.3     1  UNL1        0.0307
     16 C         -10.5550  -19.4605   23.4338 C.ar    1  UNL1       -0.0245
     17 C         -11.7308  -18.9638   24.2219 C.ar    1  UNL1       -0.0045
     18 C         -12.7657  -18.1017   23.5621 C.ar    1  UNL1       -0.0007
     19 C         -12.6251  -17.7361   22.1141 C.ar    1  UNL1       -0.0045
     20 C         -11.4495  -18.2328   21.3260 C.ar    1  UNL1       -0.0245
     21 C         -11.3088  -17.8673   19.8780 C.3     1  UNL1        0.0307
     22 C         -10.4144  -19.0950   21.9858 C.ar    1  UNL1       -0.0105
@<TRIPOS>BOND
     1    15    16    1
     2    16    17   ar
     3    17    18   ar
     4    18    19   ar
     5    19    20   ar
     6    20    21    1
     7    20    22   ar
     8    22    14    1
     9    14     1    1
    10     1     3    1
    11     3     4   ar
    12     4     5   ar
    13     5     6   ar
    14     6     7   ar
    15     7     8   ar
    16     8     9   ar
    17     9    10   ar
    18    10    11    1
    19    10    12   ar
    20    12    13    1
    21    22    16   ar
    22     8     3   ar
    23    12     7   ar
    24     1     2    1
@<TRIPOS>MOLECULE
*****
 22 24 0 0 0
SMALL
GASTEIGER

@<TRIPOS>ATOM
      1 N          -9.9531  -20.3272   23.0788 N.pl3   1  UNL1       -0.3144
      2 H         -10.0441  -20.8881   23.8828 H       1  UNL1        0.1485
      3 C          -8.6557  -19.6306   22.7931 C.ar    1  UNL1        0.1301
      4 N          -7.6400  -20.2749   21.8969 N.ar    1  UNL1       -0.2293
      5 C          -6.3427  -19.5783   21.6112 C.ar    1  UNL1        0.1018
      6 C          -6.0611  -18.2374   22.2217 C.ar    1  UNL1        0.0379
      7 C          -7.0768  -17.5931   23.1178 C.ar    1  UNL1        0.0640
      8 C          -8.3742  -18.2897   23.4035 C.ar    1  UNL1        0.0483
      9 C          -9.1783  -17.4149   24.3191 C.ar    1  UNL1        0.0170
     10 C          -8.3779  -16.1776   24.5993 C.ar    1  UNL1        0.0376
     11 C          -8.8017  -15.0314   25.4691 C.3     1  UNL1        0.0500
     12 N          -7.0791  -16.2877   23.8568 N.ar    1  UNL1       -0.3285
     13 C          -5.9763  -15.2711   23.8539 C.3     1  UNL1        0.1301
     14 C         -11.1119  -20.1693   22.1395 C.3     1  UNL1        0.1147
     15 C         -10.0890  -19.4762   19.4058 C.3     1  UNL1        0.0307
     16 C         -10.9048  -18.4806   20.1760 C.ar    1  UNL1       -0.0245
     17 C         -11.2091  -17.1383   19.5794 C.ar    1  UNL1       -0.0045
     18 C         -12.0248  -16.1427   20.3497 C.ar    1  UNL1       -0.0007
     19 C         -12.5363  -16.4893   21.7165 C.ar    1  UNL1       -0.0045
     20 C         -12.2320  -17.8314   22.3132 C.ar    1  UNL1       -0.0245
     21 C         -12.7434  -18.1780   23.6800 C.3     1  UNL1        0.0307
     22 C         -11.4162  -18.8271   21.5429 C.ar    1  UNL1       -0.0105
@<TRIPOS>BOND
     1    15    16    1
     2    16    17   ar
     3    17    18   ar
     4    18    19   ar
     5    19    20   ar
     6    20    21    1
     7    20    22   ar
     8    22    14    1
     9    14     1    1
    10     1     3    1
    11     3     4   ar
    12     4     5   ar
    13     5     6   ar
    14     6     7   ar
    15     7     8   ar
    16     8     9   ar
    17     9    10   ar
    18    10    11    1
    19    10    12   ar
    20    12    13    1
    21    22    16   ar
    22     8     3   ar
    23    12     7   ar
    24     1     2    1
@<TRIPOS>MOLECULE
*****
 22 24 0 0 0
SMALL
GASTEIGER

@<TRIPOS>ATOM
      1 N          -4.9336  -16.2864   23.2028 N.pl3   1  UNL1       -0.3144
      2 H          -4.5733  -15.4935   22.7437 H       1  UNL1        0.1485
      3 C          -6.2534  -16.2076   23.9114 C.ar    1  UNL1        0.1301
      4 N          -6.3442  -15.5508   25.2569 N.ar    1  UNL1       -0.2293
      5 C          -7.6639  -15.4722   25.9654 C.ar    1  UNL1        0.1018
      6 C          -8.8928  -16.0502   25.3285 C.ar    1  UNL1        0.0379
      7 C          -8.8020  -16.7070   23.9830 C.ar    1  UNL1        0.0640
      8 C          -7.4822  -16.7857   23.2745 C.ar    1  UNL1        0.0483
      9 C          -7.6992  -17.4881   21.9669 C.ar    1  UNL1        0.0170
     10 C          -9.1531  -17.8435   21.8674 C.ar    1  UNL1        0.0376
     11 C          -9.8102  -18.5565   20.7228 C.3     1  UNL1        0.0500
     12 N          -9.8346  -17.3607   23.1134 N.ar    1  UNL1       -0.3285
     13 C         -11.2928  -17.5062   23.4336 C.3     1  UNL1        0.1301
     14 C          -4.1628  -17.5732   23.1936 C.3     1  UNL1        0.1147
     15 C          -1.9021  -16.3195   21.6713 C.3     1  UNL1        0.0307
     16 C          -2.5830  -17.5421   21.1314 C.ar    1  UNL1       -0.0245
     17 C          -2.1335  -18.1380   19.8302 C.ar    1  UNL1       -0.0045
     18 C          -2.8144  -19.3606   19.2902 C.ar    1  UNL1       -0.0007
     19 C          -3.9448  -19.9874   20.0513 C.ar    1  UNL1       -0.0045
     20 C          -4.3942  -19.3916   21.3525 C.ar    1  UNL1       -0.0245
     21 C          -5.5246  -20.0184   22.1136 C.3     1  UNL1        0.0307
     22 C          -3.7134  -18.1689   21.8925 C.ar    1  UNL1       -0.0105
@<TRIPOS>BOND
     1    15    16    1
     2    16    17   ar
     3    17    18   ar
     4    18    19   ar
     5    19    20   ar
     6    20    21    1
     7    20    22   ar
     8    22    14    1
     9    14     1    1
    10     1     3    1
    11     3     4   ar
    12     4     5   ar
    13     5     6   ar
    14     6     7   ar
    15     7     8   ar
    16     8     9   ar
    17     9    10   ar
    18    10    11    1
    19    10    12   ar
    20    12    13    1
    21    22    16   ar
    22     8     3   ar
    23    12     7   ar
    24     1     2    1
@<TRIPOS>MOLECULE
*****
 22 24 0 0 0
SMALL
GASTEIGER

@<TRIPOS>ATOM
      1 N          -4.9180  -16.3154   23.2121 N.pl3   1  UNL1       -0.3144
      2 H          -4.5304  -15.5207   22.7790 H       1  UNL1        0.1485
      3 C          -6.2467  -16.2207   23.9017 C.ar    1  UNL1        0.1301
      4 N          -6.3524  -15.5451   25.2368 N.ar    1  UNL1       -0.2293
      5 C          -7.6811  -15.4505   25.9264 C.ar    1  UNL1        0.1018
      6 C          -8.9041  -16.0314   25.2809 C.ar    1  UNL1        0.0379
      7 C          -8.7985  -16.7070   23.9458 C.ar    1  UNL1        0.0640
      8 C          -7.4698  -16.8016   23.2563 C.ar    1  UNL1        0.0483
      9 C          -7.6727  -17.5208   21.9556 C.ar    1  UNL1        0.0170
     10 C          -9.1268  -17.8707   21.8414 C.ar    1  UNL1        0.0376
     11 C          -9.7720  -18.5961   20.6979 C.3     1  UNL1        0.0500
     12 N          -9.8226  -17.3677   23.0714 N.ar    1  UNL1       -0.3285
     13 C         -11.2856  -17.5019   23.3739 C.3     1  UNL1        0.1301
     14 C          -4.1798  -17.6208   23.1823 C.3     1  UNL1        0.1147
     15 C          -5.5589  -20.0486   22.0851 C.3     1  UNL1        0.0307
     16 C          -4.4307  -19.4185   21.3235 C.ar    1  UNL1       -0.0245
     17 C          -3.9920  -20.0023   20.0132 C.ar    1  UNL1       -0.0045
     18 C          -2.8637  -19.3723   19.2516 C.ar    1  UNL1       -0.0007
     19 C          -2.1742  -18.1584   19.8002 C.ar    1  UNL1       -0.0045
     20 C          -2.6128  -17.5746   21.1104 C.ar    1  UNL1       -0.0245
     21 C          -1.9233  -16.3607   21.6590 C.3     1  UNL1        0.0307
     22 C          -3.7411  -18.2046   21.8721 C.ar    1  UNL1       -0.0105
@<TRIPOS>BOND
     1    15    16    1
     2    16    17   ar
     3    17    18   ar
     4    18    19   ar
     5    19    20   ar
     6    20    21    1
     7    20    22   ar
     8    22    14    1
     9    14     1    1
    10     1     3    1
    11     3     4   ar
    12     4     5   ar
    13     5     6   ar
    14     6     7   ar
    15     7     8   ar
    16     8     9   ar
    17     9    10   ar
    18    10    11    1
    19    10    12   ar
    20    12    13    1
    21    22    16   ar
    22     8     3   ar
    23    12     7   ar
    24     1     2    1
@<TRIPOS>MOLECULE
*****
 22 24 0 0 0
SMALL
GASTEIGER

@<TRIPOS>ATOM
      1 N          -8.8188  -18.9484   20.0690 N.pl3   1  UNL1       -0.3144
      2 H          -8.8805  -18.5402   19.1753 H       1  UNL1        0.1485
      3 C          -7.5220  -18.9125   20.8221 C.ar    1  UNL1        0.1301
      4 N          -6.4511  -19.9183   20.5199 N.ar    1  UNL1       -0.2293
      5 C          -5.1544  -19.8824   21.2730 C.ar    1  UNL1        0.1018
      6 C          -4.9286  -18.8406   22.3284 C.ar    1  UNL1        0.0379
      7 C          -5.9996  -17.8349   22.6307 C.ar    1  UNL1        0.0640
      8 C          -7.2963  -17.8708   21.8775 C.ar    1  UNL1        0.0483
      9 C          -8.1612  -16.7576   22.3903 C.ar    1  UNL1        0.0170
     10 C          -7.3989  -16.0337   23.4603 C.ar    1  UNL1        0.0376
     11 C          -7.8869  -14.8515   24.2442 C.3     1  UNL1        0.0500
     12 N          -6.0630  -16.6995   23.6089 N.ar    1  UNL1       -0.3285
     13 C          -4.9805  -16.3000   24.5673 C.3     1  UNL1        0.1301
     14 C         -10.0216  -19.6063   20.6777 C.3     1  UNL1        0.1147
     15 C         -11.5061  -17.2673   19.5263 C.3     1  UNL1        0.0307
     16 C         -11.6968  -17.6415   20.9663 C.ar    1  UNL1       -0.0245
     17 C         -12.6298  -16.8462   21.8307 C.ar    1  UNL1       -0.0045
     18 C         -12.8205  -17.2204   23.2707 C.ar    1  UNL1       -0.0007
     19 C         -12.0782  -18.3899   23.8464 C.ar    1  UNL1       -0.0045
     20 C         -11.1453  -19.1852   22.9820 C.ar    1  UNL1       -0.0245
     21 C         -10.4030  -20.3547   23.5577 C.3     1  UNL1        0.0307
     22 C         -10.9545  -18.8110   21.5420 C.ar    1  UNL1       -0.0105
@<TRIPOS>BOND
     1    15    16    1
     2    16    17   ar
     3    17    18   ar
     4    18    19   ar
     5    19    20   ar
     6    20    21    1
     7    20    22   ar
     8    22    14    1
     9    14     1    1
    10     1     3    1
    11     3     4   ar
    12     4     5   ar
    13     5     6   ar
    14     6     7   ar
    15     7     8   ar
    16     8     9   ar
    17     9    10   ar
    18    10    11    1
    19    10    12   ar
    20    12    13    1
    21    22    16   ar
    22     8     3   ar
    23    12     7   ar
    24     1     2    1
@<TRIPOS>MOLECULE
*****
 22 24 0 0 0
SMALL
GASTEIGER

@<TRIPOS>ATOM
      1 N          -6.8302  -18.4871   20.7182 N.pl3   1  UNL1       -0.3144
      2 H          -6.4361  -17.8857   20.0457 H       1  UNL1        0.1485
      3 C          -8.3190  -18.6534   20.7951 C.ar    1  UNL1        0.1301
      4 N          -9.1002  -18.9953   19.5611 N.ar    1  UNL1       -0.2293
      5 C         -10.5890  -19.1615   19.6380 C.ar    1  UNL1        0.1018
      6 C         -11.2965  -18.9858   20.9489 C.ar    1  UNL1        0.0379
      7 C         -10.5153  -18.6439   22.1829 C.ar    1  UNL1        0.0640
      8 C          -9.0266  -18.4777   22.1060 C.ar    1  UNL1        0.0483
      9 C          -8.5260  -18.1421   23.4797 C.ar    1  UNL1        0.0170
     10 C          -9.7054  -18.1010   24.4055 C.ar    1  UNL1        0.0376
     11 C          -9.6629  -17.8022   25.8749 C.3     1  UNL1        0.0500
     12 N         -10.9349  -18.4111   23.6041 N.ar    1  UNL1       -0.3285
     13 C         -12.3376  -18.4769   24.1313 C.3     1  UNL1        0.1301
     14 C          -5.9419  -19.2372   21.6659 C.3     1  UNL1        0.1147
     15 C          -4.8650  -17.1664   23.5506 C.3     1  UNL1        0.0307
     16 C          -3.9319  -17.9134   22.6443 C.ar    1  UNL1       -0.0245
     17 C          -2.4603  -17.6249   22.6804 C.ar    1  UNL1       -0.0045
     18 C          -1.5272  -18.3718   21.7741 C.ar    1  UNL1       -0.0007
     19 C          -2.0656  -19.4072   20.8318 C.ar    1  UNL1       -0.0045
     20 C          -3.5372  -19.6957   20.7957 C.ar    1  UNL1       -0.0245
     21 C          -4.0756  -20.7311   19.8533 C.3     1  UNL1        0.0307
     22 C          -4.4704  -18.9488   21.7020 C.ar    1  UNL1       -0.0105
@<TRIPOS>BOND
     1    15    16    1
     2    16    17   ar
     3    17    18   ar
     4    18    19   ar
     5    19    20   ar
     6    20    21    1
     7    20    22   ar
     8    22    14    1
     9    14     1    1
    10     1     3    1
    11     3     4   ar
    12     4     5   ar
    13     5     6   ar
    14     6     7   ar
    15     7     8   ar
    16     8     9   ar
    17     9    10   ar
    18    10    11    1
    19    10    12   ar
    20    12    13    1
    21    22    16   ar
    22     8     3   ar
    23    12     7   ar
    24     1     2    1
@<TRIPOS>MOLECULE
*****
 22 24 0 0 0
SMALL
GASTEIGER

@<TRIPOS>ATOM
      1 N          -6.8329  -18.4876   20.7144 N.pl3   1  UNL1       -0.3144
      2 H          -6.4403  -17.8727   20.0533 H       1  UNL1        0.1485
      3 C          -8.3216  -18.6551   20.7916 C.ar    1  UNL1        0.1301
      4 N          -9.1027  -18.9980   19.5579 N.ar    1  UNL1       -0.2293
      5 C         -10.5913  -19.1655   19.6352 C.ar    1  UNL1        0.1018
      6 C         -11.2987  -18.9900   20.9462 C.ar    1  UNL1        0.0379
      7 C         -10.5176  -18.6470   22.1799 C.ar    1  UNL1        0.0640
      8 C          -9.0290  -18.4796   22.1026 C.ar    1  UNL1        0.0483
      9 C          -8.5284  -18.1431   23.4761 C.ar    1  UNL1        0.0170
     10 C          -9.7077  -18.1026   24.4022 C.ar    1  UNL1        0.0376
     11 C          -9.6651  -17.8033   25.8714 C.3     1  UNL1        0.0500
     12 N         -10.9371  -18.4141   23.6011 N.ar    1  UNL1       -0.3285
     13 C         -12.3397  -18.4808   24.1285 C.3     1  UNL1        0.1301
     14 C          -5.9424  -19.2570   21.6444 C.3     1  UNL1        0.1147
     15 C          -4.0613  -20.7399   19.8382 C.3     1  UNL1        0.0307
     16 C          -3.5315  -19.7050   20.7859 C.ar    1  UNL1       -0.0245
     17 C          -2.0612  -19.4115   20.8305 C.ar    1  UNL1       -0.0045
     18 C          -1.5314  -18.3766   21.7782 C.ar    1  UNL1       -0.0007
     19 C          -2.4719  -17.6351   22.6814 C.ar    1  UNL1       -0.0045
     20 C          -3.9422  -17.9286   22.6368 C.ar    1  UNL1       -0.0245
     21 C          -4.8828  -17.1871   23.5399 C.3     1  UNL1        0.0307
     22 C          -4.4721  -18.9635   21.6890 C.ar    1  UNL1       -0.0105
@<TRIPOS>BOND
     1    15    16    1
     2    16    17   ar
     3    17    18   ar
     4    18    19   ar
     5    19    20   ar
     6    20    21    1
     7    20    22   ar
     8    22    14    1
     9    14     1    1
    10     1     3    1
    11     3     4   ar
    12     4     5   ar
    13     5     6   ar
    14     6     7   ar
    15     7     8   ar
    16     8     9   ar
    17     9    10   ar
    18    10    11    1
    19    10    12   ar
    20    12    13    1
    21    22    16   ar
    22     8     3   ar
    23    12     7   ar
    24     1     2    1
@<TRIPOS>MOLECULE
*****
 22 24 0 0 0
SMALL
GASTEIGER

@<TRIPOS>ATOM
      1 N          -8.4395  -18.6333   21.0747 N.pl3   1  UNL1       -0.3144
      2 H          -8.4075  -18.4864   20.1017 H       1  UNL1        0.1485
      3 C          -7.4655  -17.9289   21.9720 C.ar    1  UNL1        0.1301
      4 N          -7.9441  -16.8518   22.8998 N.ar    1  UNL1       -0.2293
      5 C          -6.9702  -16.1474   23.7970 C.ar    1  UNL1        0.1018
      6 C          -5.5175  -16.5201   23.7666 C.ar    1  UNL1        0.0379
      7 C          -5.0388  -17.5971   22.8388 C.ar    1  UNL1        0.0640
      8 C          -6.0128  -18.3015   21.9415 C.ar    1  UNL1        0.0483
      9 C          -5.2533  -19.3153   21.1380 C.ar    1  UNL1        0.0170
     10 C          -3.8100  -19.2374   21.5388 C.ar    1  UNL1        0.0376
     11 C          -2.6949  -20.0744   20.9855 C.3     1  UNL1        0.0500
     12 N          -3.6774  -18.1755   22.5899 N.ar    1  UNL1       -0.3285
     13 C          -2.4065  -17.7642   23.2723 C.3     1  UNL1        0.1301
     14 C          -9.4621  -19.5616   21.6598 C.3     1  UNL1        0.1147
     15 C         -10.0136  -20.0709   24.5644 C.3     1  UNL1        0.0307
     16 C         -10.9775  -19.2613   23.7487 C.ar    1  UNL1       -0.0245
     17 C         -12.2171  -18.7062   24.3853 C.ar    1  UNL1       -0.0045
     18 C         -13.1810  -17.8966   23.5696 C.ar    1  UNL1       -0.0007
     19 C         -12.9053  -17.6419   22.1173 C.ar    1  UNL1       -0.0045
     20 C         -11.6657  -18.1969   21.4807 C.ar    1  UNL1       -0.0245
     21 C         -11.3900  -17.9423   20.0284 C.3     1  UNL1        0.0307
     22 C         -10.7017  -19.0066   22.2964 C.ar    1  UNL1       -0.0105
@<TRIPOS>BOND
     1    15    16    1
     2    16    17   ar
     3    17    18   ar
     4    18    19   ar
     5    19    20   ar
     6    20    21    1
     7    20    22   ar
     8    22    14    1
     9    14     1    1
    10     1     3    1
    11     3     4   ar
    12     4     5   ar
    13     5     6   ar
    14     6     7   ar
    15     7     8   ar
    16     8     9   ar
    17     9    10   ar
    18    10    11    1
    19    10    12   ar
    20    12    13    1
    21    22    16   ar
    22     8     3   ar
    23    12     7   ar
    24     1     2    1
