@<TRIPOS>MOLECULE
*****
 31 34 0 0 0
SMALL
GASTEIGER

@<TRIPOS>ATOM
      1 C          -4.1535  -19.2481   20.5004 C.ar    1  UNL1        0.0528
      2 C          -5.2321  -18.2401   20.7654 C.ar    1  UNL1        0.0166
      3 C          -6.6721  -18.6601   20.7473 C.ar    1  UNL1        0.0483
      4 C          -7.0333  -20.0881   20.4641 C.ar    1  UNL1        0.0169
      5 C          -5.9545  -21.0962   20.1991 C.ar    1  UNL1        0.0307
      6 C          -4.5147  -20.6762   20.2172 C.ar    1  UNL1        0.1402
      7 F          -3.4360  -21.6842   19.9521 F       1  UNL1       -0.2044
      8 C          -2.8797  -19.2506   21.9482 C.3     1  UNL1        0.0607
      9 C          -2.7136  -18.8281   20.5185 C.3     1  UNL1        0.2223
     10 C          -3.0475  -18.5516   19.0825 C.3     1  UNL1        0.1959
     11 O          -1.9993  -18.0017   18.1611 O.3     1  UNL1       -0.3374
     12 C          -0.6171  -17.7284   18.6758 C.3     1  UNL1        0.2591
     13 C          -0.2832  -18.0049   20.1117 C.2     1  UNL1        0.3194
     14 N           1.0990  -17.7316   20.6264 N.pl3   1  UNL1       -0.2480
     15 N          -1.3314  -18.5548   21.0331 N.2     1  UNL1       -0.0693
     16 H           1.7870  -17.3707   20.0217 H       1  UNL1        0.2882
     17 H           1.3182  -17.9131   21.5688 H       1  UNL1        0.2882
     18 N          -7.7507  -17.6520   21.0124 N.pl3   1  UNL1       -0.3113
     19 H          -7.9701  -16.9753   20.3318 H       1  UNL1        0.1523
     20 C          -8.4952  -17.6750   22.3144 C.ar    1  UNL1        0.0670
     21 C          -9.8002  -18.4070   22.4194 C.ar    1  UNL1        0.0275
     22 C         -10.5446  -18.4299   23.7214 C.ar    1  UNL1        0.0590
     23 CL        -11.8497  -19.1619   23.8264 Cl      1  UNL1       -0.0822
     24 C          -9.9841  -17.7208   24.9184 C.ar    1  UNL1        0.0130
     25 C          -8.6790  -16.9887   24.8135 C.ar    1  UNL1        0.0206
     26 C          -8.1184  -16.2796   26.0105 C.ar    1  UNL1        0.0145
     27 C          -6.8134  -15.5476   25.9055 C.ar    1  UNL1        0.0768
     28 CL         -6.2528  -14.8385   27.1026 Cl      1  UNL1       -0.0806
     29 C          -6.0690  -15.5247   24.6035 C.ar    1  UNL1        0.1102
     30 N          -6.6295  -16.2338   23.4065 N.ar    1  UNL1       -0.2417
     31 C          -7.9345  -16.9658   23.5115 C.ar    1  UNL1        0.0947
@<TRIPOS>BOND
     1     9     8    1
     2     9     1    1
     3     1     2   ar
     4     2     3   ar
     5     3    18    1
     6    18    20    1
     7    20    21   ar
     8    21    22   ar
     9    22    23    1
    10    22    24   ar
    11    24    25   ar
    12    25    26   ar
    13    26    27   ar
    14    27    28    1
    15    27    29   ar
    16    29    30   ar
    17    30    31   ar
    18     3     4   ar
    19     4     5   ar
    20     5     6   ar
    21     6     7    1
    22     9    10    1
    23    10    11    1
    24    11    12    1
    25    12    13    1
    26    13    14    1
    27    13    15    2
    28    15     9    1
    29     6     1   ar
    30    31    20   ar
    31    31    25   ar
    32    18    19    1
    33    14    16    1
    34    14    17    1
@<TRIPOS>MOLECULE
*****
 31 34 0 0 0
SMALL
GASTEIGER

@<TRIPOS>ATOM
      1 C          -7.6303  -16.2255   23.5396 C.ar    1  UNL1        0.0528
      2 C          -6.2841  -16.8476   23.3143 C.ar    1  UNL1        0.0166
      3 C          -5.1917  -16.6582   24.3247 C.ar    1  UNL1        0.0483
      4 C          -5.4455  -15.8467   25.5604 C.ar    1  UNL1        0.0169
      5 C          -6.7918  -15.2246   25.7858 C.ar    1  UNL1        0.0307
      6 C          -7.8841  -15.4140   24.7754 C.ar    1  UNL1        0.1402
      7 F          -9.2303  -14.7919   25.0007 F       1  UNL1       -0.2044
      8 C          -8.0977  -15.1563   22.0044 C.3     1  UNL1        0.0607
      9 C          -8.7226  -16.4150   22.5293 C.3     1  UNL1        0.2223
     10 C          -8.9682  -17.6078   23.4050 C.3     1  UNL1        0.1959
     11 O         -10.0890  -18.5529   23.0881 O.3     1  UNL1       -0.3374
     12 C         -10.9643  -18.3052   21.8954 C.3     1  UNL1        0.2591
     13 C         -10.7187  -17.1124   21.0197 C.2     1  UNL1        0.3194
     14 N         -11.5941  -16.8647   19.8269 N.pl3   1  UNL1       -0.2480
     15 N          -9.5979  -16.1673   21.3365 N.2     1  UNL1       -0.0693
     16 H         -12.3297  -17.4850   19.6189 H       1  UNL1        0.2882
     17 H         -11.4329  -16.0819   19.2522 H       1  UNL1        0.2882
     18 N          -3.8456  -17.2803   24.0994 N.pl3   1  UNL1       -0.3113
     19 H          -3.2478  -17.4503   24.8629 H       1  UNL1        0.1523
     20 C          -3.4101  -17.6435   22.7107 C.ar    1  UNL1        0.0670
     21 C          -2.2268  -16.9595   22.0927 C.ar    1  UNL1        0.0275
     22 C          -1.7914  -17.3227   20.7040 C.ar    1  UNL1        0.0590
     23 CL         -0.6080  -16.6386   20.0861 Cl      1  UNL1       -0.0822
     24 C          -2.5393  -18.3698   19.9332 C.ar    1  UNL1        0.0130
     25 C          -3.7227  -19.0539   20.5512 C.ar    1  UNL1        0.0206
     26 C          -4.4706  -20.1010   19.7804 C.ar    1  UNL1        0.0145
     27 C          -5.6539  -20.7850   20.3984 C.ar    1  UNL1        0.0768
     28 CL         -6.4018  -21.8322   19.6276 Cl      1  UNL1       -0.0806
     29 C          -6.0893  -20.4218   21.7871 C.ar    1  UNL1        0.1102
     30 N          -5.3414  -19.3747   22.5579 N.ar    1  UNL1       -0.2417
     31 C          -4.1581  -18.6907   21.9399 C.ar    1  UNL1        0.0947
@<TRIPOS>BOND
     1     9     8    1
     2     9     1    1
     3     1     2   ar
     4     2     3   ar
     5     3    18    1
     6    18    20    1
     7    20    21   ar
     8    21    22   ar
     9    22    23    1
    10    22    24   ar
    11    24    25   ar
    12    25    26   ar
    13    26    27   ar
    14    27    28    1
    15    27    29   ar
    16    29    30   ar
    17    30    31   ar
    18     3     4   ar
    19     4     5   ar
    20     5     6   ar
    21     6     7    1
    22     9    10    1
    23    10    11    1
    24    11    12    1
    25    12    13    1
    26    13    14    1
    27    13    15    2
    28    15     9    1
    29     6     1   ar
    30    31    20   ar
    31    31    25   ar
    32    18    19    1
    33    14    16    1
    34    14    17    1
@<TRIPOS>MOLECULE
*****
 31 34 0 0 0
SMALL
GASTEIGER

@<TRIPOS>ATOM
      1 C          -8.2233  -16.4149   23.7652 C.ar    1  UNL1        0.0528
      2 C          -6.9312  -17.0671   23.3716 C.ar    1  UNL1        0.0166
      3 C          -5.6625  -16.7109   24.0882 C.ar    1  UNL1        0.0483
      4 C          -5.6859  -15.7025   25.1984 C.ar    1  UNL1        0.0169
      5 C          -6.9781  -15.0502   25.5920 C.ar    1  UNL1        0.0307
      6 C          -8.2468  -15.4064   24.8754 C.ar    1  UNL1        0.1402
      7 F          -9.5389  -14.7542   25.2690 F       1  UNL1       -0.2044
      8 C          -9.6166  -17.6553   24.2539 C.3     1  UNL1        0.0607
      9 C          -9.4920  -16.7710   23.0487 C.3     1  UNL1        0.2223
     10 C          -8.9269  -15.7631   22.0923 C.3     1  UNL1        0.1959
     11 O          -9.6737  -15.4184   20.8379 O.3     1  UNL1       -0.3374
     12 C         -10.9857  -16.0817   20.5398 C.3     1  UNL1        0.2591
     13 C         -11.5508  -17.0896   21.4962 C.2     1  UNL1        0.3194
     14 N         -12.8628  -17.7529   21.1982 N.pl3   1  UNL1       -0.2480
     15 N         -10.8040  -17.4343   22.7506 N.2     1  UNL1       -0.0693
     16 H         -13.3529  -17.5267   20.3749 H       1  UNL1        0.2882
     17 H         -13.2337  -18.4145   21.8259 H       1  UNL1        0.2882
     18 N          -4.3703  -17.3632   23.6946 N.pl3   1  UNL1       -0.3113
     19 H          -3.5630  -17.2255   24.2409 H       1  UNL1        0.1523
     20 C          -4.3083  -18.2251   22.4686 C.ar    1  UNL1        0.0670
     21 C          -5.3625  -19.2648   22.2285 C.ar    1  UNL1        0.0275
     22 C          -5.3004  -20.1268   21.0025 C.ar    1  UNL1        0.0590
     23 CL         -6.3547  -21.1664   20.7625 Cl      1  UNL1       -0.0822
     24 C          -4.1841  -19.9491   20.0165 C.ar    1  UNL1        0.0130
     25 C          -3.1298  -18.9094   20.2565 C.ar    1  UNL1        0.0206
     26 C          -2.0135  -18.7317   19.2705 C.ar    1  UNL1        0.0145
     27 C          -0.9593  -17.6920   19.5105 C.ar    1  UNL1        0.0768
     28 CL          0.1571  -17.5143   18.5245 Cl      1  UNL1       -0.0806
     29 C          -1.0213  -16.8301   20.7366 C.ar    1  UNL1        0.1102
     30 N          -2.1376  -17.0078   21.7226 N.ar    1  UNL1       -0.2417
     31 C          -3.1919  -18.0474   21.4825 C.ar    1  UNL1        0.0947
@<TRIPOS>BOND
     1     9     8    1
     2     9     1    1
     3     1     2   ar
     4     2     3   ar
     5     3    18    1
     6    18    20    1
     7    20    21   ar
     8    21    22   ar
     9    22    23    1
    10    22    24   ar
    11    24    25   ar
    12    25    26   ar
    13    26    27   ar
    14    27    28    1
    15    27    29   ar
    16    29    30   ar
    17    30    31   ar
    18     3     4   ar
    19     4     5   ar
    20     5     6   ar
    21     6     7    1
    22     9    10    1
    23    10    11    1
    24    11    12    1
    25    12    13    1
    26    13    14    1
    27    13    15    2
    28    15     9    1
    29     6     1   ar
    30    31    20   ar
    31    31    25   ar
    32    18    19    1
    33    14    16    1
    34    14    17    1
@<TRIPOS>MOLECULE
*****
 31 34 0 0 0
SMALL
GASTEIGER

@<TRIPOS>ATOM
      1 C          -5.8400  -16.1735   23.9130 C.ar    1  UNL1        0.0528
      2 C          -7.0940  -15.9871   23.1112 C.ar    1  UNL1        0.0166
      3 C          -8.3888  -15.6813   23.8042 C.ar    1  UNL1        0.0483
      4 C          -8.4296  -15.5620   25.2989 C.ar    1  UNL1        0.0169
      5 C          -7.1755  -15.7485   26.1006 C.ar    1  UNL1        0.0307
      6 C          -5.8808  -16.0542   25.4077 C.ar    1  UNL1        0.1402
      7 F          -4.6269  -16.2406   26.2094 F       1  UNL1       -0.2044
      8 C          -4.4758  -14.9812   23.2528 C.3     1  UNL1        0.0607
      9 C          -4.5453  -16.4792   23.2201 C.3     1  UNL1        0.2223
     10 C          -5.0645  -17.8711   23.4279 C.3     1  UNL1        0.1959
     11 O          -4.2648  -19.0484   22.9542 O.3     1  UNL1       -0.3374
     12 C          -2.9459  -18.8339   22.2727 C.3     1  UNL1        0.2591
     13 C          -2.4268  -17.4421   22.0648 C.2     1  UNL1        0.3194
     14 N          -1.1079  -17.2275   21.3832 N.pl3   1  UNL1       -0.2480
     15 N          -3.2264  -16.2647   22.5385 N.2     1  UNL1       -0.0693
     16 H          -0.5830  -18.0003   21.0723 H       1  UNL1        0.2882
     17 H          -0.7671  -16.3140   21.2468 H       1  UNL1        0.2882
     18 N          -9.6427  -15.4949   23.0024 N.pl3   1  UNL1       -0.3113
     19 H          -9.8695  -14.6070   22.6427 H       1  UNL1        0.1523
     20 C         -10.5511  -16.6613   22.7487 C.ar    1  UNL1        0.0670
     21 C         -11.8333  -16.7940   23.5157 C.ar    1  UNL1        0.0275
     22 C         -12.7417  -17.9604   23.2620 C.ar    1  UNL1        0.0590
     23 CL        -14.0240  -18.0931   24.0290 Cl      1  UNL1       -0.0822
     24 C         -12.3679  -18.9941   22.2414 C.ar    1  UNL1        0.0130
     25 C         -11.0856  -18.8614   21.4744 C.ar    1  UNL1        0.0206
     26 C         -10.7117  -19.8951   20.4537 C.ar    1  UNL1        0.0145
     27 C          -9.4295  -19.7623   19.6868 C.ar    1  UNL1        0.0768
     28 CL         -9.0556  -20.7960   18.6661 Cl      1  UNL1       -0.0806
     29 C          -8.5211  -18.5959   19.9405 C.ar    1  UNL1        0.1102
     30 N          -8.8950  -17.5623   20.9611 N.ar    1  UNL1       -0.2417
     31 C         -10.1772  -17.6950   21.7281 C.ar    1  UNL1        0.0947
@<TRIPOS>BOND
     1     9     8    1
     2     9     1    1
     3     1     2   ar
     4     2     3   ar
     5     3    18    1
     6    18    20    1
     7    20    21   ar
     8    21    22   ar
     9    22    23    1
    10    22    24   ar
    11    24    25   ar
    12    25    26   ar
    13    26    27   ar
    14    27    28    1
    15    27    29   ar
    16    29    30   ar
    17    30    31   ar
    18     3     4   ar
    19     4     5   ar
    20     5     6   ar
    21     6     7    1
    22     9    10    1
    23    10    11    1
    24    11    12    1
    25    12    13    1
    26    13    14    1
    27    13    15    2
    28    15     9    1
    29     6     1   ar
    30    31    20   ar
    31    31    25   ar
    32    18    19    1
    33    14    16    1
    34    14    17    1
@<TRIPOS>MOLECULE
*****
 31 34 0 0 0
SMALL
GASTEIGER

@<TRIPOS>ATOM
      1 C          -5.1856  -19.2951   20.2983 C.ar    1  UNL1        0.0528
      2 C          -6.4793  -18.5395   20.2260 C.ar    1  UNL1        0.0166
      3 C          -7.7703  -19.2791   20.0348 C.ar    1  UNL1        0.0483
      4 C          -7.7674  -20.7744   19.9159 C.ar    1  UNL1        0.0169
      5 C          -6.4736  -21.5300   19.9882 C.ar    1  UNL1        0.0307
      6 C          -5.1827  -20.7904   20.1794 C.ar    1  UNL1        0.1402
      7 F          -3.8890  -21.5460   20.2517 F       1  UNL1       -0.2044
      8 C          -3.9498  -18.6003   18.9912 C.3     1  UNL1        0.0607
      9 C          -3.8948  -18.5555   20.4895 C.3     1  UNL1        0.2223
     10 C          -4.2880  -18.7675   21.9214 C.3     1  UNL1        0.1959
     11 O          -3.4096  -18.2554   23.0242 O.3     1  UNL1       -0.3374
     12 C          -2.1378  -17.5313   22.6951 C.3     1  UNL1        0.2591
     13 C          -1.7445  -17.3193   21.2631 C.2     1  UNL1        0.3194
     14 N          -0.4728  -16.5952   20.9340 N.pl3   1  UNL1       -0.2480
     15 N          -2.6230  -17.8314   20.1604 N.2     1  UNL1       -0.0693
     16 H           0.1038  -16.2591   21.6578 H       1  UNL1        0.2882
     17 H          -0.2146  -16.4561   19.9942 H       1  UNL1        0.2882
     18 N          -9.0640  -18.5235   19.9625 N.pl3   1  UNL1       -0.3113
     19 H          -9.4436  -18.2801   19.0874 H       1  UNL1        0.1523
     20 C          -9.7793  -18.1388   21.2236 C.ar    1  UNL1        0.0670
     21 C         -11.2356  -18.4587   21.3872 C.ar    1  UNL1        0.0275
     22 C         -11.9509  -18.0740   22.6483 C.ar    1  UNL1        0.0590
     23 CL        -13.4073  -18.3940   22.8119 Cl      1  UNL1       -0.0822
     24 C         -11.2100  -17.3693   23.7457 C.ar    1  UNL1        0.0130
     25 C          -9.7536  -17.0494   23.5821 C.ar    1  UNL1        0.0206
     26 C          -9.0127  -16.3447   24.6796 C.ar    1  UNL1        0.0145
     27 C          -7.5564  -16.0248   24.5159 C.ar    1  UNL1        0.0768
     28 CL         -6.8154  -15.3201   25.6134 Cl      1  UNL1       -0.0806
     29 C          -6.8410  -16.4095   23.2549 C.ar    1  UNL1        0.1102
     30 N          -7.5820  -17.1142   22.1574 N.ar    1  UNL1       -0.2417
     31 C          -9.0383  -17.4341   22.3211 C.ar    1  UNL1        0.0947
@<TRIPOS>BOND
     1     9     8    1
     2     9     1    1
     3     1     2   ar
     4     2     3   ar
     5     3    18    1
     6    18    20    1
     7    20    21   ar
     8    21    22   ar
     9    22    23    1
    10    22    24   ar
    11    24    25   ar
    12    25    26   ar
    13    26    27   ar
    14    27    28    1
    15    27    29   ar
    16    29    30   ar
    17    30    31   ar
    18     3     4   ar
    19     4     5   ar
    20     5     6   ar
    21     6     7    1
    22     9    10    1
    23    10    11    1
    24    11    12    1
    25    12    13    1
    26    13    14    1
    27    13    15    2
    28    15     9    1
    29     6     1   ar
    30    31    20   ar
    31    31    25   ar
    32    18    19    1
    33    14    16    1
    34    14    17    1
@<TRIPOS>MOLECULE
*****
 31 34 0 0 0
SMALL
GASTEIGER

@<TRIPOS>ATOM
      1 C           7.5755   -6.0368   26.9899 C.ar    1  UNL1        0.0528
      2 C           7.6078   -4.8191   26.1148 C.ar    1  UNL1        0.0166
      3 C           7.8446   -4.9611   24.6403 C.ar    1  UNL1        0.0483
      4 C           8.0490   -6.3210   24.0412 C.ar    1  UNL1        0.0169
      5 C           8.0166   -7.5388   24.9164 C.ar    1  UNL1        0.0307
      6 C           7.7798   -7.3967   26.3908 C.ar    1  UNL1        0.1402
      7 F           7.7474   -8.6144   27.2660 F       1  UNL1       -0.2044
      8 C           5.9718   -5.5568   27.9472 C.3     1  UNL1        0.0607
      9 C           7.3387   -5.8947   28.4643 C.3     1  UNL1        0.2223
     10 C           8.7878   -6.2820   28.4694 C.3     1  UNL1        0.1959
     11 O           9.5255   -6.4098   29.7692 O.3     1  UNL1       -0.3374
     12 C           8.8140   -6.1503   31.0640 C.3     1  UNL1        0.2591
     13 C           7.3649   -5.7630   31.0589 C.2     1  UNL1        0.3194
     14 N           6.6534   -5.5036   32.3537 N.pl3   1  UNL1       -0.2480
     15 N           6.6272   -5.6352   29.7591 N.2     1  UNL1       -0.0693
     16 H           7.1376   -5.5875   33.2068 H       1  UNL1        0.2882
     17 H           5.7023   -5.2494   32.3504 H       1  UNL1        0.2882
     18 N           7.8770   -3.7434   23.7652 N.pl3   1  UNL1       -0.3113
     19 H           8.6798   -3.1739   23.7437 H       1  UNL1        0.1523
     20 C           6.6863   -3.3933   22.9228 C.ar    1  UNL1        0.0670
     21 C           6.5513   -3.9625   21.5415 C.ar    1  UNL1        0.0275
     22 C           5.3606   -3.6124   20.6991 C.ar    1  UNL1        0.0590
     23 CL          5.2257   -4.1816   19.3178 Cl      1  UNL1       -0.0822
     24 C           4.3049   -2.6932   21.2379 C.ar    1  UNL1        0.0130
     25 C           4.4398   -2.1240   22.6192 C.ar    1  UNL1        0.0206
     26 C           3.3840   -1.2047   23.1580 C.ar    1  UNL1        0.0145
     27 C           3.5190   -0.6356   24.5392 C.ar    1  UNL1        0.0768
     28 CL          2.4632    0.2837   25.0781 Cl      1  UNL1       -0.0806
     29 C           4.7097   -0.9857   25.3817 C.ar    1  UNL1        0.1102
     30 N           5.7654   -1.9049   24.8429 N.ar    1  UNL1       -0.2417
     31 C           5.6305   -2.4740   23.4616 C.ar    1  UNL1        0.0947
@<TRIPOS>BOND
     1     9     8    1
     2     9     1    1
     3     1     2   ar
     4     2     3   ar
     5     3    18    1
     6    18    20    1
     7    20    21   ar
     8    21    22   ar
     9    22    23    1
    10    22    24   ar
    11    24    25   ar
    12    25    26   ar
    13    26    27   ar
    14    27    28    1
    15    27    29   ar
    16    29    30   ar
    17    30    31   ar
    18     3     4   ar
    19     4     5   ar
    20     5     6   ar
    21     6     7    1
    22     9    10    1
    23    10    11    1
    24    11    12    1
    25    12    13    1
    26    13    14    1
    27    13    15    2
    28    15     9    1
    29     6     1   ar
    30    31    20   ar
    31    31    25   ar
    32    18    19    1
    33    14    16    1
    34    14    17    1
@<TRIPOS>MOLECULE
*****
 31 34 0 0 0
SMALL
GASTEIGER

@<TRIPOS>ATOM
      1 C          -4.9191  -18.1581   21.9186 C.ar    1  UNL1        0.0528
      2 C          -6.1593  -18.7612   21.3284 C.ar    1  UNL1        0.0166
      3 C          -7.4991  -18.4646   21.9343 C.ar    1  UNL1        0.0483
      4 C          -7.5987  -17.5650   23.1305 C.ar    1  UNL1        0.0169
      5 C          -6.3584  -16.9619   23.7207 C.ar    1  UNL1        0.0307
      6 C          -5.0187  -17.2585   23.1148 C.ar    1  UNL1        0.1402
      7 F          -3.7786  -16.6555   23.7050 F       1  UNL1       -0.2044
      8 C          -3.4456  -19.1900   22.6133 C.3     1  UNL1        0.0607
      9 C          -3.5794  -18.4547   21.3127 C.3     1  UNL1        0.2223
     10 C          -4.1785  -17.6165   20.2225 C.3     1  UNL1        0.1959
     11 O          -3.3915  -17.3301   18.9781 O.3     1  UNL1       -0.3374
     12 C          -2.0052  -17.8821   18.8239 C.3     1  UNL1        0.2591
     13 C          -1.4061  -18.7203   19.9141 C.2     1  UNL1        0.3194
     14 N          -0.0199  -19.2722   19.7598 N.pl3   1  UNL1       -0.2480
     15 N          -2.1932  -19.0066   21.1585 N.2     1  UNL1       -0.0693
     16 H           0.4967  -19.0843   18.9431 H       1  UNL1        0.2882
     17 H           0.3733  -19.8224   20.4753 H       1  UNL1        0.2882
     18 N          -8.7392  -19.0676   21.3441 N.pl3   1  UNL1       -0.3113
     19 H          -8.7254  -19.9938   21.0106 H       1  UNL1        0.1523
     20 C         -10.0002  -18.2596   21.2620 C.ar    1  UNL1        0.0670
     21 C         -10.2455  -17.3703   20.0793 C.ar    1  UNL1        0.0275
     22 C         -11.5066  -16.5622   19.9972 C.ar    1  UNL1        0.0590
     23 CL        -11.7518  -15.6729   18.8143 Cl      1  UNL1       -0.0822
     24 C         -12.5224  -16.6434   21.0979 C.ar    1  UNL1        0.0130
     25 C         -12.2771  -17.5327   22.2807 C.ar    1  UNL1        0.0206
     26 C         -13.2929  -17.6139   23.3814 C.ar    1  UNL1        0.0145
     27 C         -13.0476  -18.5032   24.5642 C.ar    1  UNL1        0.0768
     28 CL        -14.0634  -18.5845   25.6649 Cl      1  UNL1       -0.0806
     29 C         -11.7865  -19.3113   24.6462 C.ar    1  UNL1        0.1102
     30 N         -10.7708  -19.2301   23.5456 N.ar    1  UNL1       -0.2417
     31 C         -11.0160  -18.3408   22.3628 C.ar    1  UNL1        0.0947
@<TRIPOS>BOND
     1     9     8    1
     2     9     1    1
     3     1     2   ar
     4     2     3   ar
     5     3    18    1
     6    18    20    1
     7    20    21   ar
     8    21    22   ar
     9    22    23    1
    10    22    24   ar
    11    24    25   ar
    12    25    26   ar
    13    26    27   ar
    14    27    28    1
    15    27    29   ar
    16    29    30   ar
    17    30    31   ar
    18     3     4   ar
    19     4     5   ar
    20     5     6   ar
    21     6     7    1
    22     9    10    1
    23    10    11    1
    24    11    12    1
    25    12    13    1
    26    13    14    1
    27    13    15    2
    28    15     9    1
    29     6     1   ar
    30    31    20   ar
    31    31    25   ar
    32    18    19    1
    33    14    16    1
    34    14    17    1
@<TRIPOS>MOLECULE
*****
 31 34 0 0 0
SMALL
GASTEIGER

@<TRIPOS>ATOM
      1 C         -12.9126   -3.9426   18.5086 C.ar    1  UNL1        0.0528
      2 C         -13.9168   -2.9324   18.0385 C.ar    1  UNL1        0.0166
      3 C         -13.5358   -1.4847   17.9425 C.ar    1  UNL1        0.0483
      4 C         -12.1506   -1.0474   18.3165 C.ar    1  UNL1        0.0169
      5 C         -11.1464   -2.0577   18.7866 C.ar    1  UNL1        0.0307
      6 C         -11.5274   -3.5053   18.8826 C.ar    1  UNL1        0.1402
      7 F         -10.5233   -4.5156   19.3527 F       1  UNL1       -0.2044
      8 C         -13.6365   -4.9380   19.9932 C.3     1  UNL1        0.0607
      9 C         -13.2937   -5.3902   18.6046 C.3     1  UNL1        0.2223
     10 C         -12.8186   -5.3398   17.1827 C.3     1  UNL1        0.1959
     11 O         -12.8436   -6.5798   16.3391 O.3     1  UNL1       -0.3374
     12 C         -13.3437   -7.8703   16.9173 C.3     1  UNL1        0.2591
     13 C         -13.8188   -7.9208   18.3392 C.2     1  UNL1        0.3194
     14 N         -14.3189   -9.2114   18.9175 N.pl3   1  UNL1       -0.2480
     15 N         -13.7938   -6.6808   19.1829 N.2     1  UNL1       -0.0693
     16 H         -14.3353  -10.0253   18.3638 H       1  UNL1        0.2882
     17 H         -14.6307   -9.2446   19.8507 H       1  UNL1        0.2882
     18 N         -14.5400   -0.4745   17.4724 N.pl3   1  UNL1       -0.3113
     19 H         -14.6523   -0.3033   16.5094 H       1  UNL1        0.1523
     20 C         -15.3730    0.2750   18.4696 C.ar    1  UNL1        0.0670
     21 C         -14.9610    1.6485   18.9096 C.ar    1  UNL1        0.0275
     22 C         -15.7941    2.3980   19.9067 C.ar    1  UNL1        0.0590
     23 CL        -15.3820    3.7716   20.3467 Cl      1  UNL1       -0.0822
     24 C         -17.0391    1.7740   20.4638 C.ar    1  UNL1        0.0130
     25 C         -17.4512    0.4004   20.0238 C.ar    1  UNL1        0.0206
     26 C         -18.6962   -0.2236   20.5809 C.ar    1  UNL1        0.0145
     27 C         -19.1082   -1.5971   20.1409 C.ar    1  UNL1        0.0768
     28 CL        -20.3533   -2.2212   20.6980 Cl      1  UNL1       -0.0806
     29 C         -18.2751   -2.3466   19.1438 C.ar    1  UNL1        0.1102
     30 N         -17.0301   -1.7226   18.5867 N.ar    1  UNL1       -0.2417
     31 C         -16.6181   -0.3491   19.0267 C.ar    1  UNL1        0.0947
@<TRIPOS>BOND
     1     9     8    1
     2     9     1    1
     3     1     2   ar
     4     2     3   ar
     5     3    18    1
     6    18    20    1
     7    20    21   ar
     8    21    22   ar
     9    22    23    1
    10    22    24   ar
    11    24    25   ar
    12    25    26   ar
    13    26    27   ar
    14    27    28    1
    15    27    29   ar
    16    29    30   ar
    17    30    31   ar
    18     3     4   ar
    19     4     5   ar
    20     5     6   ar
    21     6     7    1
    22     9    10    1
    23    10    11    1
    24    11    12    1
    25    12    13    1
    26    13    14    1
    27    13    15    2
    28    15     9    1
    29     6     1   ar
    30    31    20   ar
    31    31    25   ar
    32    18    19    1
    33    14    16    1
    34    14    17    1
@<TRIPOS>MOLECULE
*****
 31 34 0 0 0
SMALL
GASTEIGER

@<TRIPOS>ATOM
      1 C         -12.9460   -3.9569   18.6421 C.ar    1  UNL1        0.0528
      2 C         -13.9769   -2.9178   18.3142 C.ar    1  UNL1        0.0166
      3 C         -13.5891   -1.4701   18.2515 C.ar    1  UNL1        0.0483
      4 C         -12.1704   -1.0616   18.5167 C.ar    1  UNL1        0.0169
      5 C         -11.1395   -2.1007   18.8446 C.ar    1  UNL1        0.0307
      6 C         -11.5273   -3.5483   18.9073 C.ar    1  UNL1        0.1402
      7 F         -10.4964   -4.5873   19.2352 F       1  UNL1       -0.2044
      8 C         -13.6279   -4.9947   20.1175 C.3     1  UNL1        0.0607
      9 C         -13.3338   -5.4045   18.7048 C.3     1  UNL1        0.2223
     10 C         -12.9050   -5.3116   17.2704 C.3     1  UNL1        0.1959
     11 O         -12.9662   -6.5240   16.3892 O.3     1  UNL1       -0.3374
     12 C         -13.4561   -7.8293   16.9425 C.3     1  UNL1        0.2591
     13 C         -13.8849   -7.9222   18.3769 C.2     1  UNL1        0.3194
     14 N         -14.3748   -9.2275   18.9302 N.pl3   1  UNL1       -0.2480
     15 N         -13.8237   -6.7098   19.2581 N.2     1  UNL1       -0.0693
     16 H         -14.4150  -10.0233   18.3519 H       1  UNL1        0.2882
     17 H         -14.6562   -9.2885   19.8717 H       1  UNL1        0.2882
     18 N         -14.6201   -0.4311   17.9236 N.pl3   1  UNL1       -0.3113
     19 H         -14.5388    0.0997   17.0985 H       1  UNL1        0.1523
     20 C         -15.7748   -0.2008   18.8529 C.ar    1  UNL1        0.0670
     21 C         -16.7478   -1.3085   19.1289 C.ar    1  UNL1        0.0275
     22 C         -17.9025   -1.0782   20.0582 C.ar    1  UNL1        0.0590
     23 CL        -18.8756   -2.1859   20.3342 Cl      1  UNL1       -0.0822
     24 C         -18.0842    0.2598   20.7115 C.ar    1  UNL1        0.0130
     25 C         -17.1112    1.3675   20.4355 C.ar    1  UNL1        0.0206
     26 C         -17.2929    2.7055   21.0888 C.ar    1  UNL1        0.0145
     27 C         -16.3198    3.8132   20.8127 C.ar    1  UNL1        0.0768
     28 CL        -16.5015    5.1512   21.4660 Cl      1  UNL1       -0.0806
     29 C         -15.1651    3.5829   19.8834 C.ar    1  UNL1        0.1102
     30 N         -14.9834    2.2449   19.2302 N.ar    1  UNL1       -0.2417
     31 C         -15.9565    1.1372   19.5062 C.ar    1  UNL1        0.0947
@<TRIPOS>BOND
     1     9     8    1
     2     9     1    1
     3     1     2   ar
     4     2     3   ar
     5     3    18    1
     6    18    20    1
     7    20    21   ar
     8    21    22   ar
     9    22    23    1
    10    22    24   ar
    11    24    25   ar
    12    25    26   ar
    13    26    27   ar
    14    27    28    1
    15    27    29   ar
    16    29    30   ar
    17    30    31   ar
    18     3     4   ar
    19     4     5   ar
    20     5     6   ar
    21     6     7    1
    22     9    10    1
    23    10    11    1
    24    11    12    1
    25    12    13    1
    26    13    14    1
    27    13    15    2
    28    15     9    1
    29     6     1   ar
    30    31    20   ar
    31    31    25   ar
    32    18    19    1
    33    14    16    1
    34    14    17    1
