@<TRIPOS>MOLECULE
*****
 22 25 0 0 0
SMALL
GASTEIGER

@<TRIPOS>ATOM
      1 C         -10.6146  -17.5090   22.5464 C.3     1  UNL1        0.0390
      2 C         -11.6290  -18.4754   22.0107 C.3     1  UNL1        0.0226
      3 C         -12.7824  -17.6840   21.4692 C.3     1  UNL1        0.0689
      4 N         -12.4809  -16.2284   21.6703 N.3     1  UNL1       -0.2972
      5 C         -11.1411  -16.1202   22.3361 C.3     1  UNL1        0.0728
      6 H         -13.1964  -15.8052   22.2614 H       1  UNL1        0.1233
      7 C          -9.4388  -16.8019   23.1527 C.2     1  UNL1        0.0082
      8 C          -8.4743  -16.0617   22.2743 C.2     1  UNL1        0.2278
      9 N          -7.2984  -15.3545   22.8806 N.2     1  UNL1       -0.0314
     10 C          -7.0872  -15.3878   24.3653 C.2     1  UNL1        0.3719
     11 N          -6.0275  -14.7890   25.2419 N.2     1  UNL1       -0.0308
     12 C          -6.3372  -15.1593   26.6621 C.2     1  UNL1        0.2359
     13 C          -7.5882  -15.9869   26.6632 C.2     1  UNL1        0.0542
     14 C          -8.0518  -16.1281   25.2436 C.2     1  UNL1        0.0741
     15 C          -9.2275  -16.8352   24.6373 C.3     1  UNL1        0.0602
     16 C          -9.8422  -18.7498   22.8835 C.3     1  UNL1        0.0316
     17 C          -6.6816  -20.2684   20.0631 C.ar    1  UNL1       -0.0000
     18 C          -6.4478  -20.3099   21.5442 C.ar    1  UNL1       -0.0003
     19 C          -7.5013  -19.8038   22.4843 C.ar    1  UNL1       -0.0043
     20 C          -8.7887  -19.2560   21.9434 C.ar    1  UNL1       -0.0218
     21 C          -9.0225  -19.2144   20.4623 C.ar    1  UNL1       -0.0043
     22 C          -7.9690  -19.7206   19.5221 C.ar    1  UNL1       -0.0003
@<TRIPOS>BOND
     1    17    18   ar
     2    18    19   ar
     3    19    20   ar
     4    20    16    1
     5    16     1    1
     6     1     7    1
     7     7     8    2
     8     8     9    1
     9     9    10    2
    10    10    11    1
    11    11    12    2
    12    12    13    1
    13    13    14    2
    14    14    15    1
    15     1     2    1
    16     2     3    1
    17     3     4    1
    18     4     5    1
    19    20    21   ar
    20    21    22   ar
    21    22    17   ar
    22     5     1    1
    23    15     7    1
    24    14    10    1
    25     4     6    1
@<TRIPOS>MOLECULE
*****
 22 25 0 0 0
SMALL
GASTEIGER

@<TRIPOS>ATOM
      1 C          -7.4743  -17.7546   22.5889 C.3     1  UNL1        0.0390
      2 C          -5.9760  -17.6925   22.6204 C.3     1  UNL1        0.0226
      3 C          -5.4481  -19.0470   22.2505 C.3     1  UNL1        0.0689
      4 N          -6.6202  -19.9462   21.9904 N.3     1  UNL1       -0.2972
      5 C          -7.8725  -19.1475   22.1995 C.3     1  UNL1        0.0728
      6 H          -6.6010  -20.7354   22.6363 H       1  UNL1        0.1233
      7 C          -8.9542  -17.5151   22.6410 C.2     1  UNL1        0.0082
      8 C          -9.5750  -16.4637   21.7699 C.2     1  UNL1        0.2278
      9 N         -11.0549  -16.2242   21.8221 N.2     1  UNL1       -0.0314
     10 C         -11.9139  -17.0362   22.7454 C.2     1  UNL1        0.3719
     11 N         -13.3900  -17.0257   23.0119 N.2     1  UNL1       -0.0308
     12 C         -13.6814  -18.0707   24.0477 C.2     1  UNL1        0.2359
     13 C         -12.3855  -18.7271   24.4215 C.2     1  UNL1        0.0542
     14 C         -11.2931  -18.0877   23.6166 C.2     1  UNL1        0.0741
     15 C          -9.8132  -18.3272   23.5644 C.3     1  UNL1        0.0602
     16 C          -7.3856  -16.3118   22.9891 C.3     1  UNL1        0.0316
     17 C          -6.6286  -15.2113   27.2863 C.ar    1  UNL1       -0.0000
     18 C          -8.0098  -15.5918   26.8416 C.ar    1  UNL1       -0.0003
     19 C          -8.2621  -15.9586   25.4092 C.ar    1  UNL1       -0.0043
     20 C          -7.1333  -15.9450   24.4215 C.ar    1  UNL1       -0.0218
     21 C          -5.7522  -15.5645   24.8662 C.ar    1  UNL1       -0.0043
     22 C          -5.4998  -15.1977   26.2986 C.ar    1  UNL1       -0.0003
@<TRIPOS>BOND
     1    17    18   ar
     2    18    19   ar
     3    19    20   ar
     4    20    16    1
     5    16     1    1
     6     1     7    1
     7     7     8    2
     8     8     9    1
     9     9    10    2
    10    10    11    1
    11    11    12    2
    12    12    13    1
    13    13    14    2
    14    14    15    1
    15     1     2    1
    16     2     3    1
    17     3     4    1
    18     4     5    1
    19    20    21   ar
    20    21    22   ar
    21    22    17   ar
    22     5     1    1
    23    15     7    1
    24    14    10    1
    25     4     6    1
@<TRIPOS>MOLECULE
*****
 22 25 0 0 0
SMALL
GASTEIGER

@<TRIPOS>ATOM
      1 C          -8.0349  -16.9293   23.5964 C.3     1  UNL1        0.0390
      2 C          -9.0636  -16.4528   24.5785 C.3     1  UNL1        0.0226
      3 C          -8.6634  -15.0833   25.0411 C.3     1  UNL1        0.0689
      4 N          -7.3873  -14.7133   24.3449 N.3     1  UNL1       -0.2972
      5 C          -6.9988  -15.8542   23.4520 C.3     1  UNL1        0.0728
      6 H          -6.6531  -14.5469   25.0332 H       1  UNL1        0.1233
      7 C          -7.1855  -17.6626   22.6008 C.2     1  UNL1        0.0082
      8 C          -7.7295  -17.9784   21.2392 C.2     1  UNL1        0.2278
      9 N          -6.8801  -18.7117   20.2437 N.2     1  UNL1       -0.0314
     10 C          -5.4867  -19.1291   20.6100 C.2     1  UNL1        0.3719
     11 N          -4.4234  -19.8585   19.8437 N.2     1  UNL1       -0.0308
     12 C          -3.2222  -19.9935   20.7319 C.2     1  UNL1        0.2359
     13 C          -3.5431  -19.3475   22.0470 C.2     1  UNL1        0.0542
     14 C          -4.9427  -18.8132   21.9717 C.2     1  UNL1        0.0741
     15 C          -5.7921  -18.0800   22.9671 C.3     1  UNL1        0.0602
     16 C          -8.8933  -18.1577   23.5326 C.3     1  UNL1        0.0316
     17 C         -13.3750  -17.7674   23.4225 C.ar    1  UNL1       -0.0000
     18 C         -12.7216  -18.6151   24.4734 C.ar    1  UNL1       -0.0003
     19 C         -11.2276  -18.7452   24.5101 C.ar    1  UNL1       -0.0043
     20 C         -10.3872  -18.0276   23.4959 C.ar    1  UNL1       -0.0218
     21 C         -11.0406  -17.1800   22.4449 C.ar    1  UNL1       -0.0043
     22 C         -12.5345  -17.0498   22.4081 C.ar    1  UNL1       -0.0003
@<TRIPOS>BOND
     1    17    18   ar
     2    18    19   ar
     3    19    20   ar
     4    20    16    1
     5    16     1    1
     6     1     7    1
     7     7     8    2
     8     8     9    1
     9     9    10    2
    10    10    11    1
    11    11    12    2
    12    12    13    1
    13    13    14    2
    14    14    15    1
    15     1     2    1
    16     2     3    1
    17     3     4    1
    18     4     5    1
    19    20    21   ar
    20    21    22   ar
    21    22    17   ar
    22     5     1    1
    23    15     7    1
    24    14    10    1
    25     4     6    1
@<TRIPOS>MOLECULE
*****
 22 25 0 0 0
SMALL
GASTEIGER

@<TRIPOS>ATOM
      1 C          -7.4617  -15.7796   24.6785 C.3     1  UNL1        0.0390
      2 C          -6.2052  -15.5389   25.4617 C.3     1  UNL1        0.0226
      3 C          -6.5703  -15.4745   26.9151 C.3     1  UNL1        0.0689
      4 N          -8.0523  -15.6754   27.0303 N.3     1  UNL1       -0.2972
      5 C          -8.6032  -15.8640   25.6479 C.3     1  UNL1        0.0728
      6 H          -8.4798  -14.8575   27.4647 H       1  UNL1        0.1233
      7 C          -8.5261  -16.0129   23.6476 C.2     1  UNL1        0.0082
      8 C          -8.3872  -15.4172   22.2780 C.2     1  UNL1        0.2278
      9 N          -9.4516  -15.6505   21.2471 N.2     1  UNL1       -0.0314
     10 C         -10.6548  -16.4796   21.5859 C.2     1  UNL1        0.3719
     11 N         -11.8570  -16.8788   20.7826 N.2     1  UNL1       -0.0308
     12 C         -12.7389  -17.7213   21.6558 C.2     1  UNL1        0.2359
     13 C         -12.0818  -17.8428   22.9987 C.2     1  UNL1        0.0542
     14 C         -10.7937  -17.0753   22.9555 C.2     1  UNL1        0.0741
     15 C          -9.7293  -16.8420   23.9863 C.3     1  UNL1        0.0602
     16 C          -6.5427  -15.7440   23.4935 C.3     1  UNL1        0.0316
     17 C          -3.9472  -19.2975   22.5517 C.ar    1  UNL1       -0.0000
     18 C          -3.3467  -18.0761   23.1823 C.ar    1  UNL1       -0.0003
     19 C          -4.2119  -16.8917   23.4963 C.ar    1  UNL1       -0.0043
     20 C          -5.6776  -16.9285   23.1796 C.ar    1  UNL1       -0.0218
     21 C          -6.2781  -18.1498   22.5489 C.ar    1  UNL1       -0.0043
     22 C          -5.4130  -19.3343   22.2349 C.ar    1  UNL1       -0.0003
@<TRIPOS>BOND
     1    17    18   ar
     2    18    19   ar
     3    19    20   ar
     4    20    16    1
     5    16     1    1
     6     1     7    1
     7     7     8    2
     8     8     9    1
     9     9    10    2
    10    10    11    1
    11    11    12    2
    12    12    13    1
    13    13    14    2
    14    14    15    1
    15     1     2    1
    16     2     3    1
    17     3     4    1
    18     4     5    1
    19    20    21   ar
    20    21    22   ar
    21    22    17   ar
    22     5     1    1
    23    15     7    1
    24    14    10    1
    25     4     6    1
@<TRIPOS>MOLECULE
*****
 22 25 0 0 0
SMALL
GASTEIGER

@<TRIPOS>ATOM
      1 C          -7.6683  -16.7180   23.6839 C.3     1  UNL1        0.0390
      2 C          -8.9592  -16.2496   24.2874 C.3     1  UNL1        0.0226
      3 C          -8.7306  -14.8867   24.8705 C.3     1  UNL1        0.0689
      4 N          -7.2984  -14.5127   24.6275 N.3     1  UNL1       -0.2972
      5 C          -6.6419  -15.6445   23.8941 C.3     1  UNL1        0.0728
      6 H          -6.8257  -14.3565   25.5177 H       1  UNL1        0.1233
      7 C          -6.5427  -17.4425   23.0069 C.2     1  UNL1        0.0082
      8 C          -5.1223  -17.0513   23.2882 C.2     1  UNL1        0.2278
      9 N          -3.9966  -17.7757   22.6112 N.2     1  UNL1       -0.0314
     10 C          -4.2916  -18.8914   21.6530 C.2     1  UNL1        0.3719
     11 N          -3.3966  -19.7809   20.8420 N.2     1  UNL1       -0.0308
     12 C          -4.2639  -20.7218   20.0595 C.2     1  UNL1        0.2359
     13 C          -5.6950  -20.4139   20.3868 C.2     1  UNL1        0.0542
     14 C          -5.7121  -19.2826   21.3717 C.2     1  UNL1        0.0741
     15 C          -6.8377  -18.5581   22.0487 C.3     1  UNL1        0.0602
     16 C          -8.4593  -17.9429   23.3322 C.3     1  UNL1        0.0316
     17 C         -12.6328  -17.5341   21.6998 C.ar    1  UNL1       -0.0000
     18 C         -11.4733  -16.9495   20.9490 C.ar    1  UNL1       -0.0003
     19 C         -10.0821  -17.0858   21.4932 C.ar    1  UNL1       -0.0043
     20 C          -9.8505  -17.8066   22.7880 C.ar    1  UNL1       -0.0218
     21 C         -11.0101  -18.3912   23.5388 C.ar    1  UNL1       -0.0043
     22 C         -12.4013  -18.2550   22.9947 C.ar    1  UNL1       -0.0003
@<TRIPOS>BOND
     1    17    18   ar
     2    18    19   ar
     3    19    20   ar
     4    20    16    1
     5    16     1    1
     6     1     7    1
     7     7     8    2
     8     8     9    1
     9     9    10    2
    10    10    11    1
    11    11    12    2
    12    12    13    1
    13    13    14    2
    14    14    15    1
    15     1     2    1
    16     2     3    1
    17     3     4    1
    18     4     5    1
    19    20    21   ar
    20    21    22   ar
    21    22    17   ar
    22     5     1    1
    23    15     7    1
    24    14    10    1
    25     4     6    1
@<TRIPOS>MOLECULE
*****
 22 25 0 0 0
SMALL
GASTEIGER

@<TRIPOS>ATOM
      1 C          -7.3899  -16.4953   23.5682 C.3     1  UNL1        0.0390
      2 C          -8.8564  -16.2044   23.6892 C.3     1  UNL1        0.0226
      3 C          -9.0742  -15.4424   24.9628 C.3     1  UNL1        0.0689
      4 N          -7.7423  -15.2625   25.6289 N.3     1  UNL1       -0.2972
      5 C          -6.7013  -15.9132   24.7670 C.3     1  UNL1        0.0728
      6 H          -7.7535  -15.7017   26.5494 H       1  UNL1        0.1233
      7 C          -6.0068  -16.9268   23.1796 C.2     1  UNL1        0.0082
      8 C          -4.8322  -16.0465   23.4878 C.2     1  UNL1        0.2278
      9 N          -3.4490  -16.4780   23.0992 N.2     1  UNL1       -0.0314
     10 C          -3.2408  -17.7899   22.4024 C.2     1  UNL1        0.3719
     11 N          -2.0040  -18.4751   21.9017 N.2     1  UNL1       -0.0308
     12 C          -2.4143  -19.7790   21.2840 C.2     1  UNL1        0.2359
     13 C          -3.9047  -19.8996   21.4029 C.2     1  UNL1        0.0542
     14 C          -4.4155  -18.6702   22.0942 C.2     1  UNL1        0.0741
     15 C          -5.7985  -18.2387   22.4828 C.3     1  UNL1        0.0602
     16 C          -7.7892  -17.1676   22.2882 C.3     1  UNL1        0.0316
     17 C         -11.1234  -20.1899   22.2793 C.ar    1  UNL1       -0.0000
     18 C         -10.1254  -20.1774   23.3990 C.ar    1  UNL1       -0.0003
     19 C          -9.0140  -19.1700   23.4020 C.ar    1  UNL1       -0.0043
     20 C          -8.9006  -18.1750   22.2853 C.ar    1  UNL1       -0.0218
     21 C          -9.8986  -18.1875   21.1655 C.ar    1  UNL1       -0.0043
     22 C         -11.0100  -19.1949   21.1625 C.ar    1  UNL1       -0.0003
@<TRIPOS>BOND
     1    17    18   ar
     2    18    19   ar
     3    19    20   ar
     4    20    16    1
     5    16     1    1
     6     1     7    1
     7     7     8    2
     8     8     9    1
     9     9    10    2
    10    10    11    1
    11    11    12    2
    12    12    13    1
    13    13    14    2
    14    14    15    1
    15     1     2    1
    16     2     3    1
    17     3     4    1
    18     4     5    1
    19    20    21   ar
    20    21    22   ar
    21    22    17   ar
    22     5     1    1
    23    15     7    1
    24    14    10    1
    25     4     6    1
@<TRIPOS>MOLECULE
*****
 22 25 0 0 0
SMALL
GASTEIGER

@<TRIPOS>ATOM
      1 C         -11.1985   -6.0905   18.6619 C.3     1  UNL1        0.0390
      2 C          -9.7492   -6.2335   19.0211 C.3     1  UNL1        0.0226
      3 C          -9.2969   -7.5968   18.5890 C.3     1  UNL1        0.0689
      4 N         -10.4666   -8.2964   17.9627 N.3     1  UNL1       -0.2972
      5 C         -11.6419   -7.3655   18.0077 C.3     1  UNL1        0.0728
      6 H         -10.6794   -9.1480   18.4823 H       1  UNL1        0.1233
      7 C         -12.6172   -5.6623   18.4292 C.2     1  UNL1        0.0082
      8 C         -13.1923   -5.6931   17.0443 C.2     1  UNL1        0.2278
      9 N         -14.6110   -5.2649   16.8116 N.2     1  UNL1       -0.0314
     10 C         -15.4544   -4.8059   17.9640 C.2     1  UNL1        0.3719
     11 N         -16.8743   -4.3283   18.0410 N.2     1  UNL1       -0.0308
     12 C         -17.1765   -4.0023   19.4736 C.2     1  UNL1        0.2359
     13 C         -15.9435   -4.2785   20.2820 C.2     1  UNL1        0.0542
     14 C         -14.8792   -4.7751   19.3490 C.2     1  UNL1        0.0741
     15 C         -13.4606   -5.2033   19.5816 C.3     1  UNL1        0.0602
     16 C         -11.0517   -4.7261   19.2673 C.3     1  UNL1        0.0316
     17 C         -10.4298   -1.1433   16.6164 C.ar    1  UNL1       -0.0000
     18 C         -11.2262   -1.0117   17.8807 C.ar    1  UNL1       -0.0003
     19 C         -11.4335   -2.2059   18.7643 C.ar    1  UNL1       -0.0043
     20 C         -10.8444   -3.5318   18.3837 C.ar    1  UNL1       -0.0218
     21 C         -10.0480   -3.6635   17.1194 C.ar    1  UNL1       -0.0043
     22 C          -9.8407   -2.4693   16.2357 C.ar    1  UNL1       -0.0003
@<TRIPOS>BOND
     1    17    18   ar
     2    18    19   ar
     3    19    20   ar
     4    20    16    1
     5    16     1    1
     6     1     7    1
     7     7     8    2
     8     8     9    1
     9     9    10    2
    10    10    11    1
    11    11    12    2
    12    12    13    1
    13    13    14    2
    14    14    15    1
    15     1     2    1
    16     2     3    1
    17     3     4    1
    18     4     5    1
    19    20    21   ar
    20    21    22   ar
    21    22    17   ar
    22     5     1    1
    23    15     7    1
    24    14    10    1
    25     4     6    1
@<TRIPOS>MOLECULE
*****
 22 25 0 0 0
SMALL
GASTEIGER

@<TRIPOS>ATOM
      1 C          -9.0528  -18.2425   21.7027 C.3     1  UNL1        0.0390
      2 C          -9.3406  -19.1579   20.5499 C.3     1  UNL1        0.0226
      3 C         -10.3726  -18.5004   19.6823 C.3     1  UNL1        0.0689
      4 N         -10.7226  -17.1785   20.2990 N.3     1  UNL1       -0.2972
      5 C          -9.9069  -17.0191   21.5477 C.3     1  UNL1        0.0728
      6 H         -11.7160  -17.1562   20.5292 H       1  UNL1        0.1233
      7 C          -8.5652  -17.5525   22.9422 C.2     1  UNL1        0.0082
      8 C          -9.3987  -17.5727   24.1891 C.2     1  UNL1        0.2278
      9 N          -8.9111  -16.8828   25.4286 N.2     1  UNL1       -0.0314
     10 C          -7.5898  -16.1727   25.4211 C.2     1  UNL1        0.3719
     11 N          -6.8542  -15.4102   26.4829 N.2     1  UNL1       -0.0308
     12 C          -5.5659  -14.9188   25.8922 C.2     1  UNL1        0.2359
     13 C          -5.5054  -15.3775   24.4653 C.2     1  UNL1        0.0542
     14 C          -6.7563  -16.1525   24.1742 C.2     1  UNL1        0.0741
     15 C          -7.2439  -16.8424   22.9347 C.3     1  UNL1        0.0602
     16 C          -8.0968  -19.3215   22.1169 C.3     1  UNL1        0.0316
     17 C          -3.9353  -19.4183   20.4071 C.ar    1  UNL1       -0.0000
     18 C          -5.1014  -19.0857   19.5242 C.ar    1  UNL1       -0.0003
     19 C          -6.4886  -19.0534   20.0941 C.ar    1  UNL1       -0.0043
     20 C          -6.7096  -19.3538   21.5470 C.ar    1  UNL1       -0.0218
     21 C          -5.5435  -19.6863   22.4299 C.ar    1  UNL1       -0.0043
     22 C          -4.1564  -19.7186   21.8601 C.ar    1  UNL1       -0.0003
@<TRIPOS>BOND
     1    17    18   ar
     2    18    19   ar
     3    19    20   ar
     4    20    16    1
     5    16     1    1
     6     1     7    1
     7     7     8    2
     8     8     9    1
     9     9    10    2
    10    10    11    1
    11    11    12    2
    12    12    13    1
    13    13    14    2
    14    14    15    1
    15     1     2    1
    16     2     3    1
    17     3     4    1
    18     4     5    1
    19    20    21   ar
    20    21    22   ar
    21    22    17   ar
    22     5     1    1
    23    15     7    1
    24    14    10    1
    25     4     6    1
@<TRIPOS>MOLECULE
*****
 22 25 0 0 0
SMALL
GASTEIGER

@<TRIPOS>ATOM
      1 C         -14.5350   -5.2416   19.6859 C.3     1  UNL1        0.0390
      2 C         -13.3851   -4.5025   20.3035 C.3     1  UNL1        0.0226
      3 C         -13.9144   -3.2263   20.8874 C.3     1  UNL1        0.0689
      4 N         -15.3914   -3.1765   20.6307 N.3     1  UNL1       -0.2972
      5 C         -15.7750   -4.4220   19.8881 C.3     1  UNL1        0.0728
      6 H         -15.6178   -2.3554   20.0695 H       1  UNL1        0.1233
      7 C         -15.4665   -6.1936   18.9958 C.2     1  UNL1        0.0082
      8 C         -16.1981   -5.7631   17.7591 C.2     1  UNL1        0.2278
      9 N         -17.1296   -6.7151   17.0691 N.2     1  UNL1       -0.0314
     10 C         -17.3294   -8.0975   17.6158 C.2     1  UNL1        0.3719
     11 N         -18.1767   -9.2463   17.1549 N.2     1  UNL1       -0.0308
     12 C         -17.9687  -10.3868   18.1069 C.2     1  UNL1        0.2359
     13 C         -16.9929   -9.9428   19.1560 C.2     1  UNL1        0.0542
     14 C         -16.5978   -8.5280   18.8525 C.2     1  UNL1        0.0741
     15 C         -15.6664   -7.5760   19.5425 C.3     1  UNL1        0.0602
     16 C         -13.4899   -6.2601   19.3394 C.3     1  UNL1        0.0316
     17 C          -9.9869   -5.1023   16.7627 C.ar    1  UNL1       -0.0000
     18 C         -11.3793   -4.7309   16.3465 C.ar    1  UNL1       -0.0003
     19 C         -12.5469   -5.1168   17.2054 C.ar    1  UNL1       -0.0043
     20 C         -12.3222   -5.8742   18.4805 C.ar    1  UNL1       -0.0218
     21 C         -10.9298   -6.2456   18.8967 C.ar    1  UNL1       -0.0043
     22 C          -9.7621   -5.8597   18.0379 C.ar    1  UNL1       -0.0003
@<TRIPOS>BOND
     1    17    18   ar
     2    18    19   ar
     3    19    20   ar
     4    20    16    1
     5    16     1    1
     6     1     7    1
     7     7     8    2
     8     8     9    1
     9     9    10    2
    10    10    11    1
    11    11    12    2
    12    12    13    1
    13    13    14    2
    14    14    15    1
    15     1     2    1
    16     2     3    1
    17     3     4    1
    18     4     5    1
    19    20    21   ar
    20    21    22   ar
    21    22    17   ar
    22     5     1    1
    23    15     7    1
    24    14    10    1
    25     4     6    1
