@<TRIPOS>MOLECULE
*****
 36 38 0 0 0
SMALL
GASTEIGER

@<TRIPOS>ATOM
      1 C           9.5328   -2.0972   19.2880 C.3     1  UNL1        0.0542
      2 C           8.5735   -2.7587   20.2325 C.ar    1  UNL1        0.0865
      3 N           8.9412   -3.5387   21.4598 N.ar    1  UNL1       -0.1681
      4 N           7.6730   -4.0184   22.1014 N.ar    1  UNL1       -0.2150
      5 C           6.5215   -3.5349   21.2706 C.ar    1  UNL1        0.1539
      6 C           7.0780   -2.7563   20.1156 C.ar    1  UNL1        0.1013
      7 C           7.5738   -4.8379   23.3540 C.ar    1  UNL1        0.0844
      8 C           8.1242   -6.2329   23.3831 C.ar    1  UNL1        0.0215
      9 C           8.0250   -7.0522   24.6356 C.ar    1  UNL1        0.0312
     10 C           7.3752   -6.4765   25.8589 C.ar    1  UNL1        0.1402
     11 F           7.2760   -7.2960   27.1115 F       1  UNL1       -0.2042
     12 C           6.8248   -5.0815   25.8297 C.ar    1  UNL1        0.0312
     13 C           6.9240   -4.2622   24.5773 C.ar    1  UNL1        0.0215
     14 C           6.2793   -2.0920   19.0335 C.2     1  UNL1        0.2498
     15 O           6.1273   -2.7571   17.6977 O.2     1  UNL1       -0.2700
     16 N           5.6327   -0.7626   19.2873 N.am    1  UNL1       -0.3024
     17 H           5.7325   -0.3260   20.1641 H       1  UNL1        0.1497
     18 C           4.8340   -0.0982   18.2054 C.3     1  UNL1        0.0718
     19 C           3.7610   -0.8626   17.4882 C.3     1  UNL1        0.0213
     20 C           5.1084    1.3307   17.8406 C.3     1  UNL1        0.0165
     21 C           6.1628    0.8812   16.8729 C.3     1  UNL1        0.0016
     22 C           4.0542    1.7802   18.8082 C.3     1  UNL1        0.0016
     23 C           5.3829    2.7595   17.4758 C.3     1  UNL1        0.0016
     24 N           5.0686   -3.7858   21.5464 N.pl3   1  UNL1       -0.1987
     25 H           4.7398   -4.7077   21.6527 H       1  UNL1        0.1753
     26 S           4.1167   -2.6321   21.6602 S.O2    1  UNL1        0.0747
     27 O           3.5369   -2.9783   20.3208 O.2     1  UNL1       -0.1499
     28 O           4.6966   -2.2859   22.9996 O.2     1  UNL1       -0.1499
     29 C           3.1649   -1.4784   21.7741 C.ar    1  UNL1        0.1253
     30 C           2.2267   -1.1660   20.6462 C.ar    1  UNL1        0.0209
     31 C           1.2748   -0.0123   20.7601 C.ar    1  UNL1        0.0117
     32 C           1.2612    0.8290   22.0018 C.ar    1  UNL1        0.0685
     33 C           2.1994    0.5167   23.1297 C.ar    1  UNL1        0.0117
     34 C           3.1513   -0.6370   23.0158 C.ar    1  UNL1        0.0209
     35 C           0.3094    1.9827   22.1157 C.1     1  UNL1        0.1004
     36 N          -0.6424    3.1364   22.2296 N.1     1  UNL1       -0.1908
@<TRIPOS>BOND
     1     1     2    1
     2     2     3   ar
     3     3     4   ar
     4     4     7    1
     5     7     8   ar
     6     8     9   ar
     7     9    10   ar
     8    10    11    1
     9    10    12   ar
    10    12    13   ar
    11     4     5   ar
    12     5    24    1
    13    24    26    1
    14    26    27    2
    15    26    28    2
    16    26    29    1
    17    29    30   ar
    18    30    31   ar
    19    31    32   ar
    20    32    35    1
    21    35    36    3
    22    32    33   ar
    23    33    34   ar
    24     5     6   ar
    25     6    14    1
    26    14    15    2
    27    14    16   am
    28    16    18    1
    29    18    19    1
    30    18    20    1
    31    20    21    1
    32    20    22    1
    33    20    23    1
    34     6     2   ar
    35    13     7   ar
    36    34    29   ar
    37    24    25    1
    38    16    17    1
@<TRIPOS>MOLECULE
*****
 36 38 0 0 0
SMALL
GASTEIGER

@<TRIPOS>ATOM
      1 C         -11.4939  -15.5290   22.7331 C.3     1  UNL1        0.0542
      2 C         -10.7008  -16.6929   22.2172 C.ar    1  UNL1        0.0865
      3 N         -10.8459  -17.3296   20.8668 N.ar    1  UNL1       -0.1681
      4 N          -9.8581  -18.4547   20.7762 N.ar    1  UNL1       -0.2150
      5 C          -9.1023  -18.5134   22.0705 C.ar    1  UNL1        0.1539
      6 C          -9.6231  -17.4246   22.9612 C.ar    1  UNL1        0.1013
      7 C          -9.6606  -19.3619   19.5979 C.ar    1  UNL1        0.0844
      8 C          -8.3290  -20.0127   19.3674 C.ar    1  UNL1        0.0215
      9 C          -8.1316  -20.9198   18.1892 C.ar    1  UNL1        0.0312
     10 C          -9.2658  -21.1761   17.2416 C.ar    1  UNL1        0.1402
     11 F          -9.0683  -22.0832   16.0633 F       1  UNL1       -0.2042
     12 C         -10.5974  -20.5252   17.4721 C.ar    1  UNL1        0.0312
     13 C         -10.7948  -19.6181   18.6503 C.ar    1  UNL1        0.0215
     14 C          -9.1495  -17.1208   24.3516 C.2     1  UNL1        0.2498
     15 O          -9.5829  -17.9863   25.4975 O.2     1  UNL1       -0.2700
     16 N          -8.2425  -15.9514   24.5963 N.am    1  UNL1       -0.3024
     17 H          -7.9580  -15.3833   23.8442 H       1  UNL1        0.1497
     18 C          -7.7688  -15.6475   25.9866 C.3     1  UNL1        0.0718
     19 C          -8.7528  -15.2349   27.0408 C.3     1  UNL1        0.0213
     20 C          -6.3110  -15.7564   26.3228 C.3     1  UNL1        0.0165
     21 C          -5.9585  -15.4094   24.9066 C.3     1  UNL1        0.0016
     22 C          -6.6634  -16.1033   27.7389 C.3     1  UNL1        0.0016
     23 C          -4.8532  -15.8652   26.6589 C.3     1  UNL1        0.0016
     24 N          -8.0165  -19.4896   22.4140 N.pl3   1  UNL1       -0.1987
     25 H          -8.2347  -20.3182   22.8989 H       1  UNL1        0.1753
     26 S          -6.5980  -19.2032   22.0188 S.O2    1  UNL1        0.0747
     27 O          -6.3039  -20.6740   22.0086 O.2     1  UNL1       -0.1499
     28 O          -6.8922  -17.7324   22.0290 O.2     1  UNL1       -0.1499
     29 C          -5.1797  -18.9168   21.6236 C.ar    1  UNL1        0.1253
     30 C          -4.2194  -18.3556   22.6300 C.ar    1  UNL1        0.0209
     31 C          -2.8011  -18.0692   22.2348 C.ar    1  UNL1        0.0117
     32 C          -2.3430  -18.3439   20.8331 C.ar    1  UNL1        0.0685
     33 C          -3.3033  -18.9051   19.8266 C.ar    1  UNL1        0.0117
     34 C          -4.7216  -19.1915   20.2219 C.ar    1  UNL1        0.0209
     35 C          -0.9246  -18.0575   20.4378 C.1     1  UNL1        0.1004
     36 N           0.4937  -17.7711   20.0426 N.1     1  UNL1       -0.1908
@<TRIPOS>BOND
     1     1     2    1
     2     2     3   ar
     3     3     4   ar
     4     4     7    1
     5     7     8   ar
     6     8     9   ar
     7     9    10   ar
     8    10    11    1
     9    10    12   ar
    10    12    13   ar
    11     4     5   ar
    12     5    24    1
    13    24    26    1
    14    26    27    2
    15    26    28    2
    16    26    29    1
    17    29    30   ar
    18    30    31   ar
    19    31    32   ar
    20    32    35    1
    21    35    36    3
    22    32    33   ar
    23    33    34   ar
    24     5     6   ar
    25     6    14    1
    26    14    15    2
    27    14    16   am
    28    16    18    1
    29    18    19    1
    30    18    20    1
    31    20    21    1
    32    20    22    1
    33    20    23    1
    34     6     2   ar
    35    13     7   ar
    36    34    29   ar
    37    24    25    1
    38    16    17    1
@<TRIPOS>MOLECULE
*****
 36 38 0 0 0
SMALL
GASTEIGER

@<TRIPOS>ATOM
      1 C           0.7969    6.4403   22.7196 C.3     1  UNL1        0.0542
      2 C          -0.0681    5.4051   22.0636 C.ar    1  UNL1        0.0865
      3 N          -1.4727    5.6088   21.5782 N.ar    1  UNL1       -0.1681
      4 N          -1.9530    4.3141   20.9924 N.ar    1  UNL1       -0.2150
      5 C          -0.8454    3.3103   21.1159 C.ar    1  UNL1        0.1539
      6 C           0.3196    3.9845   21.7779 C.ar    1  UNL1        0.1013
      7 C          -3.3040    4.0667   20.3892 C.ar    1  UNL1        0.0844
      8 C          -3.4464    3.9207   18.9031 C.ar    1  UNL1        0.0215
      9 C          -4.7973    3.6733   18.3000 C.ar    1  UNL1        0.0312
     10 C          -6.0058    3.5721   19.1828 C.ar    1  UNL1        0.1402
     11 F          -7.3567    3.3247   18.5795 F       1  UNL1       -0.2042
     12 C          -5.8633    3.7181   20.6688 C.ar    1  UNL1        0.0312
     13 C          -4.5124    3.9655   21.2720 C.ar    1  UNL1        0.0215
     14 C           1.6404    3.3496   22.0980 C.2     1  UNL1        0.2498
     15 O           2.8362    3.6314   21.2374 O.2     1  UNL1       -0.2700
     16 N           1.7654    2.4330   23.2787 N.am    1  UNL1       -0.3024
     17 H           0.9806    2.2481   23.8436 H       1  UNL1        0.1497
     18 C           3.0861    1.7981   23.5989 C.3     1  UNL1        0.0718
     19 C           4.2062    2.6322   24.1463 C.3     1  UNL1        0.0213
     20 C           3.2867    0.3290   23.3717 C.3     1  UNL1        0.0165
     21 C           2.2873    0.0260   24.4485 C.3     1  UNL1        0.0016
     22 C           4.2860    0.6319   22.2949 C.3     1  UNL1        0.0016
     23 C           3.4872   -1.1401   23.1445 C.3     1  UNL1        0.0016
     24 N          -0.8940    1.8828   20.6578 N.pl3   1  UNL1       -0.1987
     25 H          -1.7374    1.3776   20.7097 H       1  UNL1        0.1753
     26 S           0.3425    1.2250   20.1206 S.O2    1  UNL1        0.0747
     27 O           0.3078    2.1338   18.9278 O.2     1  UNL1       -0.1499
     28 O           0.3771    0.3161   21.3134 O.2     1  UNL1       -0.1499
     29 C           1.5789    0.5672   19.5835 C.ar    1  UNL1        0.1253
     30 C           2.5146    1.3374   18.6997 C.ar    1  UNL1        0.0209
     31 C           3.7511    0.6796   18.1626 C.ar    1  UNL1        0.0117
     32 C           4.0518   -0.7484   18.5093 C.ar    1  UNL1        0.0685
     33 C           3.1161   -1.5187   19.3931 C.ar    1  UNL1        0.0117
     34 C           1.8797   -0.8609   19.9302 C.ar    1  UNL1        0.0209
     35 C           5.2882   -1.4063   17.9722 C.1     1  UNL1        0.1004
     36 N           6.5247   -2.0641   17.4350 N.1     1  UNL1       -0.1908
@<TRIPOS>BOND
     1     1     2    1
     2     2     3   ar
     3     3     4   ar
     4     4     7    1
     5     7     8   ar
     6     8     9   ar
     7     9    10   ar
     8    10    11    1
     9    10    12   ar
    10    12    13   ar
    11     4     5   ar
    12     5    24    1
    13    24    26    1
    14    26    27    2
    15    26    28    2
    16    26    29    1
    17    29    30   ar
    18    30    31   ar
    19    31    32   ar
    20    32    35    1
    21    35    36    3
    22    32    33   ar
    23    33    34   ar
    24     5     6   ar
    25     6    14    1
    26    14    15    2
    27    14    16   am
    28    16    18    1
    29    18    19    1
    30    18    20    1
    31    20    21    1
    32    20    22    1
    33    20    23    1
    34     6     2   ar
    35    13     7   ar
    36    34    29   ar
    37    24    25    1
    38    16    17    1
@<TRIPOS>MOLECULE
*****
 36 38 0 0 0
SMALL
GASTEIGER

@<TRIPOS>ATOM
      1 C           4.7724   -5.3272   19.0029 C.3     1  UNL1        0.0542
      2 C           4.4658   -3.9382   19.4790 C.ar    1  UNL1        0.0865
      3 N           3.3030   -3.0947   19.0473 N.ar    1  UNL1       -0.1681
      4 N           3.3868   -1.7840   19.7719 N.ar    1  UNL1       -0.2150
      5 C           4.6015   -1.8174   20.6514 C.ar    1  UNL1        0.1539
      6 C           5.2683   -3.1488   20.4704 C.ar    1  UNL1        0.1013
      7 C           2.4249   -0.6406   19.6401 C.ar    1  UNL1        0.0844
      8 C           1.1471   -0.6411   20.4257 C.ar    1  UNL1        0.0215
      9 C           0.1852    0.5023   20.2939 C.ar    1  UNL1        0.0312
     10 C           0.5011    1.6461   19.3764 C.ar    1  UNL1        0.1402
     11 F          -0.4609    2.7896   19.2445 F       1  UNL1       -0.2042
     12 C           1.7789    1.6466   18.5907 C.ar    1  UNL1        0.0312
     13 C           2.7407    0.5033   18.7226 C.ar    1  UNL1        0.0215
     14 C           6.5182   -3.6098   21.1598 C.2     1  UNL1        0.2498
     15 O           7.7361   -3.9529   20.3541 O.2     1  UNL1       -0.2700
     16 N           6.5503   -3.7278   22.6548 N.am    1  UNL1       -0.3024
     17 H           5.7509   -3.5026   23.1835 H       1  UNL1        0.1497
     18 C           7.8001   -4.1888   23.3442 C.3     1  UNL1        0.0718
     19 C           9.0201   -3.3161   23.3479 C.3     1  UNL1        0.0213
     20 C           7.8298   -5.5226   24.0299 C.3     1  UNL1        0.0165
     21 C           8.7612   -6.0438   22.9759 C.3     1  UNL1        0.0016
     22 C           6.8985   -5.0014   25.0840 C.3     1  UNL1        0.0016
     23 C           7.8596   -6.8563   24.7157 C.3     1  UNL1        0.0016
     24 N           5.0674   -0.7134   21.5536 N.pl3   1  UNL1       -0.1987
     25 H           5.9323   -0.2735   21.3870 H       1  UNL1        0.1753
     26 S           4.2156   -0.2796   22.7096 S.O2    1  UNL1        0.0747
     27 O           4.3220   -1.6530   23.3034 O.2     1  UNL1       -0.1499
     28 O           4.1093    1.0937   22.1158 O.2     1  UNL1       -0.1499
     29 C           3.3638    0.1542   23.8656 C.ar    1  UNL1        0.1253
     30 C           3.8310   -0.0813   25.2714 C.ar    1  UNL1        0.0209
     31 C           2.9792    0.3525   26.4273 C.ar    1  UNL1        0.0117
     32 C           1.6603    1.0219   26.1775 C.ar    1  UNL1        0.0685
     33 C           1.1931    1.2574   24.7717 C.ar    1  UNL1        0.0117
     34 C           2.0449    0.8236   23.6157 C.ar    1  UNL1        0.0209
     35 C           0.8085    1.4557   27.3334 C.1     1  UNL1        0.1004
     36 N          -0.0433    1.8895   28.4894 N.1     1  UNL1       -0.1908
@<TRIPOS>BOND
     1     1     2    1
     2     2     3   ar
     3     3     4   ar
     4     4     7    1
     5     7     8   ar
     6     8     9   ar
     7     9    10   ar
     8    10    11    1
     9    10    12   ar
    10    12    13   ar
    11     4     5   ar
    12     5    24    1
    13    24    26    1
    14    26    27    2
    15    26    28    2
    16    26    29    1
    17    29    30   ar
    18    30    31   ar
    19    31    32   ar
    20    32    35    1
    21    35    36    3
    22    32    33   ar
    23    33    34   ar
    24     5     6   ar
    25     6    14    1
    26    14    15    2
    27    14    16   am
    28    16    18    1
    29    18    19    1
    30    18    20    1
    31    20    21    1
    32    20    22    1
    33    20    23    1
    34     6     2   ar
    35    13     7   ar
    36    34    29   ar
    37    24    25    1
    38    16    17    1
@<TRIPOS>MOLECULE
*****
 36 38 0 0 0
SMALL
GASTEIGER

@<TRIPOS>ATOM
      1 C           4.8344   -5.3415   18.9542 C.3     1  UNL1        0.0542
      2 C           4.5314   -3.9475   19.4180 C.ar    1  UNL1        0.0865
      3 N           3.3501   -3.1191   19.0081 N.ar    1  UNL1       -0.1681
      4 N           3.4451   -1.7968   19.7100 N.ar    1  UNL1       -0.2150
      5 C           4.6852   -1.8081   20.5538 C.ar    1  UNL1        0.1539
      6 C           5.3566   -3.1373   20.3734 C.ar    1  UNL1        0.1013
      7 C           2.4710   -0.6625   19.5892 C.ar    1  UNL1        0.0844
      8 C           2.7292    0.4471   18.6135 C.ar    1  UNL1        0.0215
      9 C           1.7551    1.5814   18.4928 C.ar    1  UNL1        0.0312
     10 C           0.5229    1.6060   19.3478 C.ar    1  UNL1        0.1402
     11 F          -0.4511    2.7404   19.2271 F       1  UNL1       -0.2042
     12 C           0.2648    0.4965   20.3236 C.ar    1  UNL1        0.0312
     13 C           1.2389   -0.6378   20.4443 C.ar    1  UNL1        0.0215
     14 C           6.6296   -3.5787   21.0326 C.2     1  UNL1        0.2498
     15 O           7.8774   -3.7463   20.2172 O.2     1  UNL1       -0.2700
     16 N           6.6549   -3.8526   22.5071 N.am    1  UNL1       -0.3024
     17 H           5.8359   -3.7426   23.0423 H       1  UNL1        0.1497
     18 C           7.9278   -4.2940   23.1663 C.3     1  UNL1        0.0718
     19 C           9.1125   -3.3747   23.2009 C.3     1  UNL1        0.0213
     20 C           8.0160   -5.6549   23.7911 C.3     1  UNL1        0.0165
     21 C           8.8384   -6.1339   22.6315 C.3     1  UNL1        0.0016
     22 C           7.1936   -5.1760   24.9505 C.3     1  UNL1        0.0016
     23 C           8.1042   -7.0158   24.4157 C.3     1  UNL1        0.0016
     24 N           5.1690   -0.6870   21.4250 N.pl3   1  UNL1       -0.1987
     25 H           5.4545    0.1635   21.0196 H       1  UNL1        0.1753
     26 S           5.2180   -0.8619   22.9140 S.O2    1  UNL1        0.0747
     27 O           6.7082   -0.6935   22.8849 O.2     1  UNL1       -0.1499
     28 O           3.7277   -1.0303   22.9431 O.2     1  UNL1       -0.1499
     29 C           5.2668   -1.0368   24.4030 C.ar    1  UNL1        0.1253
     30 C           6.5869   -1.0364   25.1153 C.ar    1  UNL1        0.0209
     31 C           6.6357   -1.2113   26.6042 C.ar    1  UNL1        0.0117
     32 C           5.3645   -1.3865   27.3809 C.ar    1  UNL1        0.0685
     33 C           4.0444   -1.3869   26.6686 C.ar    1  UNL1        0.0117
     34 C           3.9956   -1.2120   25.1797 C.ar    1  UNL1        0.0209
     35 C           5.4134   -1.5614   28.8699 C.1     1  UNL1        0.1004
     36 N           5.4622   -1.7363   30.3588 N.1     1  UNL1       -0.1908
@<TRIPOS>BOND
     1     1     2    1
     2     2     3   ar
     3     3     4   ar
     4     4     7    1
     5     7     8   ar
     6     8     9   ar
     7     9    10   ar
     8    10    11    1
     9    10    12   ar
    10    12    13   ar
    11     4     5   ar
    12     5    24    1
    13    24    26    1
    14    26    27    2
    15    26    28    2
    16    26    29    1
    17    29    30   ar
    18    30    31   ar
    19    31    32   ar
    20    32    35    1
    21    35    36    3
    22    32    33   ar
    23    33    34   ar
    24     5     6   ar
    25     6    14    1
    26    14    15    2
    27    14    16   am
    28    16    18    1
    29    18    19    1
    30    18    20    1
    31    20    21    1
    32    20    22    1
    33    20    23    1
    34     6     2   ar
    35    13     7   ar
    36    34    29   ar
    37    24    25    1
    38    16    17    1
@<TRIPOS>MOLECULE
*****
 36 38 0 0 0
SMALL
GASTEIGER

@<TRIPOS>ATOM
      1 C          -4.4769    3.9796   21.6119 C.3     1  UNL1        0.0542
      2 C          -3.0407    3.5470   21.6222 C.ar    1  UNL1        0.0865
      3 N          -2.3709    2.6888   20.5903 N.ar    1  UNL1       -0.1681
      4 N          -0.9384    2.5080   20.9967 N.ar    1  UNL1       -0.2150
      5 C          -0.7228    3.2544   22.2798 C.ar    1  UNL1        0.1539
      6 C          -2.0221    3.8965   22.6664 C.ar    1  UNL1        0.1013
      7 C           0.0968    1.7192   20.2508 C.ar    1  UNL1        0.0844
      8 C           0.8888    2.3686   19.1549 C.ar    1  UNL1        0.0215
      9 C           1.9239    1.5798   18.4091 C.ar    1  UNL1        0.0312
     10 C           2.1671    0.1416   18.7592 C.ar    1  UNL1        0.1402
     11 F           3.2023   -0.6472   18.0133 F       1  UNL1       -0.2042
     12 C           1.3751   -0.5077   19.8551 C.ar    1  UNL1        0.0312
     13 C           0.3400    0.2810   20.6009 C.ar    1  UNL1        0.0215
     14 C          -2.2608    4.7401   23.8836 C.2     1  UNL1        0.2498
     15 O          -1.9701    6.2112   23.8453 O.2     1  UNL1       -0.2700
     16 N          -2.7902    4.1126   25.1389 N.am    1  UNL1       -0.3024
     17 H          -2.9810    3.1471   25.1640 H       1  UNL1        0.1497
     18 C          -3.0290    4.9561   26.3560 C.3     1  UNL1        0.0718
     19 C          -1.8714    5.3971   27.2019 C.3     1  UNL1        0.0213
     20 C          -4.4256    5.3586   26.7273 C.3     1  UNL1        0.0165
     21 C          -4.9681    4.2034   25.9390 C.3     1  UNL1        0.0016
     22 C          -3.8831    6.5138   27.5155 C.3     1  UNL1        0.0016
     23 C          -5.8220    5.7611   27.0985 C.3     1  UNL1        0.0016
     24 N           0.5658    3.3431   23.0423 N.pl3   1  UNL1       -0.1987
     25 H           1.4002    3.5747   22.5738 H       1  UNL1        0.1753
     26 S           0.5832    3.0789   24.5189 S.O2    1  UNL1        0.0747
     27 O           1.0049    4.4967   24.7677 O.2     1  UNL1       -0.1499
     28 O           0.1616    1.6611   24.2700 O.2     1  UNL1       -0.1499
     29 C           0.6006    2.8146   25.9953 C.ar    1  UNL1        0.1253
     30 C           1.5996    3.5120   26.8703 C.ar    1  UNL1        0.0209
     31 C           1.6169    3.2477   28.3467 C.ar    1  UNL1        0.0117
     32 C           0.6353    2.2861   28.9481 C.ar    1  UNL1        0.0685
     33 C          -0.3637    1.5888   28.0731 C.ar    1  UNL1        0.0117
     34 C          -0.3811    1.8530   26.5967 C.ar    1  UNL1        0.0209
     35 C           0.6526    2.0219   30.4246 C.1     1  UNL1        0.1004
     36 N           0.6700    1.7576   31.9010 N.1     1  UNL1       -0.1908
@<TRIPOS>BOND
     1     1     2    1
     2     2     3   ar
     3     3     4   ar
     4     4     7    1
     5     7     8   ar
     6     8     9   ar
     7     9    10   ar
     8    10    11    1
     9    10    12   ar
    10    12    13   ar
    11     4     5   ar
    12     5    24    1
    13    24    26    1
    14    26    27    2
    15    26    28    2
    16    26    29    1
    17    29    30   ar
    18    30    31   ar
    19    31    32   ar
    20    32    35    1
    21    35    36    3
    22    32    33   ar
    23    33    34   ar
    24     5     6   ar
    25     6    14    1
    26    14    15    2
    27    14    16   am
    28    16    18    1
    29    18    19    1
    30    18    20    1
    31    20    21    1
    32    20    22    1
    33    20    23    1
    34     6     2   ar
    35    13     7   ar
    36    34    29   ar
    37    24    25    1
    38    16    17    1
@<TRIPOS>MOLECULE
*****
 36 38 0 0 0
SMALL
GASTEIGER

@<TRIPOS>ATOM
      1 C           4.3206   -2.0043   33.5472 C.3     1  UNL1        0.0542
      2 C           4.0350   -1.3616   32.2223 C.ar    1  UNL1        0.0865
      3 N           2.7512   -0.6963   31.8235 N.ar    1  UNL1       -0.1681
      4 N           2.9059   -0.1949   30.4182 N.ar    1  UNL1       -0.2150
      5 C           4.2853   -0.5504   29.9485 C.ar    1  UNL1        0.1539
      6 C           4.9832   -1.2715   31.0634 C.ar    1  UNL1        0.1013
      7 C           1.8640    0.5340   29.6225 C.ar    1  UNL1        0.0844
      8 C           0.8538   -0.2367   28.8253 C.ar    1  UNL1        0.0215
      9 C          -0.1880    0.4922   28.0296 C.ar    1  UNL1        0.0312
     10 C          -0.2197    1.9918   28.0311 C.ar    1  UNL1        0.1402
     11 F          -1.2616    2.7208   27.2353 F       1  UNL1       -0.2042
     12 C           0.7904    2.7626   28.8283 C.ar    1  UNL1        0.0312
     13 C           1.8322    2.0337   29.6240 C.ar    1  UNL1        0.0215
     14 C           6.3834   -1.8082   31.0260 C.2     1  UNL1        0.2498
     15 O           7.5204   -0.9109   30.6359 O.2     1  UNL1       -0.2700
     16 N           6.6467   -3.2421   31.3788 N.am    1  UNL1       -0.3024
     17 H           5.9004   -3.8310   31.6349 H       1  UNL1        0.1497
     18 C           8.0468   -3.7789   31.3415 C.3     1  UNL1        0.0718
     19 C           9.1192   -3.1350   32.1692 C.3     1  UNL1        0.0213
     20 C           8.3744   -4.9597   30.4763 C.3     1  UNL1        0.0165
     21 C           7.2137   -5.7095   31.0601 C.3     1  UNL1        0.0016
     22 C           9.5350   -4.2099   29.8925 C.3     1  UNL1        0.0016
     23 C           8.7020   -6.1404   29.6111 C.3     1  UNL1        0.0016
     24 N           4.8651   -0.2395   28.6005 N.pl3   1  UNL1       -0.1987
     25 H           4.8901    0.6904   28.2779 H       1  UNL1        0.1753
     26 S           5.4069   -1.3453   27.7439 S.O2    1  UNL1        0.0747
     27 O           6.7303   -0.6426   27.6736 O.2     1  UNL1       -0.1499
     28 O           4.0836   -2.0480   27.8142 O.2     1  UNL1       -0.1499
     29 C           5.9486   -2.4512   26.8874 C.ar    1  UNL1        0.1253
     30 C           6.5055   -3.6895   27.5249 C.ar    1  UNL1        0.0209
     31 C           7.0472   -4.7953   26.6684 C.ar    1  UNL1        0.0117
     32 C           7.0321   -4.6628   25.1743 C.ar    1  UNL1        0.0685
     33 C           6.4752   -3.4245   24.5368 C.ar    1  UNL1        0.0117
     34 C           5.9335   -2.3187   25.3933 C.ar    1  UNL1        0.0209
     35 C           7.5738   -5.7687   24.3178 C.1     1  UNL1        0.1004
     36 N           8.1155   -6.8745   23.4613 N.1     1  UNL1       -0.1908
@<TRIPOS>BOND
     1     1     2    1
     2     2     3   ar
     3     3     4   ar
     4     4     7    1
     5     7     8   ar
     6     8     9   ar
     7     9    10   ar
     8    10    11    1
     9    10    12   ar
    10    12    13   ar
    11     4     5   ar
    12     5    24    1
    13    24    26    1
    14    26    27    2
    15    26    28    2
    16    26    29    1
    17    29    30   ar
    18    30    31   ar
    19    31    32   ar
    20    32    35    1
    21    35    36    3
    22    32    33   ar
    23    33    34   ar
    24     5     6   ar
    25     6    14    1
    26    14    15    2
    27    14    16   am
    28    16    18    1
    29    18    19    1
    30    18    20    1
    31    20    21    1
    32    20    22    1
    33    20    23    1
    34     6     2   ar
    35    13     7   ar
    36    34    29   ar
    37    24    25    1
    38    16    17    1
@<TRIPOS>MOLECULE
*****
 36 38 0 0 0
SMALL
GASTEIGER

@<TRIPOS>ATOM
      1 C          -5.8384    3.9857   23.3897 C.3     1  UNL1        0.0542
      2 C          -4.3574    3.8350   23.5737 C.ar    1  UNL1        0.0865
      3 N          -3.6654    3.3924   24.8288 N.ar    1  UNL1       -0.1681
      4 N          -2.1886    3.3843   24.5658 N.ar    1  UNL1       -0.2150
      5 C          -1.9679    3.8219   23.1481 C.ar    1  UNL1        0.1539
      6 C          -3.3082    4.1005   22.5350 C.ar    1  UNL1        0.1013
      7 C          -1.1202    3.0052   25.5480 C.ar    1  UNL1        0.0844
      8 C          -0.7106    3.9705   26.6205 C.ar    1  UNL1        0.0215
      9 C           0.3578    3.5914   27.6027 C.ar    1  UNL1        0.0312
     10 C           1.0166    2.2468   27.5124 C.ar    1  UNL1        0.1402
     11 F           2.0851    1.8677   28.4946 F       1  UNL1       -0.2042
     12 C           0.6071    1.2815   26.4399 C.ar    1  UNL1        0.0312
     13 C          -0.4613    1.6606   25.4577 C.ar    1  UNL1        0.0215
     14 C          -3.5560    4.5632   21.1298 C.2     1  UNL1        0.2498
     15 O          -3.4485    6.0203   20.7901 O.2     1  UNL1       -0.2700
     16 N          -3.9112    3.5689   20.0643 N.am    1  UNL1       -0.3024
     17 H          -3.9817    2.6126   20.2873 H       1  UNL1        0.1497
     18 C          -4.1589    4.0316   18.6592 C.3     1  UNL1        0.0718
     19 C          -3.0423    4.0199   17.6578 C.3     1  UNL1        0.0213
     20 C          -5.5235    4.5060   18.2555 C.3     1  UNL1        0.0165
     21 C          -4.9147    5.7277   17.6334 C.3     1  UNL1        0.0016
     22 C          -6.1323    3.2844   18.8776 C.3     1  UNL1        0.0016
     23 C          -6.8880    4.9804   17.8518 C.3     1  UNL1        0.0016
     24 N          -0.6400    3.9572   22.4637 N.pl3   1  UNL1       -0.1987
     25 H          -0.2391    4.8477   22.3387 H       1  UNL1        0.1753
     26 S           0.0771    2.7358   21.9698 S.O2    1  UNL1        0.0747
     27 O          -1.1192    2.3677   21.1431 O.2     1  UNL1       -0.1499
     28 O           1.2733    3.1038   22.7966 O.2     1  UNL1       -0.1499
     29 C           0.7942    1.5143   21.4760 C.ar    1  UNL1        0.1253
     30 C           1.8382    0.8603   22.3317 C.ar    1  UNL1        0.0209
     31 C           2.5553   -0.3611   21.8379 C.ar    1  UNL1        0.0117
     32 C           2.2284   -0.9285   20.4884 C.ar    1  UNL1        0.0685
     33 C           1.1844   -0.2745   19.6327 C.ar    1  UNL1        0.0117
     34 C           0.4673    0.9469   20.1265 C.ar    1  UNL1        0.0209
     35 C           2.9455   -2.1499   19.9946 C.1     1  UNL1        0.1004
     36 N           3.6626   -3.3713   19.5007 N.1     1  UNL1       -0.1908
@<TRIPOS>BOND
     1     1     2    1
     2     2     3   ar
     3     3     4   ar
     4     4     7    1
     5     7     8   ar
     6     8     9   ar
     7     9    10   ar
     8    10    11    1
     9    10    12   ar
    10    12    13   ar
    11     4     5   ar
    12     5    24    1
    13    24    26    1
    14    26    27    2
    15    26    28    2
    16    26    29    1
    17    29    30   ar
    18    30    31   ar
    19    31    32   ar
    20    32    35    1
    21    35    36    3
    22    32    33   ar
    23    33    34   ar
    24     5     6   ar
    25     6    14    1
    26    14    15    2
    27    14    16   am
    28    16    18    1
    29    18    19    1
    30    18    20    1
    31    20    21    1
    32    20    22    1
    33    20    23    1
    34     6     2   ar
    35    13     7   ar
    36    34    29   ar
    37    24    25    1
    38    16    17    1
@<TRIPOS>MOLECULE
*****
 36 38 0 0 0
SMALL
GASTEIGER

@<TRIPOS>ATOM
      1 C          -4.5709    3.8776   24.1068 C.3     1  UNL1        0.0542
      2 C          -3.2169    3.5385   24.6560 C.ar    1  UNL1        0.0865
      3 N          -2.9206    3.0893   26.0561 N.ar    1  UNL1       -0.1681
      4 N          -1.4420    2.8623   26.1670 N.ar    1  UNL1       -0.2150
      5 C          -0.8245    3.1712   24.8354 C.ar    1  UNL1        0.1539
      6 C          -1.9214    3.5892   23.9015 C.ar    1  UNL1        0.1013
      7 C          -0.7095    2.4064   27.3941 C.ar    1  UNL1        0.0844
      8 C          -0.8655    0.9959   27.8800 C.ar    1  UNL1        0.0215
      9 C          -0.1330    0.5400   29.1070 C.ar    1  UNL1        0.0312
     10 C           0.7553    1.4947   29.8482 C.ar    1  UNL1        0.1402
     11 F           1.4878    1.0388   31.0753 F       1  UNL1       -0.2042
     12 C           0.9113    2.9052   29.3624 C.ar    1  UNL1        0.0312
     13 C           0.1788    3.3611   28.1353 C.ar    1  UNL1        0.0215
     14 C          -1.7525    3.9878   22.4653 C.2     1  UNL1        0.2498
     15 O          -1.1441    5.3151   22.1219 O.2     1  UNL1       -0.2700
     16 N          -2.1920    3.0590   21.3725 N.am    1  UNL1       -0.3024
     17 H          -2.5913    2.1878   21.5979 H       1  UNL1        0.1497
     18 C          -2.0232    3.4575   19.9364 C.3     1  UNL1        0.0718
     19 C          -0.6775    3.3526   19.2821 C.3     1  UNL1        0.0213
     20 C          -3.2002    3.9610   19.1545 C.3     1  UNL1        0.0165
     21 C          -4.1298    3.2874   20.1201 C.3     1  UNL1        0.0016
     22 C          -2.2707    4.6345   18.1890 C.3     1  UNL1        0.0016
     23 C          -4.3771    4.4644   18.3727 C.3     1  UNL1        0.0016
     24 N           0.6339    3.0785   24.4970 N.pl3   1  UNL1       -0.1987
     25 H           1.2698    3.7263   24.8781 H       1  UNL1        0.1753
     26 S           1.1233    1.9988   23.5779 S.O2    1  UNL1        0.0747
     27 O           0.7237    0.9608   24.5843 O.2     1  UNL1       -0.1499
     28 O           1.5230    3.0367   22.5715 O.2     1  UNL1       -0.1499
     29 C           1.6128    0.9191   22.6588 C.ar    1  UNL1        0.1253
     30 C           2.7778    0.0638   23.0600 C.ar    1  UNL1        0.0209
     31 C           3.2673   -1.0159   22.1409 C.ar    1  UNL1        0.0117
     32 C           2.5917   -1.2402   20.8206 C.ar    1  UNL1        0.0685
     33 C           1.4267   -0.3848   20.4194 C.ar    1  UNL1        0.0117
     34 C           0.9372    0.6948   21.3385 C.ar    1  UNL1        0.0209
     35 C           3.0811   -2.3198   19.9015 C.1     1  UNL1        0.1004
     36 N           3.5706   -3.3995   18.9824 N.1     1  UNL1       -0.1908
@<TRIPOS>BOND
     1     1     2    1
     2     2     3   ar
     3     3     4   ar
     4     4     7    1
     5     7     8   ar
     6     8     9   ar
     7     9    10   ar
     8    10    11    1
     9    10    12   ar
    10    12    13   ar
    11     4     5   ar
    12     5    24    1
    13    24    26    1
    14    26    27    2
    15    26    28    2
    16    26    29    1
    17    29    30   ar
    18    30    31   ar
    19    31    32   ar
    20    32    35    1
    21    35    36    3
    22    32    33   ar
    23    33    34   ar
    24     5     6   ar
    25     6    14    1
    26    14    15    2
    27    14    16   am
    28    16    18    1
    29    18    19    1
    30    18    20    1
    31    20    21    1
    32    20    22    1
    33    20    23    1
    34     6     2   ar
    35    13     7   ar
    36    34    29   ar
    37    24    25    1
    38    16    17    1
