@<TRIPOS>MOLECULE
*****
 24 26 0 0 0
SMALL
GASTEIGER

@<TRIPOS>ATOM
      1 C          -7.6225  -15.7954   24.5456 C.ar    1  UNL1        0.1569
      2 C          -7.3518  -15.5310   25.9970 C.ar    1  UNL1        0.1335
      3 N          -5.9429  -15.3379   26.4741 N.ar    1  UNL1       -0.2345
      4 C          -4.8047  -15.4093   25.4998 C.ar    1  UNL1        0.1569
      5 C          -5.0754  -15.6737   24.0483 C.ar    1  UNL1        0.2506
      6 N          -6.4843  -15.8667   23.5712 N.ar    1  UNL1       -0.1933
      7 O          -8.3815  -18.3041   23.0861 O.2     1  UNL1       -0.2681
      8 C          -9.4110  -17.2428   23.3387 C.2     1  UNL1        0.2684
      9 N          -9.0315  -15.9884   24.0684 N.am    1  UNL1       -0.2632
     10 H          -9.7071  -15.2918   24.2342 H       1  UNL1        0.1567
     11 C         -10.8199  -17.4358   22.8615 C.ar    1  UNL1        0.1356
     12 C         -11.9031  -17.7789   23.8408 C.ar    1  UNL1        0.0352
     13 C         -13.3119  -17.9719   23.3636 C.ar    1  UNL1        0.0609
     14 CL        -14.3952  -18.3150   24.3430 Cl      1  UNL1       -0.0821
     15 C         -13.6377  -17.8219   21.9071 C.ar    1  UNL1        0.0321
     16 C         -12.5546  -17.4788   20.9278 C.ar    1  UNL1        0.0999
     17 N         -11.1457  -17.2858   21.4050 N.ar    1  UNL1       -0.2392
     18 O          -3.9372  -15.7450   23.0739 O.3     1  UNL1       -0.4316
     19 C          -3.4444  -17.0775   22.5925 C.ar    1  UNL1        0.1854
     20 C          -4.2949  -18.3004   22.7698 C.ar    1  UNL1        0.1397
     21 N          -3.8022  -19.6328   22.2884 N.ar    1  UNL1       -0.2192
     22 C          -2.4590  -19.7424   21.6296 C.ar    1  UNL1        0.1991
     23 N          -1.6086  -18.5196   21.4524 N.ar    1  UNL1       -0.2192
     24 C          -2.1013  -17.1871   21.9338 C.ar    1  UNL1        0.1397
@<TRIPOS>BOND
     1     7     8    2
     2     8     9   am
     3     9     1    1
     4     1     2   ar
     5     2     3   ar
     6     3     4   ar
     7     4     5   ar
     8     5    18    1
     9    18    19    1
    10    19    20   ar
    11    20    21   ar
    12    21    22   ar
    13    22    23   ar
    14    23    24   ar
    15     5     6   ar
    16     8    11    1
    17    11    12   ar
    18    12    13   ar
    19    13    14    1
    20    13    15   ar
    21    15    16   ar
    22    16    17   ar
    23     6     1   ar
    24    17    11   ar
    25    24    19   ar
    26     9    10    1
@<TRIPOS>MOLECULE
*****
 24 26 0 0 0
SMALL
GASTEIGER

@<TRIPOS>ATOM
      1 C          -8.0353  -18.8466   20.3338 C.ar    1  UNL1        0.1569
      2 C          -8.7917  -19.6393   19.3094 C.ar    1  UNL1        0.1335
      3 N         -10.2538  -19.9129   19.5026 N.ar    1  UNL1       -0.2345
      4 C         -10.9596  -19.3937   20.7201 C.ar    1  UNL1        0.1569
      5 C         -10.2032  -18.6010   21.7445 C.ar    1  UNL1        0.2506
      6 N          -8.7411  -18.3274   21.5513 N.ar    1  UNL1       -0.1933
      7 O          -6.0046  -20.3033   21.9934 O.2     1  UNL1       -0.2681
      8 C          -5.5578  -19.3013   20.9705 C.2     1  UNL1        0.2684
      9 N          -6.5731  -18.5730   20.1407 N.am    1  UNL1       -0.2632
     10 H          -6.2799  -17.9154   19.4693 H       1  UNL1        0.1567
     11 C          -4.0957  -19.0277   20.7774 C.ar    1  UNL1        0.1356
     12 C          -3.5945  -18.5274   19.4551 C.ar    1  UNL1        0.0352
     13 C          -2.1324  -18.2539   19.2620 C.ar    1  UNL1        0.0609
     14 CL         -1.6311  -17.7536   17.9397 Cl      1  UNL1       -0.0821
     15 C          -1.1714  -18.4806   20.3912 C.ar    1  UNL1        0.0321
     16 C          -1.6726  -18.9808   21.7135 C.ar    1  UNL1        0.0999
     17 N          -3.1347  -19.2544   21.9066 N.ar    1  UNL1       -0.2392
     18 O         -10.9089  -18.0818   22.9620 O.3     1  UNL1       -0.4316
     19 C         -10.1167  -17.5285   24.1093 C.ar    1  UNL1        0.1854
     20 C          -9.8353  -18.3846   25.3085 C.ar    1  UNL1        0.1397
     21 N          -9.0431  -17.8313   26.4557 N.ar    1  UNL1       -0.2192
     22 C          -8.5323  -16.4219   26.4039 C.ar    1  UNL1        0.1991
     23 N          -8.8136  -15.5658   25.2048 N.ar    1  UNL1       -0.2192
     24 C          -9.6059  -16.1191   24.0574 C.ar    1  UNL1        0.1397
@<TRIPOS>BOND
     1     7     8    2
     2     8     9   am
     3     9     1    1
     4     1     2   ar
     5     2     3   ar
     6     3     4   ar
     7     4     5   ar
     8     5    18    1
     9    18    19    1
    10    19    20   ar
    11    20    21   ar
    12    21    22   ar
    13    22    23   ar
    14    23    24   ar
    15     5     6   ar
    16     8    11    1
    17    11    12   ar
    18    12    13   ar
    19    13    14    1
    20    13    15   ar
    21    15    16   ar
    22    16    17   ar
    23     6     1   ar
    24    17    11   ar
    25    24    19   ar
    26     9    10    1
@<TRIPOS>MOLECULE
*****
 24 26 0 0 0
SMALL
GASTEIGER

@<TRIPOS>ATOM
      1 C          -5.4602  -16.0134   24.0500 C.ar    1  UNL1        0.1569
      2 C          -4.8647  -15.6353   25.3738 C.ar    1  UNL1        0.1335
      3 N          -5.7532  -15.4302   26.5647 N.ar    1  UNL1       -0.2345
      4 C          -7.2373  -15.6031   26.4319 C.ar    1  UNL1        0.1569
      5 C          -7.8328  -15.9811   25.1081 C.ar    1  UNL1        0.2506
      6 N          -6.9443  -16.1862   23.9172 N.ar    1  UNL1       -0.1933
      7 O          -4.2332  -18.7029   23.5394 O.2     1  UNL1       -0.2681
      8 C          -3.9582  -17.5633   22.6037 C.2     1  UNL1        0.2684
      9 N          -4.5717  -16.2185   22.8590 N.am    1  UNL1       -0.2632
     10 H          -4.3912  -15.4705   22.2448 H       1  UNL1        0.1567
     11 C          -3.0697  -17.7684   21.4127 C.ar    1  UNL1        0.1356
     12 C          -1.6332  -17.3400   21.4659 C.ar    1  UNL1        0.0352
     13 C          -0.7448  -17.5451   20.2749 C.ar    1  UNL1        0.0609
     14 CL          0.6918  -17.1167   20.3281 Cl      1  UNL1       -0.0821
     15 C          -1.2928  -18.1788   19.0307 C.ar    1  UNL1        0.0321
     16 C          -2.7293  -18.6073   18.9774 C.ar    1  UNL1        0.0999
     17 N          -3.6177  -18.4021   20.1684 N.ar    1  UNL1       -0.2392
     18 O          -9.3169  -16.1539   24.9753 O.3     1  UNL1       -0.4316
     19 C          -9.8721  -17.3623   24.2814 C.ar    1  UNL1        0.1854
     20 C          -9.9847  -18.6644   25.0177 C.ar    1  UNL1        0.1397
     21 N         -10.5399  -19.8728   24.3238 N.ar    1  UNL1       -0.2192
     22 C         -10.9826  -19.7792   22.8936 C.ar    1  UNL1        0.1991
     23 N         -10.8700  -18.4772   22.1574 N.ar    1  UNL1       -0.2192
     24 C         -10.3148  -17.2687   22.8513 C.ar    1  UNL1        0.1397
@<TRIPOS>BOND
     1     7     8    2
     2     8     9   am
     3     9     1    1
     4     1     2   ar
     5     2     3   ar
     6     3     4   ar
     7     4     5   ar
     8     5    18    1
     9    18    19    1
    10    19    20   ar
    11    20    21   ar
    12    21    22   ar
    13    22    23   ar
    14    23    24   ar
    15     5     6   ar
    16     8    11    1
    17    11    12   ar
    18    12    13   ar
    19    13    14    1
    20    13    15   ar
    21    15    16   ar
    22    16    17   ar
    23     6     1   ar
    24    17    11   ar
    25    24    19   ar
    26     9    10    1
@<TRIPOS>MOLECULE
*****
 24 26 0 0 0
SMALL
GASTEIGER

@<TRIPOS>ATOM
      1 C          -7.9179  -18.8329   19.9039 C.ar    1  UNL1        0.1569
      2 C          -8.7230  -19.8317   19.1266 C.ar    1  UNL1        0.1335
      3 N         -10.2106  -19.8992   19.3071 N.ar    1  UNL1       -0.2345
      4 C         -10.8929  -18.9680   20.2648 C.ar    1  UNL1        0.1569
      5 C         -10.0878  -17.9692   21.0420 C.ar    1  UNL1        0.2506
      6 N          -8.6002  -17.9017   20.8616 N.ar    1  UNL1       -0.1933
      7 O          -6.0983  -19.4168   22.2165 O.2     1  UNL1       -0.2681
      8 C          -5.5205  -19.0573   20.8797 C.2     1  UNL1        0.2684
      9 N          -6.4302  -18.7654   19.7234 N.am    1  UNL1       -0.2632
     10 H          -6.0510  -18.5294   18.8461 H       1  UNL1        0.1567
     11 C          -4.0328  -18.9898   20.6993 C.ar    1  UNL1        0.1356
     12 C          -3.4555  -18.4178   19.4386 C.ar    1  UNL1        0.0352
     13 C          -1.9679  -18.3503   19.2582 C.ar    1  UNL1        0.0609
     14 CL         -1.3905  -17.7783   17.9975 Cl      1  UNL1       -0.0821
     15 C          -1.0577  -18.8547   20.3386 C.ar    1  UNL1        0.0321
     16 C          -1.6351  -19.4267   21.5993 C.ar    1  UNL1        0.0999
     17 N          -3.1227  -19.4942   21.7797 N.ar    1  UNL1       -0.2392
     18 O         -10.7702  -17.0380   21.9997 O.3     1  UNL1       -0.4316
     19 C         -11.6905  -17.5848   23.0504 C.ar    1  UNL1        0.1854
     20 C         -11.1380  -18.4054   24.1780 C.ar    1  UNL1        0.1397
     21 N         -12.0583  -18.9522   25.2287 N.ar    1  UNL1       -0.2192
     22 C         -13.5311  -18.6785   25.1518 C.ar    1  UNL1        0.1991
     23 N         -14.0836  -17.8580   24.0242 N.ar    1  UNL1       -0.2192
     24 C         -13.1633  -17.3112   22.9735 C.ar    1  UNL1        0.1397
@<TRIPOS>BOND
     1     7     8    2
     2     8     9   am
     3     9     1    1
     4     1     2   ar
     5     2     3   ar
     6     3     4   ar
     7     4     5   ar
     8     5    18    1
     9    18    19    1
    10    19    20   ar
    11    20    21   ar
    12    21    22   ar
    13    22    23   ar
    14    23    24   ar
    15     5     6   ar
    16     8    11    1
    17    11    12   ar
    18    12    13   ar
    19    13    14    1
    20    13    15   ar
    21    15    16   ar
    22    16    17   ar
    23     6     1   ar
    24    17    11   ar
    25    24    19   ar
    26     9    10    1
@<TRIPOS>MOLECULE
*****
 24 26 0 0 0
SMALL
GASTEIGER

@<TRIPOS>ATOM
      1 C          -6.3477  -16.3893   23.9508 C.ar    1  UNL1        0.1569
      2 C          -6.2538  -15.5790   25.2096 C.ar    1  UNL1        0.1335
      3 N          -7.4937  -15.2632   25.9924 N.ar    1  UNL1       -0.2345
      4 C          -8.8275  -15.7577   25.5166 C.ar    1  UNL1        0.1569
      5 C          -8.9214  -16.5680   24.2578 C.ar    1  UNL1        0.2506
      6 N          -7.6815  -16.8838   23.4749 N.ar    1  UNL1       -0.1933
      7 O          -6.0401  -19.0735   22.6469 O.2     1  UNL1       -0.2681
      8 C          -4.9540  -18.0472   22.5159 C.2     1  UNL1        0.2684
      9 N          -5.1078  -16.7051   23.1678 N.am    1  UNL1       -0.2632
     10 H          -4.3950  -16.0315   23.0819 H       1  UNL1        0.1567
     11 C          -3.7141  -18.3631   21.7330 C.ar    1  UNL1        0.1356
     12 C          -2.7018  -17.2889   21.4659 C.ar    1  UNL1        0.0352
     13 C          -1.4620  -17.6048   20.6829 C.ar    1  UNL1        0.0609
     14 CL         -0.4496  -16.5306   20.4158 Cl      1  UNL1       -0.0821
     15 C          -1.2345  -18.9948   20.1671 C.ar    1  UNL1        0.0321
     16 C          -2.2468  -20.0690   20.4342 C.ar    1  UNL1        0.0999
     17 N          -3.4866  -19.7531   21.2172 N.ar    1  UNL1       -0.2392
     18 O         -10.2552  -17.0625   23.7819 O.3     1  UNL1       -0.4316
     19 C         -10.7462  -16.6956   22.4129 C.ar    1  UNL1        0.1854
     20 C         -12.0801  -17.1900   21.9371 C.ar    1  UNL1        0.1397
     21 N         -12.5711  -16.8231   20.5680 N.ar    1  UNL1       -0.2192
     22 C         -11.7283  -15.9620   19.6747 C.ar    1  UNL1        0.1991
     23 N         -10.3944  -15.4676   20.1505 N.ar    1  UNL1       -0.2192
     24 C          -9.9033  -15.8345   21.5196 C.ar    1  UNL1        0.1397
@<TRIPOS>BOND
     1     7     8    2
     2     8     9   am
     3     9     1    1
     4     1     2   ar
     5     2     3   ar
     6     3     4   ar
     7     4     5   ar
     8     5    18    1
     9    18    19    1
    10    19    20   ar
    11    20    21   ar
    12    21    22   ar
    13    22    23   ar
    14    23    24   ar
    15     5     6   ar
    16     8    11    1
    17    11    12   ar
    18    12    13   ar
    19    13    14    1
    20    13    15   ar
    21    15    16   ar
    22    16    17   ar
    23     6     1   ar
    24    17    11   ar
    25    24    19   ar
    26     9    10    1
@<TRIPOS>MOLECULE
*****
 24 26 0 0 0
SMALL
GASTEIGER

@<TRIPOS>ATOM
      1 C         -11.8825   -6.7097   18.8727 C.ar    1  UNL1        0.1569
      2 C         -10.6055   -7.2878   18.3388 C.ar    1  UNL1        0.1335
      3 N          -9.4495   -6.3864   18.0208 N.ar    1  UNL1       -0.2345
      4 C          -9.5705   -4.9069   18.2368 C.ar    1  UNL1        0.1569
      5 C         -10.8475   -4.3289   18.7708 C.ar    1  UNL1        0.2506
      6 N         -12.0035   -5.2303   19.0887 N.ar    1  UNL1       -0.1933
      7 O         -14.3000   -6.7322   17.0964 O.2     1  UNL1       -0.2681
      8 C         -14.2473   -7.6224   18.3025 C.2     1  UNL1        0.2684
      9 N         -13.0386   -7.6111   19.1907 N.am    1  UNL1       -0.2632
     10 H         -13.0040   -8.1954   19.9824 H       1  UNL1        0.1567
     11 C         -15.4033   -8.5238   18.6205 C.ar    1  UNL1        0.1356
     12 C         -16.5856   -7.9899   19.3736 C.ar    1  UNL1        0.0352
     13 C         -17.7416   -8.8913   19.6915 C.ar    1  UNL1        0.0609
     14 CL        -18.9240   -8.3574   20.4446 Cl      1  UNL1       -0.0821
     15 C         -17.7153  -10.3265   19.2564 C.ar    1  UNL1        0.0321
     16 C         -16.5330  -10.8604   18.5034 C.ar    1  UNL1        0.0999
     17 N         -15.3770   -9.9590   18.1854 N.ar    1  UNL1       -0.2392
     18 O         -10.9685   -2.8495   18.9868 O.3     1  UNL1       -0.4316
     19 C         -12.0270   -2.0701   18.2643 C.ar    1  UNL1        0.1854
     20 C         -13.3575   -1.8309   18.9145 C.ar    1  UNL1        0.1397
     21 N         -14.4160   -1.0516   18.1919 N.ar    1  UNL1       -0.2192
     22 C         -14.1442   -0.5114   16.8192 C.ar    1  UNL1        0.1991
     23 N         -12.8138   -0.7506   16.1691 N.ar    1  UNL1       -0.2192
     24 C         -11.7552   -1.5300   16.8916 C.ar    1  UNL1        0.1397
@<TRIPOS>BOND
     1     7     8    2
     2     8     9   am
     3     9     1    1
     4     1     2   ar
     5     2     3   ar
     6     3     4   ar
     7     4     5   ar
     8     5    18    1
     9    18    19    1
    10    19    20   ar
    11    20    21   ar
    12    21    22   ar
    13    22    23   ar
    14    23    24   ar
    15     5     6   ar
    16     8    11    1
    17    11    12   ar
    18    12    13   ar
    19    13    14    1
    20    13    15   ar
    21    15    16   ar
    22    16    17   ar
    23     6     1   ar
    24    17    11   ar
    25    24    19   ar
    26     9    10    1
@<TRIPOS>MOLECULE
*****
 24 26 0 0 0
SMALL
GASTEIGER

@<TRIPOS>ATOM
      1 C          -6.6545  -16.0895   23.7283 C.ar    1  UNL1        0.1569
      2 C          -6.6477  -15.1365   24.8866 C.ar    1  UNL1        0.1335
      3 N          -5.4414  -15.0423   25.7732 N.ar    1  UNL1       -0.2345
      4 C          -4.2420  -15.9011   25.5015 C.ar    1  UNL1        0.1569
      5 C          -4.2488  -16.8541   24.3431 C.ar    1  UNL1        0.2506
      6 N          -5.4550  -16.9483   23.4565 N.ar    1  UNL1       -0.1933
      7 O          -9.1337  -17.4645   24.7094 O.2     1  UNL1       -0.2681
      8 C          -9.1003  -16.8712   23.3322 C.2     1  UNL1        0.2684
      9 N          -7.8607  -16.1836   22.8416 N.am    1  UNL1       -0.2632
     10 H          -7.8388  -15.7942   21.9376 H       1  UNL1        0.1567
     11 C         -10.3066  -16.9653   22.4455 C.ar    1  UNL1        0.1356
     12 C         -10.2834  -17.8575   21.2399 C.ar    1  UNL1        0.0352
     13 C         -11.4896  -17.9517   20.3534 C.ar    1  UNL1        0.0609
     14 CL        -11.4665  -18.8439   19.1477 Cl      1  UNL1       -0.0821
     15 C         -12.7190  -17.1537   20.6723 C.ar    1  UNL1        0.0321
     16 C         -12.7422  -16.2615   21.8779 C.ar    1  UNL1        0.0999
     17 N         -11.5360  -16.1673   22.7644 N.ar    1  UNL1       -0.2392
     18 O          -3.0494  -17.7129   24.0714 O.3     1  UNL1       -0.4316
     19 C          -2.4726  -17.7798   22.6884 C.ar    1  UNL1        0.1854
     20 C          -2.1344  -16.5158   21.9549 C.ar    1  UNL1        0.1397
     21 N          -1.5576  -16.5827   20.5718 N.ar    1  UNL1       -0.2192
     22 C          -1.3191  -17.9135   19.9222 C.ar    1  UNL1        0.1991
     23 N          -1.6573  -19.1774   20.6556 N.ar    1  UNL1       -0.2192
     24 C          -2.2341  -19.1106   22.0388 C.ar    1  UNL1        0.1397
@<TRIPOS>BOND
     1     7     8    2
     2     8     9   am
     3     9     1    1
     4     1     2   ar
     5     2     3   ar
     6     3     4   ar
     7     4     5   ar
     8     5    18    1
     9    18    19    1
    10    19    20   ar
    11    20    21   ar
    12    21    22   ar
    13    22    23   ar
    14    23    24   ar
    15     5     6   ar
    16     8    11    1
    17    11    12   ar
    18    12    13   ar
    19    13    14    1
    20    13    15   ar
    21    15    16   ar
    22    16    17   ar
    23     6     1   ar
    24    17    11   ar
    25    24    19   ar
    26     9    10    1
@<TRIPOS>MOLECULE
*****
 24 26 0 0 0
SMALL
GASTEIGER

@<TRIPOS>ATOM
      1 C         -12.0756   -6.6348   18.1717 C.ar    1  UNL1        0.1569
      2 C         -10.8303   -6.9397   18.9503 C.ar    1  UNL1        0.1335
      3 N          -9.5956   -6.1134   18.7439 N.ar    1  UNL1       -0.2345
      4 C          -9.6062   -4.9821   17.7589 C.ar    1  UNL1        0.1569
      5 C         -10.8515   -4.6771   16.9804 C.ar    1  UNL1        0.2506
      6 N         -12.0862   -5.5035   17.1868 N.ar    1  UNL1       -0.1933
      7 O         -14.5050   -5.4115   19.4374 O.2     1  UNL1       -0.2681
      8 C         -14.5250   -6.8495   19.0109 C.2     1  UNL1        0.2684
      9 N         -13.3104   -7.4611   18.3781 N.am    1  UNL1       -0.2632
     10 H         -13.3236   -8.4049   18.0982 H       1  UNL1        0.1567
     11 C         -15.7598   -7.6758   19.2173 C.ar    1  UNL1        0.1356
     12 C         -15.7486   -9.1378   18.8819 C.ar    1  UNL1        0.0352
     13 C         -16.9834   -9.9640   19.0883 C.ar    1  UNL1        0.0609
     14 CL        -16.9723  -11.4261   18.7528 Cl      1  UNL1       -0.0821
     15 C         -18.2293   -9.3283   19.6301 C.ar    1  UNL1        0.0321
     16 C         -18.2405   -7.8664   19.9655 C.ar    1  UNL1        0.0999
     17 N         -17.0058   -7.0401   19.7591 N.ar    1  UNL1       -0.2392
     18 O         -10.8621   -3.5458   15.9955 O.3     1  UNL1       -0.4316
     19 C         -11.4516   -2.2215   16.3808 C.ar    1  UNL1        0.1854
     20 C         -12.9400   -2.0355   16.3842 C.ar    1  UNL1        0.1397
     21 N         -13.5295   -0.7111   16.7695 N.ar    1  UNL1       -0.2192
     22 C         -12.6305    0.4273   17.1515 C.ar    1  UNL1        0.1991
     23 N         -11.1422    0.2414   17.1481 N.ar    1  UNL1       -0.2192
     24 C         -10.5526   -1.0830   16.7628 C.ar    1  UNL1        0.1397
@<TRIPOS>BOND
     1     7     8    2
     2     8     9   am
     3     9     1    1
     4     1     2   ar
     5     2     3   ar
     6     3     4   ar
     7     4     5   ar
     8     5    18    1
     9    18    19    1
    10    19    20   ar
    11    20    21   ar
    12    21    22   ar
    13    22    23   ar
    14    23    24   ar
    15     5     6   ar
    16     8    11    1
    17    11    12   ar
    18    12    13   ar
    19    13    14    1
    20    13    15   ar
    21    15    16   ar
    22    16    17   ar
    23     6     1   ar
    24    17    11   ar
    25    24    19   ar
    26     9    10    1
@<TRIPOS>MOLECULE
*****
 24 26 0 0 0
SMALL
GASTEIGER

@<TRIPOS>ATOM
      1 C          -0.6773    3.0991   20.0703 C.ar    1  UNL1        0.1569
      2 C          -0.3992    4.5513   20.3229 C.ar    1  UNL1        0.1335
      3 N          -1.4412    5.4124   20.9729 N.ar    1  UNL1       -0.2345
      4 C          -2.7613    4.8215   21.3703 C.ar    1  UNL1        0.1569
      5 C          -3.0395    3.3693   21.1177 C.ar    1  UNL1        0.2506
      6 N          -1.9975    2.5082   20.4677 N.ar    1  UNL1       -0.1933
      7 O           0.2049    0.5553   21.3933 O.2     1  UNL1       -0.2681
      8 C           0.8058    0.9660   20.0817 C.2     1  UNL1        0.2684
      9 N           0.3647    2.2379   19.4202 N.am    1  UNL1       -0.2632
     10 H           0.7591    2.5074   18.5594 H       1  UNL1        0.1567
     11 C           1.8478    0.1047   19.4317 C.ar    1  UNL1        0.1356
     12 C           2.3119   -1.1508   20.1085 C.ar    1  UNL1        0.0352
     13 C           3.3539   -2.0120   19.4584 C.ar    1  UNL1        0.0609
     14 CL          3.8181   -3.2676   20.1352 Cl      1  UNL1       -0.0821
     15 C           3.9317   -1.6176   18.1315 C.ar    1  UNL1        0.0321
     16 C           3.4676   -0.3621   17.4547 C.ar    1  UNL1        0.0999
     17 N           2.4256    0.4991   18.1048 N.ar    1  UNL1       -0.2392
     18 O          -4.3597    2.7784   21.5151 O.3     1  UNL1       -0.4316
     19 C          -5.1500    3.3917   22.6328 C.ar    1  UNL1        0.1854
     20 C          -6.3733    4.2046   22.3282 C.ar    1  UNL1        0.1397
     21 N          -7.1636    4.8180   23.4458 N.ar    1  UNL1       -0.2192
     22 C          -6.7307    4.6185   24.8681 C.ar    1  UNL1        0.1991
     23 N          -5.5074    3.8057   25.1726 N.ar    1  UNL1       -0.2192
     24 C          -4.7170    3.1923   24.0550 C.ar    1  UNL1        0.1397
@<TRIPOS>BOND
     1     7     8    2
     2     8     9   am
     3     9     1    1
     4     1     2   ar
     5     2     3   ar
     6     3     4   ar
     7     4     5   ar
     8     5    18    1
     9    18    19    1
    10    19    20   ar
    11    20    21   ar
    12    21    22   ar
    13    22    23   ar
    14    23    24   ar
    15     5     6   ar
    16     8    11    1
    17    11    12   ar
    18    12    13   ar
    19    13    14    1
    20    13    15   ar
    21    15    16   ar
    22    16    17   ar
    23     6     1   ar
    24    17    11   ar
    25    24    19   ar
    26     9    10    1
