@<TRIPOS>MOLECULE
*****
 23 24 0 0 0
SMALL
GASTEIGER

@<TRIPOS>ATOM
      1 C          -7.4956  -18.6002   22.1169 C.3     1  UNL1        0.1895
      2 C          -6.1298  -19.0599   21.7005 C.ar    1  UNL1        0.0172
      3 C          -5.9722  -19.9656   20.5152 C.ar    1  UNL1       -0.0008
      4 C          -4.6065  -20.4252   20.0988 C.ar    1  UNL1       -0.0002
      5 C          -3.3983  -19.9791   20.8677 C.ar    1  UNL1       -0.0000
      6 C          -3.5558  -19.0734   22.0530 C.ar    1  UNL1       -0.0002
      7 C          -4.9216  -18.6138   22.4694 C.ar    1  UNL1       -0.0008
      8 C          -7.6421  -17.4524   23.0713 C.3     1  UNL1        0.0653
      9 C          -7.7734  -16.0531   22.5471 C.3     1  UNL1        0.0727
     10 C          -5.7623  -15.2997   24.0093 C.3     1  UNL1        0.0859
     11 N          -6.7682  -15.0095   22.9351 N.3     1  UNL1       -0.2962
     12 H          -6.2412  -14.7806   22.0923 H       1  UNL1        0.1233
     13 O          -8.7149  -19.2885   21.5788 O.3     1  UNL1       -0.4739
     14 C         -10.0759  -18.7120   21.8347 C.ar    1  UNL1        0.1514
     15 C         -10.6807  -17.7526   20.8530 C.ar    1  UNL1        0.0745
     16 C         -12.0417  -17.1761   21.1089 C.ar    1  UNL1        0.1418
     17 C         -12.7978  -17.5591   22.3465 C.ar    1  UNL1        0.0378
     18 C         -12.1930  -18.5185   23.3282 C.ar    1  UNL1        0.0165
     19 C         -10.8321  -19.0949   23.0722 C.ar    1  UNL1        0.1025
     20 O         -12.6465  -16.2167   20.1272 O.3     1  UNL1       -0.4713
     21 C         -11.7851  -15.5677   19.0847 C.3     1  UNL1        0.2525
     22 C         -10.2272  -20.0544   24.0539 C.1     1  UNL1        0.1035
     23 N          -9.6224  -21.0138   25.0356 N.1     1  UNL1       -0.1907
@<TRIPOS>BOND
     1    10    11    1
     2    11     9    1
     3     9     8    1
     4     1     8    1
     5     1    13    1
     6    13    14    1
     7    14    15   ar
     8    15    16   ar
     9    16    20    1
    10    20    21    1
    11    16    17   ar
    12    17    18   ar
    13    18    19   ar
    14    19    22    1
    15    22    23    3
    16     1     2    1
    17     2     3   ar
    18     3     4   ar
    19     4     5   ar
    20     5     6   ar
    21     6     7   ar
    22    19    14   ar
    23     7     2   ar
    24    11    12    1
@<TRIPOS>MOLECULE
*****
 23 24 0 0 0
SMALL
GASTEIGER

@<TRIPOS>ATOM
      1 C          -9.3768  -17.3221   24.3015 C.3     1  UNL1        0.1895
      2 C          -8.3466  -16.6050   25.1229 C.ar    1  UNL1        0.0172
      3 C          -8.4854  -16.5463   26.6153 C.ar    1  UNL1       -0.0008
      4 C          -7.4553  -15.8293   27.4367 C.ar    1  UNL1       -0.0002
      5 C          -6.2865  -15.1709   26.7657 C.ar    1  UNL1       -0.0000
      6 C          -6.1477  -15.2295   25.2733 C.ar    1  UNL1       -0.0002
      7 C          -7.1778  -15.9466   24.4519 C.ar    1  UNL1       -0.0008
      8 C         -10.1842  -18.4294   24.9112 C.3     1  UNL1        0.0653
      9 C         -11.4260  -18.9174   24.2257 C.3     1  UNL1        0.0727
     10 C         -13.8794  -18.0676   24.1322 C.3     1  UNL1        0.0859
     11 N         -12.4419  -17.9340   23.7249 N.3     1  UNL1       -0.2962
     12 H         -12.1339  -17.0109   24.0307 H       1  UNL1        0.1233
     13 O          -9.5994  -16.9318   22.8704 O.3     1  UNL1       -0.4739
     14 C          -9.1754  -17.8548   21.7666 C.ar    1  UNL1        0.1514
     15 C          -7.8065  -18.4678   21.7858 C.ar    1  UNL1        0.0745
     16 C          -7.3825  -19.3907   20.6821 C.ar    1  UNL1        0.1418
     17 C          -8.3274  -19.7006   19.5590 C.ar    1  UNL1        0.0378
     18 C          -9.6962  -19.0877   19.5398 C.ar    1  UNL1        0.0165
     19 C         -10.1202  -18.1647   20.6436 C.ar    1  UNL1        0.1025
     20 O          -6.0136  -20.0037   20.7013 O.3     1  UNL1       -0.4713
     21 C          -4.8531  -19.2663   20.1017 C.3     1  UNL1        0.2525
     22 C         -11.4892  -17.5517   20.6244 C.1     1  UNL1        0.1035
     23 N         -12.8580  -16.9387   20.6052 N.1     1  UNL1       -0.1907
@<TRIPOS>BOND
     1    10    11    1
     2    11     9    1
     3     9     8    1
     4     1     8    1
     5     1    13    1
     6    13    14    1
     7    14    15   ar
     8    15    16   ar
     9    16    20    1
    10    20    21    1
    11    16    17   ar
    12    17    18   ar
    13    18    19   ar
    14    19    22    1
    15    22    23    3
    16     1     2    1
    17     2     3   ar
    18     3     4   ar
    19     4     5   ar
    20     5     6   ar
    21     6     7   ar
    22    19    14   ar
    23     7     2   ar
    24    11    12    1
@<TRIPOS>MOLECULE
*****
 23 24 0 0 0
SMALL
GASTEIGER

@<TRIPOS>ATOM
      1 C          -9.0017  -16.7687   23.4761 C.3     1  UNL1        0.1895
      2 C         -10.4497  -17.1600   23.4956 C.ar    1  UNL1        0.0172
      3 C         -10.9087  -18.2932   24.3645 C.ar    1  UNL1       -0.0008
      4 C         -12.3566  -18.6845   24.3840 C.ar    1  UNL1       -0.0002
      5 C         -13.3454  -17.9426   23.5347 C.ar    1  UNL1       -0.0000
      6 C         -12.8864  -16.8093   22.6657 C.ar    1  UNL1       -0.0002
      7 C         -11.4386  -16.4180   22.6462 C.ar    1  UNL1       -0.0008
      8 C          -8.3185  -16.3583   24.7469 C.3     1  UNL1        0.0653
      9 C          -7.5534  -15.0694   24.8046 C.3     1  UNL1        0.0727
     10 C          -5.1070  -15.3163   23.9652 C.3     1  UNL1        0.0859
     11 N          -6.4954  -14.7788   23.7817 N.3     1  UNL1       -0.2962
     12 H          -6.8372  -15.1436   22.8927 H       1  UNL1        0.1233
     13 O          -8.2369  -16.7878   22.1859 O.3     1  UNL1       -0.4739
     14 C          -7.4616  -18.0099   21.7916 C.ar    1  UNL1        0.1514
     15 C          -6.0873  -18.2379   22.3475 C.ar    1  UNL1        0.0745
     16 C          -5.3120  -19.4600   21.9533 C.ar    1  UNL1        0.1418
     17 C          -5.9111  -20.4540   21.0030 C.ar    1  UNL1        0.0378
     18 C          -7.2854  -20.2260   20.4470 C.ar    1  UNL1        0.0165
     19 C          -8.0607  -19.0039   20.8413 C.ar    1  UNL1        0.1025
     20 O          -3.9376  -19.6880   22.5092 O.3     1  UNL1       -0.4713
     21 C          -2.7493  -19.6912   21.5938 C.3     1  UNL1        0.2525
     22 C          -9.4351  -18.7758   20.2854 C.1     1  UNL1        0.1035
     23 N         -10.8094  -18.5477   19.7294 N.1     1  UNL1       -0.1907
@<TRIPOS>BOND
     1    10    11    1
     2    11     9    1
     3     9     8    1
     4     1     8    1
     5     1    13    1
     6    13    14    1
     7    14    15   ar
     8    15    16   ar
     9    16    20    1
    10    20    21    1
    11    16    17   ar
    12    17    18   ar
    13    18    19   ar
    14    19    22    1
    15    22    23    3
    16     1     2    1
    17     2     3   ar
    18     3     4   ar
    19     4     5   ar
    20     5     6   ar
    21     6     7   ar
    22    19    14   ar
    23     7     2   ar
    24    11    12    1
@<TRIPOS>MOLECULE
*****
 23 24 0 0 0
SMALL
GASTEIGER

@<TRIPOS>ATOM
      1 C          -8.6177  -16.6891   23.5386 C.3     1  UNL1        0.1895
      2 C          -7.9129  -16.2089   24.7726 C.ar    1  UNL1        0.0172
      3 C          -8.5922  -16.2981   26.1070 C.ar    1  UNL1       -0.0008
      4 C          -7.8875  -15.8179   27.3410 C.ar    1  UNL1       -0.0002
      5 C          -6.5034  -15.2486   27.2406 C.ar    1  UNL1       -0.0000
      6 C          -5.8241  -15.1594   25.9062 C.ar    1  UNL1       -0.0002
      7 C          -6.5288  -15.6395   24.6722 C.ar    1  UNL1       -0.0008
      8 C         -10.0469  -17.1375   23.6177 C.3     1  UNL1        0.0653
      9 C         -11.0893  -16.4737   22.7675 C.3     1  UNL1        0.0727
     10 C         -13.2213  -17.8585   23.3030 C.3     1  UNL1        0.0859
     11 N         -12.2839  -17.2520   22.3014 N.3     1  UNL1       -0.2962
     12 H         -12.8389  -16.6212   21.7230 H       1  UNL1        0.1233
     13 O          -7.8932  -16.7210   22.2256 O.3     1  UNL1       -0.4739
     14 C          -7.1697  -17.9636   21.7981 C.ar    1  UNL1        0.1514
     15 C          -5.8017  -18.2582   22.3380 C.ar    1  UNL1        0.0745
     16 C          -5.0783  -19.5007   21.9105 C.ar    1  UNL1        0.1418
     17 C          -5.7230  -20.4486   20.9431 C.ar    1  UNL1        0.0378
     18 C          -7.0910  -20.1540   20.4032 C.ar    1  UNL1        0.0165
     19 C          -7.8144  -18.9115   20.8307 C.ar    1  UNL1        0.1025
     20 O          -3.7101  -19.7954   22.4504 O.3     1  UNL1       -0.4713
     21 C          -2.5092  -19.6675   21.5608 C.3     1  UNL1        0.2525
     22 C          -9.1825  -18.6168   20.2908 C.1     1  UNL1        0.1035
     23 N         -10.5506  -18.3221   19.7509 N.1     1  UNL1       -0.1907
@<TRIPOS>BOND
     1    10    11    1
     2    11     9    1
     3     9     8    1
     4     1     8    1
     5     1    13    1
     6    13    14    1
     7    14    15   ar
     8    15    16   ar
     9    16    20    1
    10    20    21    1
    11    16    17   ar
    12    17    18   ar
    13    18    19   ar
    14    19    22    1
    15    22    23    3
    16     1     2    1
    17     2     3   ar
    18     3     4   ar
    19     4     5   ar
    20     5     6   ar
    21     6     7   ar
    22    19    14   ar
    23     7     2   ar
    24    11    12    1
@<TRIPOS>MOLECULE
*****
 23 24 0 0 0
SMALL
GASTEIGER

@<TRIPOS>ATOM
      1 C          -7.7858  -17.2551   22.5081 C.3     1  UNL1        0.1895
      2 C          -7.1961  -16.5407   23.6880 C.ar    1  UNL1        0.0172
      3 C          -8.0735  -16.1372   24.8357 C.ar    1  UNL1       -0.0008
      4 C          -7.4839  -15.4228   26.0155 C.ar    1  UNL1       -0.0002
      5 C          -6.0169  -15.1119   26.0475 C.ar    1  UNL1       -0.0000
      6 C          -5.1395  -15.5153   24.8997 C.ar    1  UNL1       -0.0002
      7 C          -5.7291  -16.2297   23.7199 C.ar    1  UNL1       -0.0008
      8 C          -7.3107  -18.6323   22.1511 C.3     1  UNL1        0.0653
      9 C          -6.5360  -18.8539   20.8858 C.3     1  UNL1        0.0727
     10 C          -4.2074  -19.4623   19.9073 C.3     1  UNL1        0.0859
     11 N          -5.0453  -18.6868   20.8801 N.3     1  UNL1       -0.2962
     12 H          -4.8605  -17.6989   20.7059 H       1  UNL1        0.1233
     13 O          -8.8506  -16.5923   21.6854 O.3     1  UNL1       -0.4739
     14 C         -10.2978  -16.8637   21.9723 C.ar    1  UNL1        0.1514
     15 C         -10.6862  -17.6552   23.1859 C.ar    1  UNL1        0.0745
     16 C         -12.1332  -17.9266   23.4727 C.ar    1  UNL1        0.1418
     17 C         -13.1919  -17.4066   22.5459 C.ar    1  UNL1        0.0378
     18 C         -12.8035  -16.6152   21.3324 C.ar    1  UNL1        0.0165
     19 C         -11.3564  -16.3438   21.0456 C.ar    1  UNL1        0.1025
     20 O         -12.5217  -18.7180   24.6863 O.3     1  UNL1       -0.4713
     21 C         -13.8932  -18.5648   25.2742 C.3     1  UNL1        0.2525
     22 C         -10.9680  -15.5523   19.8319 C.1     1  UNL1        0.1035
     23 N         -10.5795  -14.7609   18.6184 N.1     1  UNL1       -0.1907
@<TRIPOS>BOND
     1    10    11    1
     2    11     9    1
     3     9     8    1
     4     1     8    1
     5     1    13    1
     6    13    14    1
     7    14    15   ar
     8    15    16   ar
     9    16    20    1
    10    20    21    1
    11    16    17   ar
    12    17    18   ar
    13    18    19   ar
    14    19    22    1
    15    22    23    3
    16     1     2    1
    17     2     3   ar
    18     3     4   ar
    19     4     5   ar
    20     5     6   ar
    21     6     7   ar
    22    19    14   ar
    23     7     2   ar
    24    11    12    1
@<TRIPOS>MOLECULE
*****
 23 24 0 0 0
SMALL
GASTEIGER

@<TRIPOS>ATOM
      1 C          -7.7611  -17.0765   22.4101 C.3     1  UNL1        0.1895
      2 C          -6.9641  -18.2284   21.8735 C.ar    1  UNL1        0.0172
      3 C          -7.5408  -19.1045   20.8011 C.ar    1  UNL1       -0.0008
      4 C          -6.7438  -20.2564   20.2645 C.ar    1  UNL1       -0.0002
      5 C          -5.3702  -20.5322   20.8002 C.ar    1  UNL1       -0.0000
      6 C          -4.7935  -19.6561   21.8726 C.ar    1  UNL1       -0.0002
      7 C          -5.5904  -18.5042   22.4092 C.ar    1  UNL1       -0.0008
      8 C          -7.4603  -16.5265   23.7728 C.3     1  UNL1        0.0653
      9 C          -6.7083  -15.2361   23.9116 C.3     1  UNL1        0.0727
     10 C          -5.8369  -15.4628   26.3487 C.3     1  UNL1        0.0859
     11 N          -6.4812  -14.6428   25.2705 N.3     1  UNL1       -0.2962
     12 H          -5.8954  -13.8184   25.1377 H       1  UNL1        0.1233
     13 O          -8.8589  -16.4746   21.5839 O.3     1  UNL1       -0.4739
     14 C         -10.2922  -16.7790   21.9050 C.ar    1  UNL1        0.1514
     15 C         -10.6361  -17.5443   23.1483 C.ar    1  UNL1        0.0745
     16 C         -12.0693  -17.8488   23.4693 C.ar    1  UNL1        0.1418
     17 C         -13.1587  -17.3879   22.5469 C.ar    1  UNL1        0.0378
     18 C         -12.8148  -16.6227   21.3035 C.ar    1  UNL1        0.0165
     19 C         -11.3816  -16.3182   20.9825 C.ar    1  UNL1        0.1025
     20 O         -12.4133  -18.6141   24.7127 O.3     1  UNL1       -0.4713
     21 C         -13.8200  -18.6060   25.2334 C.3     1  UNL1        0.2525
     22 C         -11.0377  -15.5529   19.7391 C.1     1  UNL1        0.1035
     23 N         -10.6937  -14.7876   18.4957 N.1     1  UNL1       -0.1907
@<TRIPOS>BOND
     1    10    11    1
     2    11     9    1
     3     9     8    1
     4     1     8    1
     5     1    13    1
     6    13    14    1
     7    14    15   ar
     8    15    16   ar
     9    16    20    1
    10    20    21    1
    11    16    17   ar
    12    17    18   ar
    13    18    19   ar
    14    19    22    1
    15    22    23    3
    16     1     2    1
    17     2     3   ar
    18     3     4   ar
    19     4     5   ar
    20     5     6   ar
    21     6     7   ar
    22    19    14   ar
    23     7     2   ar
    24    11    12    1
@<TRIPOS>MOLECULE
*****
 23 24 0 0 0
SMALL
GASTEIGER

@<TRIPOS>ATOM
      1 C          -8.7201  -17.3071   22.9060 C.3     1  UNL1        0.1895
      2 C         -10.2124  -17.3616   23.0484 C.ar    1  UNL1        0.0172
      3 C         -11.0721  -16.3726   22.3183 C.ar    1  UNL1       -0.0008
      4 C         -12.5643  -16.4271   22.4606 C.ar    1  UNL1       -0.0002
      5 C         -13.1968  -17.4705   23.3329 C.ar    1  UNL1       -0.0000
      6 C         -12.3372  -18.4595   24.0630 C.ar    1  UNL1       -0.0002
      7 C         -10.8450  -18.4051   23.9207 C.ar    1  UNL1       -0.0008
      8 C          -8.0375  -15.9939   22.6623 C.3     1  UNL1        0.0653
      9 C          -7.1380  -15.4101   23.7112 C.3     1  UNL1        0.0727
     10 C          -7.9325  -15.5589   26.1804 C.3     1  UNL1        0.0859
     11 N          -7.7277  -14.7598   24.9276 N.3     1  UNL1       -0.2962
     12 H          -7.1153  -13.9815   25.1715 H       1  UNL1        0.1233
     13 O          -7.9106  -18.5658   23.0075 O.3     1  UNL1       -0.4739
     14 C          -6.8098  -18.8308   22.0236 C.ar    1  UNL1        0.1514
     15 C          -5.3770  -18.7264   22.4551 C.ar    1  UNL1        0.0745
     16 C          -4.2762  -18.9914   21.4712 C.ar    1  UNL1        0.1418
     17 C          -4.6082  -19.3609   20.0558 C.ar    1  UNL1        0.0378
     18 C          -6.0410  -19.4654   19.6243 C.ar    1  UNL1        0.0165
     19 C          -7.1418  -19.2004   20.6082 C.ar    1  UNL1        0.1025
     20 O          -2.8434  -18.8869   21.9027 O.3     1  UNL1       -0.4713
     21 C          -2.4036  -17.7477   22.7738 C.3     1  UNL1        0.2525
     22 C          -8.5746  -19.3048   20.1767 C.1     1  UNL1        0.1035
     23 N         -10.0074  -19.4093   19.7453 N.1     1  UNL1       -0.1907
@<TRIPOS>BOND
     1    10    11    1
     2    11     9    1
     3     9     8    1
     4     1     8    1
     5     1    13    1
     6    13    14    1
     7    14    15   ar
     8    15    16   ar
     9    16    20    1
    10    20    21    1
    11    16    17   ar
    12    17    18   ar
    13    18    19   ar
    14    19    22    1
    15    22    23    3
    16     1     2    1
    17     2     3   ar
    18     3     4   ar
    19     4     5   ar
    20     5     6   ar
    21     6     7   ar
    22    19    14   ar
    23     7     2   ar
    24    11    12    1
@<TRIPOS>MOLECULE
*****
 23 24 0 0 0
SMALL
GASTEIGER

@<TRIPOS>ATOM
      1 C          -7.5496  -18.0541   22.6924 C.3     1  UNL1        0.1895
      2 C          -6.1819  -18.5435   22.3181 C.ar    1  UNL1        0.0172
      3 C          -6.0269  -19.6153   21.2802 C.ar    1  UNL1       -0.0008
      4 C          -4.6594  -20.1047   20.9059 C.ar    1  UNL1       -0.0002
      5 C          -3.4468  -19.5223   21.5694 C.ar    1  UNL1       -0.0000
      6 C          -3.6017  -18.4505   22.6073 C.ar    1  UNL1       -0.0002
      7 C          -4.9693  -17.9611   22.9817 C.ar    1  UNL1       -0.0008
      8 C          -7.7735  -16.5985   22.9766 C.3     1  UNL1        0.0653
      9 C          -7.9408  -16.1275   24.3909 C.3     1  UNL1        0.0727
     10 C          -6.5095  -15.3379   26.4104 C.3     1  UNL1        0.0859
     11 N          -6.9486  -15.1725   24.9857 N.3     1  UNL1       -0.2962
     12 H          -6.1079  -15.2252   24.4105 H       1  UNL1        0.1233
     13 O          -8.6933  -19.0205   22.7826 O.3     1  UNL1       -0.4739
     14 C         -10.0661  -18.6004   22.3479 C.ar    1  UNL1        0.1514
     15 C         -11.0824  -18.1858   23.3702 C.ar    1  UNL1        0.0745
     16 C         -12.4552  -17.7657   22.9354 C.ar    1  UNL1        0.1418
     17 C         -12.8117  -17.7604   21.4784 C.ar    1  UNL1        0.0378
     18 C         -11.7954  -18.1750   20.4561 C.ar    1  UNL1        0.0165
     19 C         -10.4226  -18.5951   20.8908 C.ar    1  UNL1        0.1025
     20 O         -13.4716  -17.3510   23.9578 O.3     1  UNL1       -0.4713
     21 C         -14.2992  -18.3888   24.6564 C.3     1  UNL1        0.2525
     22 C          -9.4062  -19.0098   19.8685 C.1     1  UNL1        0.1035
     23 N          -8.3899  -19.4244   18.8463 N.1     1  UNL1       -0.1907
@<TRIPOS>BOND
     1    10    11    1
     2    11     9    1
     3     9     8    1
     4     1     8    1
     5     1    13    1
     6    13    14    1
     7    14    15   ar
     8    15    16   ar
     9    16    20    1
    10    20    21    1
    11    16    17   ar
    12    17    18   ar
    13    18    19   ar
    14    19    22    1
    15    22    23    3
    16     1     2    1
    17     2     3   ar
    18     3     4   ar
    19     4     5   ar
    20     5     6   ar
    21     6     7   ar
    22    19    14   ar
    23     7     2   ar
    24    11    12    1
@<TRIPOS>MOLECULE
*****
 23 24 0 0 0
SMALL
GASTEIGER

@<TRIPOS>ATOM
      1 C          -8.0684  -16.7410   23.5459 C.3     1  UNL1        0.1895
      2 C          -7.6089  -16.1873   24.8621 C.ar    1  UNL1        0.0172
      3 C          -8.5449  -16.1643   26.0339 C.ar    1  UNL1       -0.0008
      4 C          -8.0854  -15.6106   27.3501 C.ar    1  UNL1       -0.0002
      5 C          -6.6899  -15.0799   27.4943 C.ar    1  UNL1       -0.0000
      6 C          -5.7539  -15.1029   26.3224 C.ar    1  UNL1       -0.0002
      7 C          -6.2134  -15.6565   25.0063 C.ar    1  UNL1       -0.0008
      8 C          -9.4694  -17.2558   23.3968 C.3     1  UNL1        0.0653
      9 C         -10.4753  -16.4743   22.6048 C.3     1  UNL1        0.0727
     10 C         -12.3618  -16.4881   20.8185 C.3     1  UNL1        0.0859
     11 N         -11.5920  -17.1861   21.9002 N.3     1  UNL1       -0.2962
     12 H         -11.1888  -18.0240   21.4809 H       1  UNL1        0.1233
     13 O          -7.1270  -16.7799   22.3788 O.3     1  UNL1       -0.4739
     14 C          -6.9017  -18.0655   21.6394 C.ar    1  UNL1        0.1514
     15 C          -7.9341  -18.5659   20.6733 C.ar    1  UNL1        0.0745
     16 C          -7.7088  -19.8515   19.9340 C.ar    1  UNL1        0.1418
     17 C          -6.4510  -20.6366   20.1609 C.ar    1  UNL1        0.0378
     18 C          -5.4185  -20.1362   21.1271 C.ar    1  UNL1        0.0165
     19 C          -5.6439  -18.8507   21.8664 C.ar    1  UNL1        0.1025
     20 O          -8.7413  -20.3520   18.9678 O.3     1  UNL1       -0.4713
     21 C         -10.1573  -19.8665   19.0651 C.3     1  UNL1        0.2525
     22 C          -4.6113  -18.3502   22.8326 C.1     1  UNL1        0.1035
     23 N          -3.5789  -17.8497   23.7987 N.1     1  UNL1       -0.1907
@<TRIPOS>BOND
     1    10    11    1
     2    11     9    1
     3     9     8    1
     4     1     8    1
     5     1    13    1
     6    13    14    1
     7    14    15   ar
     8    15    16   ar
     9    16    20    1
    10    20    21    1
    11    16    17   ar
    12    17    18   ar
    13    18    19   ar
    14    19    22    1
    15    22    23    3
    16     1     2    1
    17     2     3   ar
    18     3     4   ar
    19     4     5   ar
    20     5     6   ar
    21     6     7   ar
    22    19    14   ar
    23     7     2   ar
    24    11    12    1
