@<TRIPOS>MOLECULE
*****
 23 25 0 0 0
SMALL
GASTEIGER

@<TRIPOS>ATOM
      1 C          -7.9926  -18.0260   21.6251 C.3     1  UNL1        0.1107
      2 O          -6.6899  -17.3722   21.9797 O.3     1  UNL1       -0.3847
      3 C          -9.1122  -18.8982   21.1397 C.3     1  UNL1        0.0546
      4 C         -10.4073  -18.2554   21.5394 C.ar    1  UNL1       -0.0237
      5 C         -11.8359  -18.6621   21.3310 C.ar    1  UNL1       -0.0045
      6 C         -12.9453  -17.7992   21.8550 C.ar    1  UNL1       -0.0003
      7 C         -12.6261  -16.5297   22.5874 C.ar    1  UNL1       -0.0003
      8 C         -11.1974  -16.1230   22.7958 C.ar    1  UNL1       -0.0045
      9 C         -10.0880  -16.9859   22.2717 C.ar    1  UNL1       -0.0237
     10 C          -8.5956  -16.8441   22.3247 C.3     1  UNL1        0.0526
     11 H          -5.9560  -17.9140   21.6500 H       1  UNL1        0.2103
     12 C          -7.1172  -19.0712   20.9996 C.3     1  UNL1        0.0965
     13 C          -4.7765  -19.2795   19.8916 C.3     1  UNL1        0.0859
     14 N          -6.1565  -18.6920   19.9118 N.3     1  UNL1       -0.2943
     15 H          -6.5975  -18.9457   19.0278 H       1  UNL1        0.1234
     16 C          -7.8392  -15.7181   22.9650 C.3     1  UNL1        0.0328
     17 C          -7.5545  -15.7475   24.4375 C.ar    1  UNL1       -0.0257
     18 C          -8.6674  -15.9971   25.4117 C.ar    1  UNL1       -0.0046
     19 C          -8.3828  -16.0265   26.8841 C.ar    1  UNL1       -0.0003
     20 C          -6.9853  -15.8062   27.3824 C.ar    1  UNL1       -0.0003
     21 C          -5.8723  -15.5566   26.4082 C.ar    1  UNL1       -0.0046
     22 C          -6.1569  -15.5272   24.9357 C.ar    1  UNL1       -0.0258
     23 C          -5.0440  -15.2775   23.9615 C.3     1  UNL1        0.0307
@<TRIPOS>BOND
     1    13    14    1
     2    14    12    1
     3    12     1    1
     4     1     2    1
     5     1     3    1
     6     3     4    1
     7     4     5   ar
     8     5     6   ar
     9     6     7   ar
    10     7     8   ar
    11     8     9   ar
    12     9    10    1
    13    10    16    1
    14    16    17    1
    15    17    18   ar
    16    18    19   ar
    17    19    20   ar
    18    20    21   ar
    19    21    22   ar
    20    22    23    1
    21    10     1    1
    22    22    17   ar
    23     9     4   ar
    24    14    15    1
    25     2    11    1
@<TRIPOS>MOLECULE
*****
 23 25 0 0 0
SMALL
GASTEIGER

@<TRIPOS>ATOM
      1 C          -9.6073  -17.1478   21.7416 C.3     1  UNL1        0.1107
      2 O         -10.0050  -15.8059   22.2812 O.3     1  UNL1       -0.3847
      3 C          -9.5070  -18.5014   21.1031 C.3     1  UNL1        0.0546
      4 C          -8.1056  -19.0013   21.2939 C.ar    1  UNL1       -0.0237
      5 C          -7.4280  -20.2727   20.8767 C.ar    1  UNL1       -0.0045
      6 C          -5.9846  -20.4995   21.2158 C.ar    1  UNL1       -0.0003
      7 C          -5.2188  -19.4548   21.9723 C.ar    1  UNL1       -0.0003
      8 C          -5.8964  -18.1833   22.3895 C.ar    1  UNL1       -0.0045
      9 C          -7.3399  -17.9566   22.0504 C.ar    1  UNL1       -0.0237
     10 C          -8.2679  -16.8111   22.3270 C.3     1  UNL1        0.0526
     11 H         -10.9372  -15.6371   22.0732 H       1  UNL1        0.2103
     12 C         -11.0298  -17.2040   21.2689 C.3     1  UNL1        0.0965
     13 C         -11.7191  -15.7111   19.2575 C.3     1  UNL1        0.0859
     14 N         -11.3416  -17.0538   19.8094 N.3     1  UNL1       -0.2943
     15 H         -10.5137  -17.3600   19.2984 H       1  UNL1        0.1234
     16 C          -7.9181  -15.5502   23.0604 C.3     1  UNL1        0.0328
     17 C          -7.5483  -15.6055   24.5131 C.ar    1  UNL1       -0.0257
     18 C          -8.6119  -15.8114   25.5505 C.ar    1  UNL1       -0.0046
     19 C          -8.2422  -15.8667   27.0031 C.ar    1  UNL1       -0.0003
     20 C          -6.8088  -15.7161   27.4184 C.ar    1  UNL1       -0.0003
     21 C          -5.7451  -15.5102   26.3810 C.ar    1  UNL1       -0.0046
     22 C          -6.1148  -15.4549   24.9284 C.ar    1  UNL1       -0.0258
     23 C          -5.0511  -15.2491   23.8910 C.3     1  UNL1        0.0307
@<TRIPOS>BOND
     1    13    14    1
     2    14    12    1
     3    12     1    1
     4     1     2    1
     5     1     3    1
     6     3     4    1
     7     4     5   ar
     8     5     6   ar
     9     6     7   ar
    10     7     8   ar
    11     8     9   ar
    12     9    10    1
    13    10    16    1
    14    16    17    1
    15    17    18   ar
    16    18    19   ar
    17    19    20   ar
    18    20    21   ar
    19    21    22   ar
    20    22    23    1
    21    10     1    1
    22    22    17   ar
    23     9     4   ar
    24    14    15    1
    25     2    11    1
@<TRIPOS>MOLECULE
*****
 23 25 0 0 0
SMALL
GASTEIGER

@<TRIPOS>ATOM
      1 C          -6.8656  -15.9810   23.3919 C.3     1  UNL1        0.1107
      2 O          -7.8127  -14.8271   23.5385 O.3     1  UNL1       -0.3847
      3 C          -5.7391  -16.9701   23.4425 C.3     1  UNL1        0.0546
      4 C          -6.0995  -18.1287   22.5605 C.ar    1  UNL1       -0.0237
      5 C          -5.3733  -19.3971   22.2230 C.ar    1  UNL1       -0.0045
      6 C          -5.9965  -20.3923   21.2897 C.ar    1  UNL1       -0.0003
      7 C          -7.3458  -20.1193   20.6939 C.ar    1  UNL1       -0.0003
      8 C          -8.0719  -18.8509   21.0315 C.ar    1  UNL1       -0.0045
      9 C          -7.4488  -17.8557   21.9648 C.ar    1  UNL1       -0.0237
     10 C          -7.9223  -16.5283   22.4786 C.3     1  UNL1        0.0526
     11 H          -7.4297  -14.1689   24.1394 H       1  UNL1        0.2103
     12 C          -6.0070  -15.1925   24.3358 C.3     1  UNL1        0.0965
     13 C          -6.3625  -15.3675   26.9035 C.3     1  UNL1        0.0859
     14 N          -6.5915  -14.6501   25.6062 N.3     1  UNL1       -0.2943
     15 H          -6.2206  -13.7070   25.7219 H       1  UNL1        0.1234
     16 C          -9.2239  -15.8648   22.1388 C.3     1  UNL1        0.0328
     17 C         -10.5161  -16.5979   22.3460 C.ar    1  UNL1       -0.0257
     18 C         -10.7641  -17.3323   23.6302 C.ar    1  UNL1       -0.0046
     19 C         -12.0562  -18.0654   23.8375 C.ar    1  UNL1       -0.0003
     20 C         -13.1003  -18.0642   22.7605 C.ar    1  UNL1       -0.0003
     21 C         -12.8522  -17.3299   21.4763 C.ar    1  UNL1       -0.0046
     22 C         -11.5601  -16.5967   21.2690 C.ar    1  UNL1       -0.0258
     23 C         -11.3121  -15.8624   19.9848 C.3     1  UNL1        0.0307
@<TRIPOS>BOND
     1    13    14    1
     2    14    12    1
     3    12     1    1
     4     1     2    1
     5     1     3    1
     6     3     4    1
     7     4     5   ar
     8     5     6   ar
     9     6     7   ar
    10     7     8   ar
    11     8     9   ar
    12     9    10    1
    13    10    16    1
    14    16    17    1
    15    17    18   ar
    16    18    19   ar
    17    19    20   ar
    18    20    21   ar
    19    21    22   ar
    20    22    23    1
    21    10     1    1
    22    22    17   ar
    23     9     4   ar
    24    14    15    1
    25     2    11    1
@<TRIPOS>MOLECULE
*****
 23 25 0 0 0
SMALL
GASTEIGER

@<TRIPOS>ATOM
      1 C          -6.6269  -18.8920   21.8871 C.3     1  UNL1        0.1107
      2 O          -7.3026  -20.0377   21.1938 O.3     1  UNL1       -0.3847
      3 C          -5.6924  -17.8594   22.4444 C.3     1  UNL1        0.0546
      4 C          -6.4941  -16.9194   23.2950 C.ar    1  UNL1       -0.0237
      5 C          -6.1068  -15.7106   24.0942 C.ar    1  UNL1       -0.0045
      6 C          -7.1495  -14.9535   24.8619 C.ar    1  UNL1       -0.0003
      7 C          -8.5795  -15.4051   24.8305 C.ar    1  UNL1       -0.0003
      8 C          -8.9669  -16.6139   24.0313 C.ar    1  UNL1       -0.0045
      9 C          -7.9242  -17.3711   23.2636 C.ar    1  UNL1       -0.0237
     10 C          -8.0062  -18.5901   22.3935 C.3     1  UNL1        0.0526
     11 H          -6.6460  -20.5431   20.6895 H       1  UNL1        0.2103
     12 C          -5.3888  -19.4333   21.2359 C.3     1  UNL1        0.0965
     13 C          -3.4443  -19.0178   19.5636 C.3     1  UNL1        0.0859
     14 N          -4.8727  -18.8110   19.9724 N.3     1  UNL1       -0.2943
     15 H          -5.4512  -19.1666   19.2114 H       1  UNL1        0.1234
     16 C          -9.2494  -19.3704   22.0840 C.3     1  UNL1        0.0328
     17 C         -10.5873  -18.8562   22.5265 C.ar    1  UNL1       -0.0257
     18 C         -11.4163  -18.0233   21.5943 C.ar    1  UNL1       -0.0046
     19 C         -12.7541  -17.5090   22.0367 C.ar    1  UNL1       -0.0003
     20 C         -13.2629  -17.8277   23.4113 C.ar    1  UNL1       -0.0003
     21 C         -12.4339  -18.6606   24.3435 C.ar    1  UNL1       -0.0046
     22 C         -11.0961  -19.1749   23.9011 C.ar    1  UNL1       -0.0258
     23 C         -10.2670  -20.0077   24.8333 C.3     1  UNL1        0.0307
@<TRIPOS>BOND
     1    13    14    1
     2    14    12    1
     3    12     1    1
     4     1     2    1
     5     1     3    1
     6     3     4    1
     7     4     5   ar
     8     5     6   ar
     9     6     7   ar
    10     7     8   ar
    11     8     9   ar
    12     9    10    1
    13    10    16    1
    14    16    17    1
    15    17    18   ar
    16    18    19   ar
    17    19    20   ar
    18    20    21   ar
    19    21    22   ar
    20    22    23    1
    21    10     1    1
    22    22    17   ar
    23     9     4   ar
    24    14    15    1
    25     2    11    1
@<TRIPOS>MOLECULE
*****
 23 25 0 0 0
SMALL
GASTEIGER

@<TRIPOS>ATOM
      1 C          -6.3434  -16.1381   23.8716 C.3     1  UNL1        0.1107
      2 O          -7.6415  -15.3995   24.0114 O.3     1  UNL1       -0.3847
      3 C          -4.9449  -16.6748   23.9497 C.3     1  UNL1        0.0546
      4 C          -4.8325  -17.8178   22.9848 C.ar    1  UNL1       -0.0237
      5 C          -3.6916  -18.7260   22.6332 C.ar    1  UNL1       -0.0045
      6 C          -3.8798  -19.8038   21.6072 C.ar    1  UNL1       -0.0003
      7 C          -5.2089  -19.9735   20.9328 C.ar    1  UNL1       -0.0003
      8 C          -6.3497  -19.0653   21.2844 C.ar    1  UNL1       -0.0045
      9 C          -6.1615  -17.9875   22.3104 C.ar    1  UNL1       -0.0237
     10 C          -7.0953  -16.9493   22.8585 C.3     1  UNL1        0.0526
     11 H          -7.5435  -14.6956   24.6717 H       1  UNL1        0.2103
     12 C          -5.8629  -15.1725   24.9140 C.3     1  UNL1        0.0965
     13 C          -6.7491  -15.7140   27.2955 C.3     1  UNL1        0.0859
     14 N          -6.7400  -14.8320   26.0823 N.3     1  UNL1       -0.2943
     15 H          -6.4638  -13.9017   26.3965 H       1  UNL1        0.1234
     16 C          -8.5293  -16.7564   22.4628 C.3     1  UNL1        0.0328
     17 C          -9.4145  -17.9480   22.2465 C.ar    1  UNL1       -0.0257
     18 C          -9.7226  -18.4102   20.8532 C.ar    1  UNL1       -0.0046
     19 C         -10.6078  -19.6017   20.6367 C.ar    1  UNL1       -0.0003
     20 C         -11.1848  -20.3309   21.8137 C.ar    1  UNL1       -0.0003
     21 C         -10.8766  -19.8687   23.2071 C.ar    1  UNL1       -0.0046
     22 C          -9.9915  -18.6772   23.4235 C.ar    1  UNL1       -0.0258
     23 C          -9.6833  -18.2149   24.8168 C.3     1  UNL1        0.0307
@<TRIPOS>BOND
     1    13    14    1
     2    14    12    1
     3    12     1    1
     4     1     2    1
     5     1     3    1
     6     3     4    1
     7     4     5   ar
     8     5     6   ar
     9     6     7   ar
    10     7     8   ar
    11     8     9   ar
    12     9    10    1
    13    10    16    1
    14    16    17    1
    15    17    18   ar
    16    18    19   ar
    17    19    20   ar
    18    20    21   ar
    19    21    22   ar
    20    22    23    1
    21    10     1    1
    22    22    17   ar
    23     9     4   ar
    24    14    15    1
    25     2    11    1
@<TRIPOS>MOLECULE
*****
 23 25 0 0 0
SMALL
GASTEIGER

@<TRIPOS>ATOM
      1 C          -5.7320  -16.6278   23.7453 C.3     1  UNL1        0.1107
      2 O          -4.2922  -16.8315   24.1131 O.3     1  UNL1       -0.3847
      3 C          -7.1536  -16.1808   23.5745 C.3     1  UNL1        0.0546
      4 C          -7.8186  -17.1109   22.6036 C.ar    1  UNL1       -0.0237
      5 C          -9.2138  -17.1593   22.0549 C.ar    1  UNL1       -0.0045
      6 C          -9.5983  -18.2297   21.0769 C.ar    1  UNL1       -0.0003
      7 C          -8.5876  -19.2516   20.6477 C.ar    1  UNL1       -0.0003
      8 C          -7.1924  -19.2032   21.1964 C.ar    1  UNL1       -0.0045
      9 C          -6.8079  -18.1328   22.1743 C.ar    1  UNL1       -0.0237
     10 C          -5.5184  -17.8342   22.8800 C.3     1  UNL1        0.0526
     11 H          -4.0205  -16.1489   24.7465 H       1  UNL1        0.2103
     12 C          -5.6447  -15.4639   24.6876 C.3     1  UNL1        0.0965
     13 C          -6.6308  -15.3942   27.0903 C.3     1  UNL1        0.0859
     14 N          -6.7839  -15.1635   25.6161 N.3     1  UNL1       -0.2943
     15 H          -7.0104  -14.1764   25.4944 H       1  UNL1        0.1234
     16 C          -4.2397  -18.6065   22.7441 C.3     1  UNL1        0.0328
     17 C          -3.2863  -18.2887   21.6304 C.ar    1  UNL1       -0.0257
     18 C          -2.3466  -17.1263   21.7563 C.ar    1  UNL1       -0.0046
     19 C          -1.3932  -16.8084   20.6428 C.ar    1  UNL1       -0.0003
     20 C          -1.3795  -17.6531   19.4033 C.ar    1  UNL1       -0.0003
     21 C          -2.3192  -18.8155   19.2774 C.ar    1  UNL1       -0.0046
     22 C          -3.2725  -19.1333   20.3909 C.ar    1  UNL1       -0.0258
     23 C          -4.2122  -20.2957   20.2650 C.3     1  UNL1        0.0307
@<TRIPOS>BOND
     1    13    14    1
     2    14    12    1
     3    12     1    1
     4     1     2    1
     5     1     3    1
     6     3     4    1
     7     4     5   ar
     8     5     6   ar
     9     6     7   ar
    10     7     8   ar
    11     8     9   ar
    12     9    10    1
    13    10    16    1
    14    16    17    1
    15    17    18   ar
    16    18    19   ar
    17    19    20   ar
    18    20    21   ar
    19    21    22   ar
    20    22    23    1
    21    10     1    1
    22    22    17   ar
    23     9     4   ar
    24    14    15    1
    25     2    11    1
@<TRIPOS>MOLECULE
*****
 23 25 0 0 0
SMALL
GASTEIGER

@<TRIPOS>ATOM
      1 C          -7.8382  -16.4159   22.6054 C.3     1  UNL1        0.1107
      2 O          -6.4844  -16.6008   23.2243 O.3     1  UNL1       -0.3847
      3 C          -9.1370  -15.9265   22.0365 C.3     1  UNL1        0.0546
      4 C          -9.9201  -17.1198   21.5754 C.ar    1  UNL1       -0.0237
      5 C         -11.2699  -17.2477   20.9337 C.ar    1  UNL1       -0.0045
      6 C         -11.8049  -18.6026   20.5760 C.ar    1  UNL1       -0.0003
      7 C         -10.9901  -19.8296   20.8600 C.ar    1  UNL1       -0.0003
      8 C          -9.6404  -19.7017   21.5017 C.ar    1  UNL1       -0.0045
      9 C          -9.1054  -18.3468   21.8594 C.ar    1  UNL1       -0.0237
     10 C          -7.8187  -17.9118   22.4960 C.3     1  UNL1        0.0526
     11 H          -6.1178  -15.7354   23.4644 H       1  UNL1        0.2103
     12 C          -7.5747  -14.9587   22.8442 C.3     1  UNL1        0.0965
     13 C          -8.3640  -15.1944   25.3083 C.3     1  UNL1        0.0859
     14 N          -7.7112  -14.3882   24.2248 N.3     1  UNL1       -0.2943
     15 H          -6.7687  -14.1697   24.5476 H       1  UNL1        0.1234
     16 C          -6.7076  -18.8142   22.9444 C.3     1  UNL1        0.0328
     17 C          -5.7795  -19.4204   21.9337 C.ar    1  UNL1       -0.0257
     18 C          -6.3227  -20.3112   20.8561 C.ar    1  UNL1       -0.0046
     19 C          -5.3947  -20.9174   19.8454 C.ar    1  UNL1       -0.0003
     20 C          -3.9235  -20.6326   19.9125 C.ar    1  UNL1       -0.0003
     21 C          -3.3804  -19.7417   20.9901 C.ar    1  UNL1       -0.0046
     22 C          -4.3083  -19.1356   22.0007 C.ar    1  UNL1       -0.0258
     23 C          -3.7652  -18.2447   23.0784 C.3     1  UNL1        0.0307
@<TRIPOS>BOND
     1    13    14    1
     2    14    12    1
     3    12     1    1
     4     1     2    1
     5     1     3    1
     6     3     4    1
     7     4     5   ar
     8     5     6   ar
     9     6     7   ar
    10     7     8   ar
    11     8     9   ar
    12     9    10    1
    13    10    16    1
    14    16    17    1
    15    17    18   ar
    16    18    19   ar
    17    19    20   ar
    18    20    21   ar
    19    21    22   ar
    20    22    23    1
    21    10     1    1
    22    22    17   ar
    23     9     4   ar
    24    14    15    1
    25     2    11    1
@<TRIPOS>MOLECULE
*****
 23 25 0 0 0
SMALL
GASTEIGER

@<TRIPOS>ATOM
      1 C         -15.1997   -6.9479   19.2690 C.3     1  UNL1        0.1107
      2 O         -14.3079   -8.1381   19.0741 O.3     1  UNL1       -0.3847
      3 C         -16.3214   -5.9708   19.4610 C.3     1  UNL1        0.0546
      4 C         -15.7282   -4.5962   19.5533 C.ar    1  UNL1       -0.0237
      5 C         -16.3510   -3.2448   19.7427 C.ar    1  UNL1       -0.0045
      6 C         -15.4854   -2.0211   19.7973 C.ar    1  UNL1       -0.0003
      7 C         -13.9969   -2.1486   19.6624 C.ar    1  UNL1       -0.0003
      8 C         -13.3741   -3.5000   19.4730 C.ar    1  UNL1       -0.0045
      9 C         -14.2397   -4.7237   19.4184 C.ar    1  UNL1       -0.0237
     10 C         -13.9131   -6.1772   19.2427 C.3     1  UNL1        0.0526
     11 H         -14.8472   -8.9434   19.0357 H       1  UNL1        0.2103
     12 C         -16.2998   -7.9674   19.2546 C.3     1  UNL1        0.0965
     13 C         -16.9916  -10.4610   19.4855 C.3     1  UNL1        0.0859
     14 N         -16.0645   -9.3330   19.8290 N.3     1  UNL1       -0.2943
     15 H         -15.1307   -9.6192   19.5347 H       1  UNL1        0.1234
     16 C         -12.5408   -6.7579   19.0709 C.3     1  UNL1        0.0328
     17 C         -11.4985   -6.0040   18.2992 C.ar    1  UNL1       -0.0257
     18 C         -10.3857   -5.3075   19.0247 C.ar    1  UNL1       -0.0046
     19 C          -9.3435   -4.5536   18.2531 C.ar    1  UNL1       -0.0003
     20 C          -9.4142   -4.4962   16.7559 C.ar    1  UNL1       -0.0003
     21 C         -10.5270   -5.1928   16.0303 C.ar    1  UNL1       -0.0046
     22 C         -11.5692   -5.9466   16.8020 C.ar    1  UNL1       -0.0258
     23 C         -12.6821   -6.6432   16.0764 C.3     1  UNL1        0.0307
@<TRIPOS>BOND
     1    13    14    1
     2    14    12    1
     3    12     1    1
     4     1     2    1
     5     1     3    1
     6     3     4    1
     7     4     5   ar
     8     5     6   ar
     9     6     7   ar
    10     7     8   ar
    11     8     9   ar
    12     9    10    1
    13    10    16    1
    14    16    17    1
    15    17    18   ar
    16    18    19   ar
    17    19    20   ar
    18    20    21   ar
    19    21    22   ar
    20    22    23    1
    21    10     1    1
    22    22    17   ar
    23     9     4   ar
    24    14    15    1
    25     2    11    1
@<TRIPOS>MOLECULE
*****
 23 25 0 0 0
SMALL
GASTEIGER

@<TRIPOS>ATOM
      1 C          -8.9319  -16.8847   22.0707 C.3     1  UNL1        0.1107
      2 O          -7.9303  -16.5137   21.0175 O.3     1  UNL1       -0.3847
      3 C         -10.0369  -16.9627   23.0820 C.3     1  UNL1        0.0546
      4 C         -10.0153  -18.3350   23.6873 C.ar    1  UNL1       -0.0237
      5 C         -10.8695  -18.9828   24.7364 C.ar    1  UNL1       -0.0045
      6 C         -10.6053  -20.4007   25.1483 C.ar    1  UNL1       -0.0003
      7 C          -9.4869  -21.1708   24.5111 C.ar    1  UNL1       -0.0003
      8 C          -8.6327  -20.5230   23.4620 C.ar    1  UNL1       -0.0045
      9 C          -8.8969  -19.1051   23.0501 C.ar    1  UNL1       -0.0237
     10 C          -8.2273  -18.2088   22.0510 C.3     1  UNL1        0.0526
     11 H          -8.0822  -15.5983   20.7350 H       1  UNL1        0.2103
     12 C          -9.4271  -15.4831   21.8702 C.3     1  UNL1        0.0965
     13 C         -11.1452  -15.7040   19.9339 C.3     1  UNL1        0.0859
     14 N          -9.9312  -15.0509   20.5252 N.3     1  UNL1       -0.2943
     15 H         -10.1371  -14.0543   20.5942 H       1  UNL1        0.1234
     16 C          -7.0583  -18.5727   21.1843 C.3     1  UNL1        0.0328
     17 C          -5.6760  -18.6089   21.7658 C.ar    1  UNL1       -0.0257
     18 C          -5.2864  -17.6319   22.8352 C.ar    1  UNL1       -0.0046
     19 C          -3.9042  -17.6680   23.4167 C.ar    1  UNL1       -0.0003
     20 C          -2.9116  -18.6814   22.9288 C.ar    1  UNL1       -0.0003
     21 C          -3.3013  -19.6584   21.8595 C.ar    1  UNL1       -0.0046
     22 C          -4.6835  -19.6223   21.2780 C.ar    1  UNL1       -0.0258
     23 C          -5.0731  -20.5993   20.2086 C.3     1  UNL1        0.0307
@<TRIPOS>BOND
     1    13    14    1
     2    14    12    1
     3    12     1    1
     4     1     2    1
     5     1     3    1
     6     3     4    1
     7     4     5   ar
     8     5     6   ar
     9     6     7   ar
    10     7     8   ar
    11     8     9   ar
    12     9    10    1
    13    10    16    1
    14    16    17    1
    15    17    18   ar
    16    18    19   ar
    17    19    20   ar
    18    20    21   ar
    19    21    22   ar
    20    22    23    1
    21    10     1    1
    22    22    17   ar
    23     9     4   ar
    24    14    15    1
    25     2    11    1
