@<TRIPOS>MOLECULE
*****
 30 32 0 0 0
SMALL
GASTEIGER

@<TRIPOS>ATOM
      1 C         -16.2684   -0.2088   18.9751 C.ar    1  UNL1        0.1549
      2 C         -15.0708    0.5962   18.5653 C.ar    1  UNL1        0.0396
      3 C         -13.7117   -0.0380   18.5457 C.ar    1  UNL1        0.0234
      4 C         -13.5500   -1.4773   18.9361 C.ar    1  UNL1        0.1261
      5 C         -14.7475   -2.2823   19.3459 C.ar    1  UNL1        0.0335
      6 C         -16.1067   -1.6480   19.3654 C.ar    1  UNL1        0.1042
      7 S         -12.1908   -2.1116   18.9165 S.O2    1  UNL1        0.0747
      8 O         -11.7754   -1.1874   17.8105 O.2     1  UNL1       -0.1499
      9 O         -12.6062   -3.0358   20.0225 O.2     1  UNL1       -0.1499
     10 N         -10.8317   -2.7459   18.8971 N.pl3   1  UNL1       -0.1989
     11 H         -10.0359   -2.2116   19.1219 H       1  UNL1        0.1753
     12 C         -10.6850   -4.1941   18.5350 C.ar    1  UNL1        0.1472
     13 C          -9.7251   -5.0630   19.2923 C.ar    1  UNL1        0.0379
     14 C          -9.5784   -6.5112   18.9302 C.ar    1  UNL1        0.0342
     15 C         -10.3916   -7.0906   17.8109 C.ar    1  UNL1        0.1593
     16 F         -10.2449   -8.5388   17.4488 F       1  UNL1       -0.2025
     17 C         -11.3515   -6.2217   17.0536 C.ar    1  UNL1        0.1299
     18 N         -11.4982   -4.7734   17.4156 N.ar    1  UNL1       -0.2256
     19 C         -17.3042   -2.4530   19.7752 C.1     1  UNL1        0.1035
     20 N         -18.5016   -3.2580   20.1851 N.1     1  UNL1       -0.1907
     21 O         -17.6275    0.4255   18.9946 O.3     1  UNL1       -0.4528
     22 C         -19.2873    2.0716   22.8398 C.ar    1  UNL1        0.0792
     23 C         -20.2048    1.4343   21.8388 C.ar    1  UNL1        0.0143
     24 C         -19.6515    0.8856   20.5571 C.ar    1  UNL1        0.0382
     25 C         -18.1807    0.9742   20.2763 C.ar    1  UNL1        0.1462
     26 C         -17.2632    1.6115   21.2773 C.ar    1  UNL1        0.0496
     27 C         -17.8165    2.1602   22.5590 C.ar    1  UNL1        0.0703
     28 CL        -16.8989    2.7975   23.5600 Cl      1  UNL1       -0.0814
     29 N         -20.3939    3.1690   25.4032 N.1     1  UNL1       -0.1908
     30 C         -19.8406    2.6203   24.1215 C.1     1  UNL1        0.1013
@<TRIPOS>BOND
     1    29    30    3
     2    30    22    1
     3    22    23   ar
     4    23    24   ar
     5    24    25   ar
     6    25    21    1
     7    21     1    1
     8     1     2   ar
     9     2     3   ar
    10     3     4   ar
    11     4     7    1
    12     7     8    2
    13     7     9    2
    14     7    10    1
    15    10    12    1
    16    12    13   ar
    17    13    14   ar
    18    14    15   ar
    19    15    16    1
    20    15    17   ar
    21    17    18   ar
    22     4     5   ar
    23     5     6   ar
    24     6    19    1
    25    19    20    3
    26    25    26   ar
    27    26    27   ar
    28    27    28    1
    29    27    22   ar
    30     6     1   ar
    31    18    12   ar
    32    10    11    1
@<TRIPOS>MOLECULE
*****
 30 32 0 0 0
SMALL
GASTEIGER

@<TRIPOS>ATOM
      1 C         -15.5407    0.2998   18.6775 C.ar    1  UNL1        0.1549
      2 C         -15.4859   -1.1118   19.1820 C.ar    1  UNL1        0.0396
      3 C         -14.1791   -1.8476   19.2112 C.ar    1  UNL1        0.0234
      4 C         -12.9271   -1.1719   18.7361 C.ar    1  UNL1        0.1261
      5 C         -12.9818    0.2397   18.2317 C.ar    1  UNL1        0.0335
      6 C         -14.2887    0.9756   18.2024 C.ar    1  UNL1        0.1042
      7 S         -11.6203   -1.9077   18.7653 S.O2    1  UNL1        0.0747
      8 O         -11.0559   -0.9455   17.7625 O.2     1  UNL1       -0.1499
      9 O         -12.1846   -2.8699   19.7682 O.2     1  UNL1       -0.1499
     10 N         -10.3135   -2.6436   18.7946 N.pl3   1  UNL1       -0.1989
     11 H          -9.4837   -2.1644   19.0205 H       1  UNL1        0.1753
     12 C         -10.2711   -4.1095   18.4798 C.ar    1  UNL1        0.1472
     13 C         -10.9274   -4.6286   17.2349 C.ar    1  UNL1        0.0379
     14 C         -10.8849   -6.0946   16.9201 C.ar    1  UNL1        0.0342
     15 C         -10.1861   -7.0415   17.8501 C.ar    1  UNL1        0.1593
     16 F         -10.1437   -8.5075   17.5353 F       1  UNL1       -0.2025
     17 C          -9.5298   -6.5224   19.0950 C.ar    1  UNL1        0.1299
     18 N          -9.5723   -5.0565   19.4098 N.ar    1  UNL1       -0.2256
     19 C         -14.3434    2.3871   17.6980 C.1     1  UNL1        0.1035
     20 N         -14.3982    3.7987   17.1936 N.1     1  UNL1       -0.1907
     21 O         -16.8475    1.0356   18.6483 O.3     1  UNL1       -0.4528
     22 C         -18.9551    2.0324   22.4972 C.ar    1  UNL1        0.0792
     23 C         -19.6766    1.2769   21.4209 C.ar    1  UNL1        0.0143
     24 C         -18.9741    0.9446   20.1379 C.ar    1  UNL1        0.0382
     25 C         -17.5500    1.3679   19.9313 C.ar    1  UNL1        0.1462
     26 C         -16.8284    2.1234   21.0076 C.ar    1  UNL1        0.0496
     27 C         -17.5310    2.4556   22.2906 C.ar    1  UNL1        0.0703
     28 CL        -16.8093    3.2112   23.3669 Cl      1  UNL1       -0.0814
     29 N         -20.3601    2.6970   25.0632 N.1     1  UNL1       -0.1908
     30 C         -19.6576    2.3647   23.7802 C.1     1  UNL1        0.1013
@<TRIPOS>BOND
     1    29    30    3
     2    30    22    1
     3    22    23   ar
     4    23    24   ar
     5    24    25   ar
     6    25    21    1
     7    21     1    1
     8     1     2   ar
     9     2     3   ar
    10     3     4   ar
    11     4     7    1
    12     7     8    2
    13     7     9    2
    14     7    10    1
    15    10    12    1
    16    12    13   ar
    17    13    14   ar
    18    14    15   ar
    19    15    16    1
    20    15    17   ar
    21    17    18   ar
    22     4     5   ar
    23     5     6   ar
    24     6    19    1
    25    19    20    3
    26    25    26   ar
    27    26    27   ar
    28    27    28    1
    29    27    22   ar
    30     6     1   ar
    31    18    12   ar
    32    10    11    1
@<TRIPOS>MOLECULE
*****
 30 32 0 0 0
SMALL
GASTEIGER

@<TRIPOS>ATOM
      1 C           4.5930   -3.1182   20.4988 C.ar    1  UNL1        0.1549
      2 C           4.1670   -3.5493   21.8710 C.ar    1  UNL1        0.0396
      3 C           5.1994   -3.8966   22.9022 C.ar    1  UNL1        0.0234
      4 C           6.6578   -3.8127   22.5614 C.ar    1  UNL1        0.1261
      5 C           7.0837   -3.3816   21.1893 C.ar    1  UNL1        0.0335
      6 C           6.0513   -3.0343   20.1580 C.ar    1  UNL1        0.1042
      7 S           7.6902   -4.1600   23.5927 S.O2    1  UNL1        0.0747
      8 O           7.6258   -5.5986   23.1729 O.2     1  UNL1       -0.1499
      9 O           7.7546   -2.7214   24.0126 O.2     1  UNL1       -0.1499
     10 N           8.7226   -4.5072   24.6240 N.pl3   1  UNL1       -0.1989
     11 H           9.6797   -4.4549   24.3995 H       1  UNL1        0.1753
     12 C           8.2967   -4.9341   25.9975 C.ar    1  UNL1        0.1472
     13 C           6.8382   -5.0369   26.3324 C.ar    1  UNL1        0.0379
     14 C           6.4123   -5.4637   27.7059 C.ar    1  UNL1        0.0342
     15 C           7.4449   -5.7879   28.7444 C.ar    1  UNL1        0.1593
     16 F           7.0191   -6.2148   30.1179 F       1  UNL1       -0.2025
     17 C           8.9034   -5.6851   28.4095 C.ar    1  UNL1        0.1299
     18 N           9.3293   -5.2582   27.0360 N.ar    1  UNL1       -0.2256
     19 C           6.4773   -2.6032   18.7859 C.1     1  UNL1        0.1035
     20 N           6.9032   -2.1721   17.4138 N.1     1  UNL1       -0.1907
     21 O           3.5606   -2.7709   19.4676 O.3     1  UNL1       -0.4528
     22 C           1.8632    1.3932   19.2962 C.ar    1  UNL1        0.0792
     23 C           2.8749    0.9532   18.2799 C.ar    1  UNL1        0.0143
     24 C           3.4406   -0.4348   18.3370 C.ar    1  UNL1        0.0382
     25 C           2.9948   -1.3829   19.4105 C.ar    1  UNL1        0.1462
     26 C           1.9831   -0.9429   20.4268 C.ar    1  UNL1        0.0496
     27 C           1.4174    0.4451   20.3697 C.ar    1  UNL1        0.0703
     28 CL          0.4057    0.8851   21.3861 Cl      1  UNL1       -0.0814
     29 N           0.7317    4.1693   19.1820 N.1     1  UNL1       -0.1908
     30 C           1.2975    2.7812   19.2391 C.1     1  UNL1        0.1013
@<TRIPOS>BOND
     1    29    30    3
     2    30    22    1
     3    22    23   ar
     4    23    24   ar
     5    24    25   ar
     6    25    21    1
     7    21     1    1
     8     1     2   ar
     9     2     3   ar
    10     3     4   ar
    11     4     7    1
    12     7     8    2
    13     7     9    2
    14     7    10    1
    15    10    12    1
    16    12    13   ar
    17    13    14   ar
    18    14    15   ar
    19    15    16    1
    20    15    17   ar
    21    17    18   ar
    22     4     5   ar
    23     5     6   ar
    24     6    19    1
    25    19    20    3
    26    25    26   ar
    27    26    27   ar
    28    27    28    1
    29    27    22   ar
    30     6     1   ar
    31    18    12   ar
    32    10    11    1
@<TRIPOS>MOLECULE
*****
 30 32 0 0 0
SMALL
GASTEIGER

@<TRIPOS>ATOM
      1 C          -8.8182  -18.5333   20.6839 C.ar    1  UNL1        0.1549
      2 C          -8.2486  -19.6333   19.8379 C.ar    1  UNL1        0.0396
      3 C          -6.8033  -20.0111   19.9723 C.ar    1  UNL1        0.0234
      4 C          -5.9273  -19.2888   20.9526 C.ar    1  UNL1        0.1261
      5 C          -6.4967  -18.1888   21.7986 C.ar    1  UNL1        0.0335
      6 C          -7.9422  -17.8110   21.6643 C.ar    1  UNL1        0.1042
      7 S          -4.4818  -19.6666   21.0870 S.O2    1  UNL1        0.0747
      8 O          -4.6252  -19.6845   22.5800 O.2     1  UNL1       -0.1499
      9 O          -4.3384  -19.6488   19.5940 O.2     1  UNL1       -0.1499
     10 N          -3.0364  -20.0444   21.2213 N.pl3   1  UNL1       -0.1989
     11 H          -2.7899  -20.9325   21.5672 H       1  UNL1        0.1753
     12 C          -1.9667  -19.0690   20.8285 C.ar    1  UNL1        0.1472
     13 C          -2.0742  -17.6312   21.2420 C.ar    1  UNL1        0.0379
     14 C          -1.0044  -16.6559   20.8493 C.ar    1  UNL1        0.0342
     15 C           0.1728  -17.1183   20.0429 C.ar    1  UNL1        0.1593
     16 F           1.2426  -16.1429   19.6502 F       1  UNL1       -0.2025
     17 C           0.2803  -18.5561   19.6294 C.ar    1  UNL1        0.1299
     18 N          -0.7894  -19.5315   20.0222 N.ar    1  UNL1       -0.2256
     19 C          -8.5116  -16.7110   22.5102 C.1     1  UNL1        0.1035
     20 N          -9.0811  -15.6111   23.3562 N.1     1  UNL1       -0.1907
     21 O         -10.2635  -18.1555   20.5495 O.3     1  UNL1       -0.4528
     22 C         -13.0047  -18.4442   24.1066 C.ar    1  UNL1        0.0792
     23 C         -13.4928  -17.8217   22.8322 C.ar    1  UNL1        0.0143
     24 C         -12.5791  -17.7255   21.6465 C.ar    1  UNL1        0.0382
     25 C         -11.1773  -18.2518   21.7352 C.ar    1  UNL1        0.1462
     26 C         -10.6892  -18.8743   23.0097 C.ar    1  UNL1        0.0496
     27 C         -11.6029  -18.9705   24.1953 C.ar    1  UNL1        0.0703
     28 CL        -11.1147  -19.5931   25.4698 Cl      1  UNL1       -0.0814
     29 N         -14.8321  -18.6367   26.4780 N.1     1  UNL1       -0.1908
     30 C         -13.9184  -18.5404   25.2923 C.1     1  UNL1        0.1013
@<TRIPOS>BOND
     1    29    30    3
     2    30    22    1
     3    22    23   ar
     4    23    24   ar
     5    24    25   ar
     6    25    21    1
     7    21     1    1
     8     1     2   ar
     9     2     3   ar
    10     3     4   ar
    11     4     7    1
    12     7     8    2
    13     7     9    2
    14     7    10    1
    15    10    12    1
    16    12    13   ar
    17    13    14   ar
    18    14    15   ar
    19    15    16    1
    20    15    17   ar
    21    17    18   ar
    22     4     5   ar
    23     5     6   ar
    24     6    19    1
    25    19    20    3
    26    25    26   ar
    27    26    27   ar
    28    27    28    1
    29    27    22   ar
    30     6     1   ar
    31    18    12   ar
    32    10    11    1
@<TRIPOS>MOLECULE
*****
 30 32 0 0 0
SMALL
GASTEIGER

@<TRIPOS>ATOM
      1 C          -6.2021  -20.3034   20.3411 C.ar    1  UNL1        0.1549
      2 C          -7.3419  -20.6017   19.4126 C.ar    1  UNL1        0.0396
      3 C          -8.6821  -19.9688   19.6428 C.ar    1  UNL1        0.0234
      4 C          -8.8827  -19.0375   20.8015 C.ar    1  UNL1        0.1261
      5 C          -7.7430  -18.7392   21.7300 C.ar    1  UNL1        0.0335
      6 C          -6.4027  -19.3721   21.4998 C.ar    1  UNL1        0.1042
      7 S         -10.2231  -18.4046   21.0317 S.O2    1  UNL1        0.0747
      8 O          -9.5552  -17.0895   21.3048 O.2     1  UNL1       -0.1499
      9 O         -10.8909  -19.7196   20.7587 O.2     1  UNL1       -0.1499
     10 N         -11.5634  -17.7717   21.2619 N.pl3   1  UNL1       -0.1989
     11 H         -11.9620  -17.1973   20.5688 H       1  UNL1        0.1753
     12 C         -12.2963  -18.0141   22.5480 C.ar    1  UNL1        0.1472
     13 C         -13.7651  -17.7240   22.6404 C.ar    1  UNL1        0.0379
     14 C         -14.4980  -17.9664   23.9264 C.ar    1  UNL1        0.0342
     15 C         -13.7622  -18.4989   25.1202 C.ar    1  UNL1        0.1593
     16 F         -14.4952  -18.7413   26.4062 F       1  UNL1       -0.2025
     17 C         -12.2935  -18.7890   25.0278 C.ar    1  UNL1        0.1299
     18 N         -11.5606  -18.5466   23.7417 N.ar    1  UNL1       -0.2256
     19 C          -5.2630  -19.0738   22.4282 C.1     1  UNL1        0.1035
     20 N          -4.1233  -18.7755   23.3567 N.1     1  UNL1       -0.1907
     21 O          -4.8618  -20.9363   20.1109 O.3     1  UNL1       -0.4528
     22 C          -1.1568  -18.3846   20.0053 C.ar    1  UNL1        0.0792
     23 C          -1.3132  -19.4364   21.0632 C.ar    1  UNL1        0.0143
     24 C          -2.5482  -20.2869   21.0984 C.ar    1  UNL1        0.0382
     25 C          -3.6268  -20.0858   20.0757 C.ar    1  UNL1        0.1462
     26 C          -3.4704  -19.0340   19.0177 C.ar    1  UNL1        0.0496
     27 C          -2.2354  -18.1834   18.9825 C.ar    1  UNL1        0.0703
     28 CL         -2.0791  -17.1316   17.9245 Cl      1  UNL1       -0.0814
     29 N           1.3133  -16.6834   19.9348 N.1     1  UNL1       -0.1908
     30 C           0.0782  -17.5340   19.9700 C.1     1  UNL1        0.1013
@<TRIPOS>BOND
     1    29    30    3
     2    30    22    1
     3    22    23   ar
     4    23    24   ar
     5    24    25   ar
     6    25    21    1
     7    21     1    1
     8     1     2   ar
     9     2     3   ar
    10     3     4   ar
    11     4     7    1
    12     7     8    2
    13     7     9    2
    14     7    10    1
    15    10    12    1
    16    12    13   ar
    17    13    14   ar
    18    14    15   ar
    19    15    16    1
    20    15    17   ar
    21    17    18   ar
    22     4     5   ar
    23     5     6   ar
    24     6    19    1
    25    19    20    3
    26    25    26   ar
    27    26    27   ar
    28    27    28    1
    29    27    22   ar
    30     6     1   ar
    31    18    12   ar
    32    10    11    1
@<TRIPOS>MOLECULE
*****
 30 32 0 0 0
SMALL
GASTEIGER

@<TRIPOS>ATOM
      1 C           4.4395   -2.7022   20.5254 C.ar    1  UNL1        0.1549
      2 C           3.9651   -3.0045   21.9159 C.ar    1  UNL1        0.0396
      3 C           4.9557   -3.3508   22.9877 C.ar    1  UNL1        0.0234
      4 C           6.4208   -3.3948   22.6690 C.ar    1  UNL1        0.1261
      5 C           6.8953   -3.0925   21.2785 C.ar    1  UNL1        0.0335
      6 C           5.9046   -2.7462   20.2066 C.ar    1  UNL1        0.1042
      7 S           7.4114   -3.7411   23.7408 S.O2    1  UNL1        0.0747
      8 O           6.3162   -3.7043   24.7650 O.2     1  UNL1       -0.1499
      9 O           8.5067   -3.7779   22.7166 O.2     1  UNL1       -0.1499
     10 N           8.4021   -4.0874   24.8126 N.pl3   1  UNL1       -0.1989
     11 H           9.1288   -3.4606   25.0323 H       1  UNL1        0.1753
     12 C           8.2855   -5.3887   25.5496 C.ar    1  UNL1        0.1472
     13 C           8.1165   -6.6696   24.7876 C.ar    1  UNL1        0.0379
     14 C           7.9999   -7.9709   25.5246 C.ar    1  UNL1        0.0342
     15 C           8.0523   -7.9912   27.0235 C.ar    1  UNL1        0.1593
     16 F           7.9357   -9.2924   27.7605 F       1  UNL1       -0.2025
     17 C           8.2213   -6.7102   27.7855 C.ar    1  UNL1        0.1299
     18 N           8.3379   -5.4090   27.0485 N.ar    1  UNL1       -0.2256
     19 C           6.3791   -2.4440   18.8162 C.1     1  UNL1        0.1035
     20 N           6.8536   -2.1417   17.4257 N.1     1  UNL1       -0.1907
     21 O           3.4489   -2.3559   19.4536 O.3     1  UNL1       -0.4528
     22 C           1.3272    1.6114   19.5476 C.ar    1  UNL1        0.0792
     23 C           0.6891    0.4047   20.1694 C.ar    1  UNL1        0.0143
     24 C           1.3964   -0.9177   20.1381 C.ar    1  UNL1        0.0382
     25 C           2.7417   -1.0335   19.4849 C.ar    1  UNL1        0.1462
     26 C           3.3797    0.1732   18.8631 C.ar    1  UNL1        0.0496
     27 C           2.6725    1.4956   18.8944 C.ar    1  UNL1        0.0703
     28 CL          3.3106    2.7024   18.2725 Cl      1  UNL1       -0.0814
     29 N          -0.0873    4.2562   19.6102 N.1     1  UNL1       -0.1908
     30 C           0.6199    2.9338   19.5789 C.1     1  UNL1        0.1013
@<TRIPOS>BOND
     1    29    30    3
     2    30    22    1
     3    22    23   ar
     4    23    24   ar
     5    24    25   ar
     6    25    21    1
     7    21     1    1
     8     1     2   ar
     9     2     3   ar
    10     3     4   ar
    11     4     7    1
    12     7     8    2
    13     7     9    2
    14     7    10    1
    15    10    12    1
    16    12    13   ar
    17    13    14   ar
    18    14    15   ar
    19    15    16    1
    20    15    17   ar
    21    17    18   ar
    22     4     5   ar
    23     5     6   ar
    24     6    19    1
    25    19    20    3
    26    25    26   ar
    27    26    27   ar
    28    27    28    1
    29    27    22   ar
    30     6     1   ar
    31    18    12   ar
    32    10    11    1
@<TRIPOS>MOLECULE
*****
 30 32 0 0 0
SMALL
GASTEIGER

@<TRIPOS>ATOM
      1 C         -15.2727    0.4703   18.9711 C.ar    1  UNL1        0.1549
      2 C         -14.0274    1.1916   18.5478 C.ar    1  UNL1        0.0396
      3 C         -12.7509    0.4299   18.3475 C.ar    1  UNL1        0.0234
      4 C         -12.7194   -1.0531   18.5705 C.ar    1  UNL1        0.1261
      5 C         -13.9646   -1.7744   18.9937 C.ar    1  UNL1        0.0335
      6 C         -15.2413   -1.0127   19.1940 C.ar    1  UNL1        0.1042
      7 S         -11.4427   -1.8147   18.3701 S.O2    1  UNL1        0.0747
      8 O         -11.8192   -2.7401   19.4890 O.2     1  UNL1       -0.1499
      9 O         -11.0663   -0.8894   17.2513 O.2     1  UNL1       -0.1499
     10 N         -10.1661   -2.5763   18.1698 N.pl3   1  UNL1       -0.1989
     11 H          -9.3104   -2.0940   18.1038 H       1  UNL1        0.1753
     12 C         -10.1933   -4.0727   18.0700 C.ar    1  UNL1        0.1472
     13 C         -10.8359   -4.7340   16.8869 C.ar    1  UNL1        0.0379
     14 C         -10.8630   -6.2304   16.7872 C.ar    1  UNL1        0.0342
     15 C         -10.2475   -7.0656   17.8705 C.ar    1  UNL1        0.1593
     16 F         -10.2747   -8.5620   17.7707 F       1  UNL1       -0.2025
     17 C          -9.6050   -6.4043   19.0536 C.ar    1  UNL1        0.1299
     18 N          -9.5778   -4.9079   19.1534 N.ar    1  UNL1       -0.2256
     19 C         -16.4864   -1.7341   19.6173 C.1     1  UNL1        0.1035
     20 N         -17.7316   -2.4554   20.0405 N.1     1  UNL1       -0.1907
     21 O         -16.5493    1.2319   19.1714 O.3     1  UNL1       -0.4528
     22 C         -17.0386    3.8985   22.7630 C.ar    1  UNL1        0.0792
     23 C         -16.3049    4.3968   21.5533 C.ar    1  UNL1        0.0143
     24 C         -16.1418    3.5079   20.3561 C.ar    1  UNL1        0.0382
     25 C         -16.7124    2.1208   20.3686 C.ar    1  UNL1        0.1462
     26 C         -17.4460    1.6225   21.5783 C.ar    1  UNL1        0.0496
     27 C         -17.6091    2.5113   22.7755 C.ar    1  UNL1        0.0703
     28 CL        -18.3428    2.0130   23.9852 Cl      1  UNL1       -0.0814
     29 N         -17.3648    5.6762   25.1574 N.1     1  UNL1       -0.1908
     30 C         -17.2017    4.7873   23.9602 C.1     1  UNL1        0.1013
@<TRIPOS>BOND
     1    29    30    3
     2    30    22    1
     3    22    23   ar
     4    23    24   ar
     5    24    25   ar
     6    25    21    1
     7    21     1    1
     8     1     2   ar
     9     2     3   ar
    10     3     4   ar
    11     4     7    1
    12     7     8    2
    13     7     9    2
    14     7    10    1
    15    10    12    1
    16    12    13   ar
    17    13    14   ar
    18    14    15   ar
    19    15    16    1
    20    15    17   ar
    21    17    18   ar
    22     4     5   ar
    23     5     6   ar
    24     6    19    1
    25    19    20    3
    26    25    26   ar
    27    26    27   ar
    28    27    28    1
    29    27    22   ar
    30     6     1   ar
    31    18    12   ar
    32    10    11    1
@<TRIPOS>MOLECULE
*****
 30 32 0 0 0
SMALL
GASTEIGER

@<TRIPOS>ATOM
      1 C           3.0255    0.9812   18.1915 C.ar    1  UNL1        0.1549
      2 C           1.7756    0.2468   18.5770 C.ar    1  UNL1        0.0396
      3 C           0.6341    0.9884   19.2070 C.ar    1  UNL1        0.0234
      4 C           0.7423    2.4644   19.4515 C.ar    1  UNL1        0.1261
      5 C           1.9921    3.1988   19.0661 C.ar    1  UNL1        0.0335
      6 C           3.1338    2.4572   18.4361 C.ar    1  UNL1        0.1042
      7 S          -0.3993    3.2060   20.0815 S.O2    1  UNL1        0.0747
      8 O          -0.8855    1.9301   20.7025 O.2     1  UNL1       -0.1499
      9 O           0.0869    4.4819   19.4605 O.2     1  UNL1       -0.1499
     10 N          -1.5408    3.9476   20.7115 N.pl3   1  UNL1       -0.1989
     11 H          -1.3763    4.5497   21.4728 H       1  UNL1        0.1753
     12 C          -2.9330    3.7717   20.1815 C.ar    1  UNL1        0.1472
     13 C          -4.0614    3.4709   21.1228 C.ar    1  UNL1        0.0379
     14 C          -5.4536    3.2950   20.5929 C.ar    1  UNL1        0.0342
     15 C          -5.7174    3.4200   19.1216 C.ar    1  UNL1        0.1593
     16 F          -7.1096    3.2441   18.5916 F       1  UNL1       -0.2025
     17 C          -4.5890    3.7208   18.1802 C.ar    1  UNL1        0.1299
     18 N          -3.1968    3.8967   18.7102 N.ar    1  UNL1       -0.2256
     19 C           4.3836    3.1916   18.0506 C.1     1  UNL1        0.1035
     20 N           5.6334    3.9260   17.6652 N.1     1  UNL1       -0.1907
     21 O           4.1670    0.2396   17.5616 O.3     1  UNL1       -0.4528
     22 C           6.3185   -2.9649   19.8751 C.ar    1  UNL1        0.0792
     23 C           6.7251   -1.5291   20.0270 C.ar    1  UNL1        0.0143
     24 C           6.0079   -0.4609   19.2558 C.ar    1  UNL1        0.0382
     25 C           4.8842   -0.8285   18.3327 C.ar    1  UNL1        0.1462
     26 C           4.4777   -2.2643   18.1808 C.ar    1  UNL1        0.0496
     27 C           5.1948   -3.3325   18.9520 C.ar    1  UNL1        0.0703
     28 CL          4.7882   -4.7684   18.8001 Cl      1  UNL1       -0.0814
     29 N           7.7529   -5.1012   21.4174 N.1     1  UNL1       -0.1908
     30 C           7.0357   -4.0330   20.6462 C.1     1  UNL1        0.1013
@<TRIPOS>BOND
     1    29    30    3
     2    30    22    1
     3    22    23   ar
     4    23    24   ar
     5    24    25   ar
     6    25    21    1
     7    21     1    1
     8     1     2   ar
     9     2     3   ar
    10     3     4   ar
    11     4     7    1
    12     7     8    2
    13     7     9    2
    14     7    10    1
    15    10    12    1
    16    12    13   ar
    17    13    14   ar
    18    14    15   ar
    19    15    16    1
    20    15    17   ar
    21    17    18   ar
    22     4     5   ar
    23     5     6   ar
    24     6    19    1
    25    19    20    3
    26    25    26   ar
    27    26    27   ar
    28    27    28    1
    29    27    22   ar
    30     6     1   ar
    31    18    12   ar
    32    10    11    1
@<TRIPOS>MOLECULE
*****
 30 32 0 0 0
SMALL
GASTEIGER

@<TRIPOS>ATOM
      1 C           3.1913   -1.4503   20.2467 C.ar    1  UNL1        0.1549
      2 C           3.3854   -1.7844   21.6961 C.ar    1  UNL1        0.0396
      3 C           4.6580   -2.4343   22.1520 C.ar    1  UNL1        0.0234
      4 C           5.7366   -2.7502   21.1586 C.ar    1  UNL1        0.1261
      5 C           5.5425   -2.4161   19.7092 C.ar    1  UNL1        0.0335
      6 C           4.2698   -1.7661   19.2532 C.ar    1  UNL1        0.1042
      7 S           7.0093   -3.4002   21.6145 S.O2    1  UNL1        0.0747
      8 O           7.3101   -2.2083   22.4741 O.2     1  UNL1       -0.1499
      9 O           6.7085   -4.5921   20.7550 O.2     1  UNL1       -0.1499
     10 N           8.2819   -4.0501   22.0705 N.pl3   1  UNL1       -0.1989
     11 H           9.1458   -3.7506   21.7055 H       1  UNL1        0.1753
     12 C           8.2383   -5.1565   23.0825 C.ar    1  UNL1        0.1472
     13 C           8.9440   -6.4515   22.8088 C.ar    1  UNL1        0.0379
     14 C           8.9004   -7.5578   23.8208 C.ar    1  UNL1        0.0342
     15 C           8.1511   -7.3691   25.1065 C.ar    1  UNL1        0.1593
     16 F           8.1075   -8.4754   26.1185 F       1  UNL1       -0.2025
     17 C           7.4455   -6.0741   25.3802 C.ar    1  UNL1        0.1299
     18 N           7.4891   -4.9677   24.3681 N.ar    1  UNL1       -0.2256
     19 C           4.0757   -1.4320   17.8039 C.1     1  UNL1        0.1035
     20 N           3.8817   -1.0980   16.3545 N.1     1  UNL1       -0.1907
     21 O           1.9186   -0.8003   19.7908 O.3     1  UNL1       -0.4528
     22 C           1.8106    3.6290   19.0039 C.ar    1  UNL1        0.0792
     23 C           2.9016    3.0441   19.8510 C.ar    1  UNL1        0.0143
     24 C           2.9376    1.5677   20.1133 C.ar    1  UNL1        0.0382
     25 C           1.8826    0.6761   19.5285 C.ar    1  UNL1        0.1462
     26 C           0.7916    1.2610   18.6814 C.ar    1  UNL1        0.0496
     27 C           0.7556    2.7374   18.4191 C.ar    1  UNL1        0.0703
     28 CL         -0.3355    3.3223   17.5720 Cl      1  UNL1       -0.0814
     29 N           1.7386    6.5819   18.4794 N.1     1  UNL1       -0.1908
     30 C           1.7746    5.1055   18.7416 C.1     1  UNL1        0.1013
@<TRIPOS>BOND
     1    29    30    3
     2    30    22    1
     3    22    23   ar
     4    23    24   ar
     5    24    25   ar
     6    25    21    1
     7    21     1    1
     8     1     2   ar
     9     2     3   ar
    10     3     4   ar
    11     4     7    1
    12     7     8    2
    13     7     9    2
    14     7    10    1
    15    10    12    1
    16    12    13   ar
    17    13    14   ar
    18    14    15   ar
    19    15    16    1
    20    15    17   ar
    21    17    18   ar
    22     4     5   ar
    23     5     6   ar
    24     6    19    1
    25    19    20    3
    26    25    26   ar
    27    26    27   ar
    28    27    28    1
    29    27    22   ar
    30     6     1   ar
    31    18    12   ar
    32    10    11    1
