@<TRIPOS>MOLECULE
*****
 43 47 0 0 0
SMALL
GASTEIGER

@<TRIPOS>ATOM
      1 C           6.7740   -3.3957   30.1083 C.ar    1  UNL1        0.0611
      2 C           6.9054   -4.3152   31.2861 C.ar    1  UNL1        0.1037
      3 N           7.0698   -5.7128   30.7669 N.ar    1  UNL1       -0.2269
      4 C           7.0400   -5.6571   29.2682 C.ar    1  UNL1        0.1407
      5 N           7.1558   -6.7253   28.2216 N.ar    1  UNL1       -0.3374
      6 C           7.0887   -6.3615   26.7680 C.ar    1  UNL1        0.0735
      7 C           6.9058   -4.9294   26.3610 C.ar    1  UNL1        0.0186
      8 C           6.7901   -3.8611   27.4076 C.ar    1  UNL1        0.0047
      9 C           6.8572   -4.2250   28.8612 C.ar    1  UNL1        0.0386
     10 H           7.2758   -7.6653   28.4887 H       1  UNL1        0.1674
     11 C           6.8387   -4.5655   24.9073 C.ar    1  UNL1        0.0208
     12 C           5.9987   -3.4051   24.4626 C.ar    1  UNL1        0.0064
     13 C           5.9316   -3.0413   23.0088 C.ar    1  UNL1        0.0577
     14 C           6.7045   -3.8379   21.9999 C.ar    1  UNL1        0.2249
     15 N           7.5446   -4.9983   22.4447 N.ar    1  UNL1       -0.2101
     16 C           7.6117   -5.3621   23.8983 C.ar    1  UNL1        0.1021
     17 O           6.6374   -3.4741   20.5463 O.3     1  UNL1       -0.4587
     18 C           5.5276   -4.0080   19.6900 C.3     1  UNL1        0.2244
     19 C           4.1281   -3.5005   19.8736 C.3     1  UNL1        0.1202
     20 N           3.6950   -2.2336   19.1973 N.3     1  UNL1       -0.2653
     21 C           4.3146   -1.8306   17.8920 C.3     1  UNL1        0.1047
     22 C           3.8815   -0.5637   17.2157 C.3     1  UNL1        0.1595
     23 O           2.8287    0.3002   17.8446 O.3     1  UNL1       -0.3508
     24 C           2.2091   -0.1029   19.1498 C.3     1  UNL1        0.1595
     25 C           2.6423   -1.3698   19.8262 C.3     1  UNL1        0.1047
     26 C           6.5914   -1.9080   30.1673 C.2     1  UNL1        0.2015
     27 O           7.7753   -1.0003   30.0113 O.2     1  UNL1       -0.2864
     28 C           2.9177   -0.5950   29.4388 C.ar    1  UNL1        0.0920
     29 C           2.4918   -0.1681   30.8122 C.ar    1  UNL1        0.0204
     30 C           3.4323   -0.3210   31.9706 C.ar    1  UNL1        0.0312
     31 C           4.7989   -0.9010   31.7557 C.ar    1  UNL1        0.1454
     32 F           5.7394   -1.0540   32.9141 F       1  UNL1       -0.2040
     33 C           5.2248   -1.3280   30.3823 C.ar    1  UNL1        0.0951
     34 C           4.2843   -1.1750   29.2239 C.ar    1  UNL1        0.1598
     35 F           4.7103   -1.6020   27.8505 F       1  UNL1       -0.2026
     36 N           1.9772   -0.4421   28.2804 N.pl3   1  UNL1       -0.2166
     37 H           1.9650   -1.1170   27.5637 H       1  UNL1        0.1734
     38 S           1.0552    0.7393   28.2139 S.O2    1  UNL1        0.0540
     39 O           2.2125    1.6221   27.8518 O.2     1  UNL1       -0.1545
     40 O          -0.1021   -0.1436   28.5759 O.2     1  UNL1       -0.1545
     41 C           0.1332    1.9205   28.1474 C.3     1  UNL1        0.1724
     42 C          -0.5744    1.8595   25.6482 C.3     1  UNL1        0.0019
     43 C          -0.9378    1.9779   27.0986 C.3     1  UNL1        0.0273
@<TRIPOS>BOND
     1    42    43    1
     2    43    41    1
     3    41    38    1
     4    38    39    2
     5    38    40    2
     6    38    36    1
     7    36    28    1
     8    28    29   ar
     9    29    30   ar
    10    30    31   ar
    11    31    32    1
    12    31    33   ar
    13    33    26    1
    14    26    27    2
    15    26     1    1
    16     1     2   ar
    17     2     3   ar
    18     3     4   ar
    19     4     5   ar
    20     5     6   ar
    21     6     7   ar
    22     7    11    1
    23    11    12   ar
    24    12    13   ar
    25    13    14   ar
    26    14    17    1
    27    17    18    1
    28    18    19    1
    29    19    20    1
    30    20    21    1
    31    21    22    1
    32    22    23    1
    33    23    24    1
    34    24    25    1
    35    14    15   ar
    36    15    16   ar
    37     7     8   ar
    38     8     9   ar
    39    33    34   ar
    40    34    35    1
    41    34    28   ar
    42     9     1   ar
    43     9     4    1
    44    16    11   ar
    45    25    20    1
    46    36    37    1
    47     5    10    1
@<TRIPOS>MOLECULE
*****
 43 47 0 0 0
SMALL
GASTEIGER

@<TRIPOS>ATOM
      1 C           4.5181   -1.8257   18.6854 C.ar    1  UNL1        0.0611
      2 C           5.3163   -3.0217   18.2584 C.ar    1  UNL1        0.1037
      3 N           5.6271   -3.8323   19.4817 N.ar    1  UNL1       -0.2269
      4 C           5.0209   -3.1372   20.6647 C.ar    1  UNL1        0.1407
      5 N           5.0046   -3.4733   22.1264 N.ar    1  UNL1       -0.3374
      6 C           4.3028   -2.5693   23.0960 C.ar    1  UNL1        0.0735
      7 C           3.6173   -1.3291   22.6039 C.ar    1  UNL1        0.0186
      8 C           3.6337   -0.9930   21.1421 C.ar    1  UNL1        0.0047
      9 C           4.3355   -1.8970   20.1726 C.ar    1  UNL1        0.0386
     10 H           5.4544   -4.2872   22.4495 H       1  UNL1        0.1674
     11 C           2.9155   -0.4251   23.5735 C.ar    1  UNL1        0.0208
     12 C           1.8417    0.5042   23.0902 C.ar    1  UNL1        0.0064
     13 C           1.1399    1.4082   24.0599 C.ar    1  UNL1        0.0577
     14 C           1.5119    1.3830   25.5128 C.ar    1  UNL1        0.2249
     15 N           2.5857    0.4537   25.9961 N.ar    1  UNL1       -0.2101
     16 C           3.2875   -0.4503   25.0265 C.ar    1  UNL1        0.1021
     17 O           0.8101    2.2870   26.4825 O.3     1  UNL1       -0.4587
     18 C          -0.5643    1.9390   26.9723 C.3     1  UNL1        0.2244
     19 C          -0.7350    0.9517   28.0887 C.3     1  UNL1        0.1202
     20 N           0.3167    0.8320   29.1514 N.3     1  UNL1       -0.2653
     21 C           1.2563   -0.3373   29.1485 C.3     1  UNL1        0.1047
     22 C           2.3080   -0.4571   30.2112 C.3     1  UNL1        0.1595
     23 O           2.4203    0.5926   31.2770 O.3     1  UNL1       -0.3508
     24 C           1.4808    1.7619   31.2799 C.3     1  UNL1        0.1595
     25 C           0.4290    1.8816   30.2171 C.3     1  UNL1        0.1047
     26 C           3.9943   -0.7476   17.7836 C.2     1  UNL1        0.2015
     27 O           3.8670   -0.9983   16.3102 O.2     1  UNL1       -0.2864
     28 C           1.7542    2.3007   18.9839 C.ar    1  UNL1        0.0920
     29 C           2.8050    3.2394   19.4983 C.ar    1  UNL1        0.0204
     30 C           4.2522    2.8491   19.4411 C.ar    1  UNL1        0.0312
     31 C           4.6487    1.5202   18.8695 C.ar    1  UNL1        0.1454
     32 F           6.0959    1.1300   18.8124 F       1  UNL1       -0.2040
     33 C           3.5979    0.5815   18.3552 C.ar    1  UNL1        0.0951
     34 C           2.1507    0.9717   18.4123 C.ar    1  UNL1        0.1598
     35 F           1.0999    0.0329   17.8979 F       1  UNL1       -0.2026
     36 N           0.3070    2.6909   19.0410 N.pl3   1  UNL1       -0.2166
     37 H          -0.2074    2.7974   18.2084 H       1  UNL1        0.1734
     38 S          -0.3565    2.9189   20.3669 S.O2    1  UNL1        0.0540
     39 O          -0.2517    4.4015   20.1643 O.2     1  UNL1       -0.1545
     40 O          -0.4612    1.4364   20.5694 O.2     1  UNL1       -0.1545
     41 C          -1.0199    3.1468   21.6927 C.3     1  UNL1        0.1724
     42 C          -3.4479    3.2335   20.7719 C.3     1  UNL1        0.0019
     43 C          -2.4116    3.7039   21.7491 C.3     1  UNL1        0.0273
@<TRIPOS>BOND
     1    42    43    1
     2    43    41    1
     3    41    38    1
     4    38    39    2
     5    38    40    2
     6    38    36    1
     7    36    28    1
     8    28    29   ar
     9    29    30   ar
    10    30    31   ar
    11    31    32    1
    12    31    33   ar
    13    33    26    1
    14    26    27    2
    15    26     1    1
    16     1     2   ar
    17     2     3   ar
    18     3     4   ar
    19     4     5   ar
    20     5     6   ar
    21     6     7   ar
    22     7    11    1
    23    11    12   ar
    24    12    13   ar
    25    13    14   ar
    26    14    17    1
    27    17    18    1
    28    18    19    1
    29    19    20    1
    30    20    21    1
    31    21    22    1
    32    22    23    1
    33    23    24    1
    34    24    25    1
    35    14    15   ar
    36    15    16   ar
    37     7     8   ar
    38     8     9   ar
    39    33    34   ar
    40    34    35    1
    41    34    28   ar
    42     9     1   ar
    43     9     4    1
    44    16    11   ar
    45    25    20    1
    46    36    37    1
    47     5    10    1
@<TRIPOS>MOLECULE
*****
 43 47 0 0 0
SMALL
GASTEIGER

@<TRIPOS>ATOM
      1 C           5.2436   -2.2217   19.1442 C.ar    1  UNL1        0.0611
      2 C           5.7118   -1.3858   17.9901 C.ar    1  UNL1        0.1037
      3 N           7.2059   -1.4948   17.9149 N.ar    1  UNL1       -0.2269
      4 C           7.6611   -2.3982   19.0224 C.ar    1  UNL1        0.1407
      5 N           9.0233   -2.8697   19.4372 N.ar    1  UNL1       -0.3374
      6 C           9.1727   -3.7905   20.6119 C.ar    1  UNL1        0.0735
      7 C           7.9599   -4.2398   21.3717 C.ar    1  UNL1        0.0186
      8 C           6.5977   -3.7683   20.9568 C.ar    1  UNL1        0.0047
      9 C           6.4484   -2.8475   19.7822 C.ar    1  UNL1        0.0386
     10 H           9.8193   -2.5748   18.9386 H       1  UNL1        0.1674
     11 C           8.1093   -5.1606   22.5463 C.ar    1  UNL1        0.0208
     12 C           8.8991   -6.4285   22.4097 C.ar    1  UNL1        0.0064
     13 C           9.0485   -7.3494   23.5843 C.ar    1  UNL1        0.0577
     14 C           8.4082   -7.0023   24.8956 C.ar    1  UNL1        0.2249
     15 N           7.6184   -5.7343   25.0323 N.ar    1  UNL1       -0.2101
     16 C           7.4690   -4.8135   23.8576 C.ar    1  UNL1        0.1021
     17 O           8.5576   -7.9230   26.0703 O.3     1  UNL1       -0.4587
     18 C           9.3257   -7.4778   27.2793 C.3     1  UNL1        0.2244
     19 C           8.7170   -7.6071   28.6442 C.3     1  UNL1        0.1202
     20 N           7.9970   -6.4429   29.2576 N.3     1  UNL1       -0.2653
     21 C           7.1828   -5.5253   28.3945 C.3     1  UNL1        0.1047
     22 C           6.4628   -4.3611   29.0079 C.3     1  UNL1        0.1595
     23 O           6.5571   -4.1146   30.4846 O.3     1  UNL1       -0.3508
     24 C           7.3713   -5.0322   31.3477 C.3     1  UNL1        0.1595
     25 C           8.0913   -6.1964   30.7342 C.3     1  UNL1        0.1047
     26 C           3.8205   -2.4006   19.5833 C.2     1  UNL1        0.2015
     27 O           3.0646   -3.6358   19.1924 O.2     1  UNL1       -0.2864
     28 C           2.5729   -0.3440   22.7399 C.ar    1  UNL1        0.0920
     29 C           1.8189    0.7683   22.0735 C.ar    1  UNL1        0.0204
     30 C           1.7320    0.8244   20.5771 C.ar    1  UNL1        0.0312
     31 C           2.3992   -0.2319   19.7470 C.ar    1  UNL1        0.1454
     32 F           2.3124   -0.1758   18.2506 F       1  UNL1       -0.2040
     33 C           3.1532   -1.3443   20.4134 C.ar    1  UNL1        0.0951
     34 C           3.2401   -1.4003   21.9098 C.ar    1  UNL1        0.1598
     35 F           3.9941   -2.5127   22.5761 F       1  UNL1       -0.2026
     36 N           2.6597   -0.4001   24.2364 N.pl3   1  UNL1       -0.2166
     37 H           1.8428   -0.5187   24.7727 H       1  UNL1        0.1734
     38 S           3.9913   -0.2754   24.9155 S.O2    1  UNL1        0.0540
     39 O           3.8077   -1.6337   25.5249 O.2     1  UNL1       -0.1545
     40 O           4.1750    1.0828   24.3061 O.2     1  UNL1       -0.1545
     41 C           5.3229   -0.1507   25.5946 C.3     1  UNL1        0.1724
     42 C           6.8146   -1.1167   23.6993 C.3     1  UNL1        0.0019
     43 C           6.4720   -1.0092   25.1557 C.3     1  UNL1        0.0273
@<TRIPOS>BOND
     1    42    43    1
     2    43    41    1
     3    41    38    1
     4    38    39    2
     5    38    40    2
     6    38    36    1
     7    36    28    1
     8    28    29   ar
     9    29    30   ar
    10    30    31   ar
    11    31    32    1
    12    31    33   ar
    13    33    26    1
    14    26    27    2
    15    26     1    1
    16     1     2   ar
    17     2     3   ar
    18     3     4   ar
    19     4     5   ar
    20     5     6   ar
    21     6     7   ar
    22     7    11    1
    23    11    12   ar
    24    12    13   ar
    25    13    14   ar
    26    14    17    1
    27    17    18    1
    28    18    19    1
    29    19    20    1
    30    20    21    1
    31    21    22    1
    32    22    23    1
    33    23    24    1
    34    24    25    1
    35    14    15   ar
    36    15    16   ar
    37     7     8   ar
    38     8     9   ar
    39    33    34   ar
    40    34    35    1
    41    34    28   ar
    42     9     1   ar
    43     9     4    1
    44    16    11   ar
    45    25    20    1
    46    36    37    1
    47     5    10    1
@<TRIPOS>MOLECULE
*****
 43 47 0 0 0
SMALL
GASTEIGER

@<TRIPOS>ATOM
      1 C           4.9676   -3.2790   22.5446 C.ar    1  UNL1        0.0611
      2 C           6.0346   -3.8871   23.4059 C.ar    1  UNL1        0.1037
      3 N           6.0424   -3.1590   24.7173 N.ar    1  UNL1       -0.2269
      4 C           4.9804   -2.1009   24.6665 C.ar    1  UNL1        0.1407
      5 N           4.5325   -1.0795   25.6694 N.ar    1  UNL1       -0.3374
      6 C           3.4202   -0.1322   25.3296 C.ar    1  UNL1        0.0735
      7 C           2.7559   -0.2064   23.9867 C.ar    1  UNL1        0.0186
      8 C           3.2039   -1.2278   22.9838 C.ar    1  UNL1        0.0047
      9 C           4.3162   -2.1750   23.3236 C.ar    1  UNL1        0.0386
     10 H           4.9684   -1.0308   26.5508 H       1  UNL1        0.1674
     11 C           1.6436    0.7409   23.6469 C.ar    1  UNL1        0.0208
     12 C           1.2734    0.9794   22.2130 C.ar    1  UNL1        0.0064
     13 C           0.1611    1.9267   21.8732 C.ar    1  UNL1        0.0577
     14 C          -0.5810    2.6355   22.9673 C.ar    1  UNL1        0.2249
     15 N          -0.2107    2.3970   24.4012 N.ar    1  UNL1       -0.2101
     16 C           0.9015    1.4497   24.7410 C.ar    1  UNL1        0.1021
     17 O          -1.6933    3.5828   22.6275 O.3     1  UNL1       -0.4587
     18 C          -2.1723    3.6996   21.2109 C.3     1  UNL1        0.2244
     19 C          -3.4645    3.0576   20.8007 C.3     1  UNL1        0.1202
     20 N          -4.7703    3.6797   21.1980 N.3     1  UNL1       -0.2653
     21 C          -5.2832    3.5175   22.5982 C.3     1  UNL1        0.1047
     22 C          -6.5890    4.1396   22.9955 C.3     1  UNL1        0.1595
     23 O          -7.3820    4.9239   21.9924 O.3     1  UNL1       -0.3508
     24 C          -6.8692    5.0861   20.5922 C.3     1  UNL1        0.1595
     25 C          -5.5633    4.4640   20.1950 C.3     1  UNL1        0.1047
     26 C           4.6142   -3.7007   21.1491 C.2     1  UNL1        0.2015
     27 O           3.9077   -5.0030   20.9154 O.2     1  UNL1       -0.2864
     28 C           4.2770   -1.0537   18.2114 C.ar    1  UNL1        0.0920
     29 C           5.6735   -1.0587   17.6637 C.ar    1  UNL1        0.0204
     30 C           6.7168   -1.9443   18.2778 C.ar    1  UNL1        0.0312
     31 C           6.3638   -2.8250   19.4396 C.ar    1  UNL1        0.1454
     32 F           7.4071   -3.7106   20.0537 F       1  UNL1       -0.2040
     33 C           4.9673   -2.8200   19.9873 C.ar    1  UNL1        0.0951
     34 C           3.9240   -1.9344   19.3732 C.ar    1  UNL1        0.1598
     35 F           2.5276   -1.9295   19.9209 F       1  UNL1       -0.2026
     36 N           3.2337   -0.1681   17.5973 N.pl3   1  UNL1       -0.2166
     37 H           2.8109   -0.4231   16.7456 H       1  UNL1        0.1734
     38 S           2.8347    1.1060   18.2809 S.O2    1  UNL1        0.0540
     39 O           4.2657    1.5555   18.2786 O.2     1  UNL1       -0.1545
     40 O           1.4036    0.6566   18.2832 O.2     1  UNL1       -0.1545
     41 C           2.4355    2.3801   18.9645 C.3     1  UNL1        0.1724
     42 C           0.7463    4.3480   19.1204 C.3     1  UNL1        0.0019
     43 C           1.4617    3.3116   18.3056 C.3     1  UNL1        0.0273
@<TRIPOS>BOND
     1    42    43    1
     2    43    41    1
     3    41    38    1
     4    38    39    2
     5    38    40    2
     6    38    36    1
     7    36    28    1
     8    28    29   ar
     9    29    30   ar
    10    30    31   ar
    11    31    32    1
    12    31    33   ar
    13    33    26    1
    14    26    27    2
    15    26     1    1
    16     1     2   ar
    17     2     3   ar
    18     3     4   ar
    19     4     5   ar
    20     5     6   ar
    21     6     7   ar
    22     7    11    1
    23    11    12   ar
    24    12    13   ar
    25    13    14   ar
    26    14    17    1
    27    17    18    1
    28    18    19    1
    29    19    20    1
    30    20    21    1
    31    21    22    1
    32    22    23    1
    33    23    24    1
    34    24    25    1
    35    14    15   ar
    36    15    16   ar
    37     7     8   ar
    38     8     9   ar
    39    33    34   ar
    40    34    35    1
    41    34    28   ar
    42     9     1   ar
    43     9     4    1
    44    16    11   ar
    45    25    20    1
    46    36    37    1
    47     5    10    1
@<TRIPOS>MOLECULE
*****
 43 47 0 0 0
SMALL
GASTEIGER

@<TRIPOS>ATOM
      1 C           5.0267   -3.3960   22.5302 C.ar    1  UNL1        0.0611
      2 C           6.0701   -4.1019   23.3444 C.ar    1  UNL1        0.1037
      3 N           6.1715   -3.4076   24.6702 N.ar    1  UNL1       -0.2269
      4 C           5.1908   -2.2726   24.6753 C.ar    1  UNL1        0.1407
      5 N           4.8507   -1.2448   25.7134 N.ar    1  UNL1       -0.3374
      6 C           3.8030   -0.2097   25.4290 C.ar    1  UNL1        0.0735
      7 C           3.0954   -0.2026   24.1064 C.ar    1  UNL1        0.0186
      8 C           3.4355   -1.2304   23.0682 C.ar    1  UNL1        0.0047
      9 C           4.4832   -2.2655   23.3527 C.ar    1  UNL1        0.0386
     10 H           5.3151   -1.2495   26.5815 H       1  UNL1        0.1674
     11 C           2.0476    0.8325   23.8219 C.ar    1  UNL1        0.0208
     12 C           0.8926    1.0087   24.7625 C.ar    1  UNL1        0.0064
     13 C          -0.1552    2.0438   24.4780 C.ar    1  UNL1        0.0577
     14 C          -0.0478    2.9027   23.2530 C.ar    1  UNL1        0.2249
     15 N           1.1074    2.7265   22.3124 N.ar    1  UNL1       -0.2101
     16 C           2.1550    1.6914   22.5969 C.ar    1  UNL1        0.1021
     17 O          -1.0955    3.9378   22.9685 O.3     1  UNL1       -0.4587
     18 C          -2.3189    3.5702   22.1825 C.3     1  UNL1        0.2244
     19 C          -2.2045    3.2555   20.7203 C.3     1  UNL1        0.1202
     20 N          -3.3668    3.5063   19.8059 N.3     1  UNL1       -0.2653
     21 C          -4.7671    3.2777   20.2928 C.3     1  UNL1        0.1047
     22 C          -5.9294    3.5285   19.3785 C.3     1  UNL1        0.1595
     23 O          -5.6915    4.0079   17.9771 O.3     1  UNL1       -0.3508
     24 C          -4.2912    4.2364   17.4902 C.3     1  UNL1        0.1595
     25 C          -3.1289    3.9856   18.4047 C.3     1  UNL1        0.1047
     26 C           4.6013   -3.7572   21.1378 C.2     1  UNL1        0.2015
     27 O           3.8105   -5.0086   20.8960 O.2     1  UNL1       -0.2864
     28 C           4.2823   -1.1292   18.1811 C.ar    1  UNL1        0.0920
     29 C           5.6976   -1.0864   17.6860 C.ar    1  UNL1        0.0204
     30 C           6.7475   -1.9339   18.3415 C.ar    1  UNL1        0.0312
     31 C           6.3821   -2.8241   19.4921 C.ar    1  UNL1        0.1454
     32 F           7.4319   -3.6716   20.1476 F       1  UNL1       -0.2040
     33 C           4.9668   -2.8669   19.9872 C.ar    1  UNL1        0.0951
     34 C           3.9170   -2.0195   19.3317 C.ar    1  UNL1        0.1598
     35 F           2.5017   -2.0623   19.8269 F       1  UNL1       -0.2026
     36 N           3.2325   -0.2817   17.5256 N.pl3   1  UNL1       -0.2166
     37 H           2.8852   -0.5275   16.6378 H       1  UNL1        0.1734
     38 S           2.7120    0.9401   18.2228 S.O2    1  UNL1        0.0540
     39 O           1.3425    0.3299   18.2698 O.2     1  UNL1       -0.1545
     40 O           4.0814    1.5503   18.1759 O.2     1  UNL1       -0.1545
     41 C           2.1915    2.1620   18.9200 C.3     1  UNL1        0.1724
     42 C           0.6541    4.0813   18.0816 C.3     1  UNL1        0.0019
     43 C           0.8222    2.6831   18.5981 C.3     1  UNL1        0.0273
@<TRIPOS>BOND
     1    42    43    1
     2    43    41    1
     3    41    38    1
     4    38    39    2
     5    38    40    2
     6    38    36    1
     7    36    28    1
     8    28    29   ar
     9    29    30   ar
    10    30    31   ar
    11    31    32    1
    12    31    33   ar
    13    33    26    1
    14    26    27    2
    15    26     1    1
    16     1     2   ar
    17     2     3   ar
    18     3     4   ar
    19     4     5   ar
    20     5     6   ar
    21     6     7   ar
    22     7    11    1
    23    11    12   ar
    24    12    13   ar
    25    13    14   ar
    26    14    17    1
    27    17    18    1
    28    18    19    1
    29    19    20    1
    30    20    21    1
    31    21    22    1
    32    22    23    1
    33    23    24    1
    34    24    25    1
    35    14    15   ar
    36    15    16   ar
    37     7     8   ar
    38     8     9   ar
    39    33    34   ar
    40    34    35    1
    41    34    28   ar
    42     9     1   ar
    43     9     4    1
    44    16    11   ar
    45    25    20    1
    46    36    37    1
    47     5    10    1
@<TRIPOS>MOLECULE
*****
 43 47 0 0 0
SMALL
GASTEIGER

@<TRIPOS>ATOM
      1 C           5.0853   -3.6176   20.4383 C.ar    1  UNL1        0.0611
      2 C           6.2708   -4.4788   20.1176 C.ar    1  UNL1        0.1037
      3 N           7.1353   -4.5515   21.3413 N.ar    1  UNL1       -0.2269
      4 C           6.4842   -3.7351   22.4181 C.ar    1  UNL1        0.1407
      5 N           6.8813   -3.4428   23.8347 N.ar    1  UNL1       -0.3374
      6 C           6.0114   -2.5733   24.6932 C.ar    1  UNL1        0.0735
      7 C           4.7444   -1.9960   24.1351 C.ar    1  UNL1        0.0186
      8 C           4.3473   -2.2884   22.7185 C.ar    1  UNL1        0.0047
      9 C           5.2172   -3.1579   21.8600 C.ar    1  UNL1        0.0386
     10 H           7.7129   -3.8217   24.2010 H       1  UNL1        0.1674
     11 C           3.8744   -1.1265   24.9937 C.ar    1  UNL1        0.0208
     12 C           2.9396   -0.1405   24.3582 C.ar    1  UNL1        0.0064
     13 C           2.0696    0.7291   25.2168 C.ar    1  UNL1        0.0577
     14 C           2.1346    0.6127   26.7109 C.ar    1  UNL1        0.2249
     15 N           3.0696   -0.3734   27.3464 N.ar    1  UNL1       -0.2101
     16 C           3.9394   -1.2429   26.4878 C.ar    1  UNL1        0.1021
     17 O           1.2648    1.4822   27.5695 O.3     1  UNL1       -0.4587
     18 C           0.4933    0.8811   28.7068 C.3     1  UNL1        0.2244
     19 C           0.6226    1.4547   30.0868 C.3     1  UNL1        0.1202
     20 N           1.6691    0.9275   31.0231 N.3     1  UNL1       -0.2653
     21 C           1.9718    1.6581   32.2977 C.3     1  UNL1        0.1047
     22 C           3.0184    1.1309   33.2340 C.3     1  UNL1        0.1595
     23 O           3.7623   -0.1270   32.8958 O.3     1  UNL1       -0.3508
     24 C           3.4596   -0.8576   31.6212 C.3     1  UNL1        0.1595
     25 C           2.4130   -0.3303   30.6849 C.3     1  UNL1        0.1047
     26 C           3.9646   -3.2759   19.5016 C.2     1  UNL1        0.2015
     27 O           2.9759   -4.3295   19.0990 O.2     1  UNL1       -0.2864
     28 C           2.5034    0.3450   18.7909 C.ar    1  UNL1        0.0920
     29 C           3.5688    0.9105   17.8992 C.ar    1  UNL1        0.0204
     30 C           4.7660    0.0807   17.5416 C.ar    1  UNL1        0.0312
     31 C           4.8980   -1.3148   18.0757 C.ar    1  UNL1        0.1454
     32 F           6.0953   -2.1446   17.7181 F       1  UNL1       -0.2040
     33 C           3.8327   -1.8803   18.9674 C.ar    1  UNL1        0.0951
     34 C           2.6354   -1.0505   19.3250 C.ar    1  UNL1        0.1598
     35 F           1.5701   -1.6161   20.2168 F       1  UNL1       -0.2026
     36 N           1.3062    1.1748   19.1485 N.pl3   1  UNL1       -0.2166
     37 H           0.6850    1.4717   18.4448 H       1  UNL1        0.1734
     38 S           1.0553    1.5524   20.5784 S.O2    1  UNL1        0.0540
     39 O           2.3700    2.2735   20.6186 O.2     1  UNL1       -0.1545
     40 O          -0.2594    0.8313   20.5382 O.2     1  UNL1       -0.1545
     41 C           0.8044    1.9299   22.0082 C.3     1  UNL1        0.1724
     42 C          -0.7567    3.0599   23.7507 C.3     1  UNL1        0.0019
     43 C          -0.2534    2.9394   22.3428 C.3     1  UNL1        0.0273
@<TRIPOS>BOND
     1    42    43    1
     2    43    41    1
     3    41    38    1
     4    38    39    2
     5    38    40    2
     6    38    36    1
     7    36    28    1
     8    28    29   ar
     9    29    30   ar
    10    30    31   ar
    11    31    32    1
    12    31    33   ar
    13    33    26    1
    14    26    27    2
    15    26     1    1
    16     1     2   ar
    17     2     3   ar
    18     3     4   ar
    19     4     5   ar
    20     5     6   ar
    21     6     7   ar
    22     7    11    1
    23    11    12   ar
    24    12    13   ar
    25    13    14   ar
    26    14    17    1
    27    17    18    1
    28    18    19    1
    29    19    20    1
    30    20    21    1
    31    21    22    1
    32    22    23    1
    33    23    24    1
    34    24    25    1
    35    14    15   ar
    36    15    16   ar
    37     7     8   ar
    38     8     9   ar
    39    33    34   ar
    40    34    35    1
    41    34    28   ar
    42     9     1   ar
    43     9     4    1
    44    16    11   ar
    45    25    20    1
    46    36    37    1
    47     5    10    1
@<TRIPOS>MOLECULE
*****
 43 47 0 0 0
SMALL
GASTEIGER

@<TRIPOS>ATOM
      1 C           4.7150   -2.8786   19.5566 C.ar    1  UNL1        0.0611
      2 C           5.3786   -2.9549   18.2135 C.ar    1  UNL1        0.1037
      3 N           5.0452   -1.7014   17.4600 N.ar    1  UNL1       -0.2269
      4 C           4.1756   -0.8506   18.3374 C.ar    1  UNL1        0.1407
      5 N           3.5431    0.4927   18.1238 N.ar    1  UNL1       -0.3374
      6 C           2.7067    1.1084   19.2060 C.ar    1  UNL1        0.0735
      7 C           2.5026    0.3808   20.5018 C.ar    1  UNL1        0.0186
      8 C           3.1350   -0.9624   20.7154 C.ar    1  UNL1        0.0047
      9 C           3.9715   -1.5781   19.6332 C.ar    1  UNL1        0.0386
     10 H           3.6771    0.9702   17.2734 H       1  UNL1        0.1674
     11 C           1.6661    0.9966   21.5840 C.ar    1  UNL1        0.0208
     12 C           1.9161    0.6404   23.0195 C.ar    1  UNL1        0.0064
     13 C           1.0796    1.2562   24.1017 C.ar    1  UNL1        0.0577
     14 C          -0.0069    2.2281   23.7484 C.ar    1  UNL1        0.2249
     15 N          -0.2569    2.5843   22.3128 N.ar    1  UNL1       -0.2101
     16 C           0.5796    1.9686   21.2307 C.ar    1  UNL1        0.1021
     17 O          -0.8434    2.8439   24.8305 O.3     1  UNL1       -0.4587
     18 C          -0.1883    3.6171   25.9364 C.3     1  UNL1        0.2244
     19 C          -0.6777    3.4695   27.3467 C.3     1  UNL1        0.1202
     20 N          -0.2549    2.2874   28.1675 N.3     1  UNL1       -0.2653
     21 C           0.7292    2.4640   29.2857 C.3     1  UNL1        0.1047
     22 C           1.1520    1.2819   30.1064 C.3     1  UNL1        0.1595
     23 O           0.5908   -0.0771   29.8090 O.3     1  UNL1       -0.3508
     24 C          -0.3933   -0.2537   28.6908 C.3     1  UNL1        0.1595
     25 C          -0.8161    0.9285   27.8700 C.3     1  UNL1        0.1047
     26 C           4.7830   -3.9201   20.6340 C.2     1  UNL1        0.2015
     27 O           3.9457   -5.1604   20.5321 O.2     1  UNL1       -0.2864
     28 C           6.0481   -2.9559   24.2699 C.ar    1  UNL1        0.0920
     29 C           7.4991   -3.3234   24.1719 C.ar    1  UNL1        0.0204
     30 C           8.0447   -3.8898   22.8946 C.ar    1  UNL1        0.0312
     31 C           7.1394   -4.0887   21.7153 C.ar    1  UNL1        0.1454
     32 F           7.6850   -4.6552   20.4380 F       1  UNL1       -0.2040
     33 C           5.6884   -3.7212   21.8133 C.ar    1  UNL1        0.0951
     34 C           5.1428   -3.1548   23.0906 C.ar    1  UNL1        0.1598
     35 F           3.6918   -2.7873   23.1885 F       1  UNL1       -0.2026
     36 N           5.5025   -2.3894   25.5472 N.pl3   1  UNL1       -0.2166
     37 H           5.4130   -2.9638   26.3418 H       1  UNL1        0.1734
     38 S           5.0932   -0.9479   25.6139 S.O2    1  UNL1        0.0540
     39 O           6.4833   -0.5355   25.2299 O.2     1  UNL1       -0.1545
     40 O           3.7031   -1.3603   25.9978 O.2     1  UNL1       -0.1545
     41 C           4.6839    0.4936   25.6805 C.3     1  UNL1        0.1724
     42 C           3.3788    2.3899   26.8852 C.3     1  UNL1        0.0019
     43 C           3.6276    0.9291   26.6525 C.3     1  UNL1        0.0273
@<TRIPOS>BOND
     1    42    43    1
     2    43    41    1
     3    41    38    1
     4    38    39    2
     5    38    40    2
     6    38    36    1
     7    36    28    1
     8    28    29   ar
     9    29    30   ar
    10    30    31   ar
    11    31    32    1
    12    31    33   ar
    13    33    26    1
    14    26    27    2
    15    26     1    1
    16     1     2   ar
    17     2     3   ar
    18     3     4   ar
    19     4     5   ar
    20     5     6   ar
    21     6     7   ar
    22     7    11    1
    23    11    12   ar
    24    12    13   ar
    25    13    14   ar
    26    14    17    1
    27    17    18    1
    28    18    19    1
    29    19    20    1
    30    20    21    1
    31    21    22    1
    32    22    23    1
    33    23    24    1
    34    24    25    1
    35    14    15   ar
    36    15    16   ar
    37     7     8   ar
    38     8     9   ar
    39    33    34   ar
    40    34    35    1
    41    34    28   ar
    42     9     1   ar
    43     9     4    1
    44    16    11   ar
    45    25    20    1
    46    36    37    1
    47     5    10    1
@<TRIPOS>MOLECULE
*****
 43 47 0 0 0
SMALL
GASTEIGER

@<TRIPOS>ATOM
      1 C           4.4486   -2.6454   21.7205 C.ar    1  UNL1        0.0611
      2 C           5.5648   -3.5625   22.1243 C.ar    1  UNL1        0.1037
      3 N           5.8081   -3.3778   23.5929 N.ar    1  UNL1       -0.2269
      4 C           4.8424   -2.3465   24.0967 C.ar    1  UNL1        0.1407
      5 N           4.6195   -1.7612   25.4596 N.ar    1  UNL1       -0.3374
      6 C           3.5564   -0.7232   25.6654 C.ar    1  UNL1        0.0735
      7 C           2.7162   -0.2705   24.5082 C.ar    1  UNL1        0.0186
      8 C           2.9390   -0.8559   23.1453 C.ar    1  UNL1        0.0047
      9 C           4.0021   -1.8938   22.9395 C.ar    1  UNL1        0.0386
     10 H           5.1710   -2.0582   26.2191 H       1  UNL1        0.1674
     11 C           1.6531    0.7675   24.7140 C.ar    1  UNL1        0.0208
     12 C           1.2962    1.2106   26.1019 C.ar    1  UNL1        0.0064
     13 C           0.2330    2.2487   26.3077 C.ar    1  UNL1        0.0577
     14 C          -0.4732    2.8436   25.1256 C.ar    1  UNL1        0.2249
     15 N          -0.1162    2.4004   23.7377 N.ar    1  UNL1       -0.2101
     16 C           0.9469    1.3624   23.5319 C.ar    1  UNL1        0.1021
     17 O          -1.5362    3.8816   25.3314 O.3     1  UNL1       -0.4587
     18 C          -2.7341    3.9173   24.4293 C.3     1  UNL1        0.2244
     19 C          -3.6613    5.0960   24.4601 C.3     1  UNL1        0.1202
     20 N          -5.0555    4.9678   23.9219 N.3     1  UNL1       -0.2653
     21 C          -6.2318    5.1919   24.8252 C.3     1  UNL1        0.1047
     22 C          -7.6260    5.0637   24.2870 C.3     1  UNL1        0.1595
     23 O          -7.8439    4.7114   22.8453 O.3     1  UNL1       -0.3508
     24 C          -6.6676    4.4873   21.9419 C.3     1  UNL1        0.1595
     25 C          -5.2734    4.6155   22.4802 C.3     1  UNL1        0.1047
     26 C           3.8789   -2.5045   20.3401 C.2     1  UNL1        0.2015
     27 O           3.4810   -3.7252   19.5647 O.2     1  UNL1       -0.2864
     28 C           2.1597    0.7443   18.8433 C.ar    1  UNL1        0.0920
     29 C           3.3634    1.5808   18.5249 C.ar    1  UNL1        0.0204
     30 C           4.7388    1.0556   18.8116 C.ar    1  UNL1        0.0312
     31 C           4.9107   -0.3061   19.4167 C.ar    1  UNL1        0.1454
     32 F           6.2862   -0.8313   19.7034 F       1  UNL1       -0.2040
     33 C           3.7070   -1.1426   19.7350 C.ar    1  UNL1        0.0951
     34 C           2.3316   -0.6174   19.4483 C.ar    1  UNL1        0.1598
     35 F           1.1279   -1.4541   19.7667 F       1  UNL1       -0.2026
     36 N           0.7842    1.2695   18.5566 N.pl3   1  UNL1       -0.2166
     37 H           0.2858    0.9424   17.7731 H       1  UNL1        0.1734
     38 S           0.1681    2.2931   19.4636 S.O2    1  UNL1        0.0540
     39 O          -0.3071    1.2000   20.3743 O.2     1  UNL1       -0.1545
     40 O           0.6434    3.3861   18.5529 O.2     1  UNL1       -0.1545
     41 C          -0.4479    3.3167   20.3705 C.3     1  UNL1        0.1724
     42 C          -2.9305    3.7286   19.7243 C.3     1  UNL1        0.0019
     43 C          -1.9078    3.2394   20.7065 C.3     1  UNL1        0.0273
@<TRIPOS>BOND
     1    42    43    1
     2    43    41    1
     3    41    38    1
     4    38    39    2
     5    38    40    2
     6    38    36    1
     7    36    28    1
     8    28    29   ar
     9    29    30   ar
    10    30    31   ar
    11    31    32    1
    12    31    33   ar
    13    33    26    1
    14    26    27    2
    15    26     1    1
    16     1     2   ar
    17     2     3   ar
    18     3     4   ar
    19     4     5   ar
    20     5     6   ar
    21     6     7   ar
    22     7    11    1
    23    11    12   ar
    24    12    13   ar
    25    13    14   ar
    26    14    17    1
    27    17    18    1
    28    18    19    1
    29    19    20    1
    30    20    21    1
    31    21    22    1
    32    22    23    1
    33    23    24    1
    34    24    25    1
    35    14    15   ar
    36    15    16   ar
    37     7     8   ar
    38     8     9   ar
    39    33    34   ar
    40    34    35    1
    41    34    28   ar
    42     9     1   ar
    43     9     4    1
    44    16    11   ar
    45    25    20    1
    46    36    37    1
    47     5    10    1
@<TRIPOS>MOLECULE
*****
 43 47 0 0 0
SMALL
GASTEIGER

@<TRIPOS>ATOM
      1 C           4.2208   -2.6520   21.4752 C.ar    1  UNL1        0.0611
      2 C           5.2346   -3.7252   21.7407 C.ar    1  UNL1        0.1037
      3 N           5.5961   -3.6716   23.1955 N.ar    1  UNL1       -0.2269
      4 C           4.8058   -2.5652   23.8291 C.ar    1  UNL1        0.1407
      5 N           4.7502   -2.0502   25.2368 N.ar    1  UNL1       -0.3374
      6 C           3.8447   -0.9051   25.5812 C.ar    1  UNL1        0.0735
      7 C           2.9948   -0.2750   24.5180 C.ar    1  UNL1        0.0186
      8 C           3.0503   -0.7900   23.1103 C.ar    1  UNL1        0.0047
      9 C           3.9558   -1.9351   22.7659 C.ar    1  UNL1        0.0386
     10 H           5.3081   -2.4638   25.9346 H       1  UNL1        0.1674
     11 C           2.0892    0.8702   24.8625 C.ar    1  UNL1        0.0208
     12 C           0.6775    0.8887   24.3560 C.ar    1  UNL1        0.0064
     13 C          -0.2280    2.0339   24.7005 C.ar    1  UNL1        0.0577
     14 C           0.2783    3.1606   25.5516 C.ar    1  UNL1        0.2249
     15 N           1.6901    3.1420   26.0581 N.ar    1  UNL1       -0.2101
     16 C           2.5955    1.9969   25.7136 C.ar    1  UNL1        0.1021
     17 O          -0.6272    4.3057   25.8961 O.3     1  UNL1       -0.4587
     18 C          -0.5948    5.5607   25.0751 C.3     1  UNL1        0.2244
     19 C          -1.8757    6.1751   24.5934 C.3     1  UNL1        0.1202
     20 N          -2.6234    5.5523   23.4519 N.3     1  UNL1       -0.2653
     21 C          -2.8273    6.3214   22.1803 C.3     1  UNL1        0.1047
     22 C          -3.5750    5.6987   21.0388 C.3     1  UNL1        0.1595
     23 O          -4.1189    4.3068   21.1689 O.3     1  UNL1       -0.3508
     24 C          -3.9150    3.5377   22.4405 C.3     1  UNL1        0.1595
     25 C          -3.1673    4.1605   23.5820 C.3     1  UNL1        0.1047
     26 C           3.5839   -2.3489   20.1514 C.2     1  UNL1        0.2015
     27 O           3.1051   -3.4684   19.2756 O.2     1  UNL1       -0.2864
     28 C           1.8995    1.1034   19.1539 C.ar    1  UNL1        0.0920
     29 C           3.1095    1.9195   18.8075 C.ar    1  UNL1        0.0204
     30 C           4.4775    1.3128   18.9091 C.ar    1  UNL1        0.0312
     31 C           4.6357   -0.1099   19.3571 C.ar    1  UNL1        0.1454
     32 F           6.0038   -0.7166   19.4587 F       1  UNL1       -0.2040
     33 C           3.4258   -0.9260   19.7034 C.ar    1  UNL1        0.0951
     34 C           2.0577   -0.3194   19.6018 C.ar    1  UNL1        0.1598
     35 F           0.8478   -1.1356   19.9482 F       1  UNL1       -0.2026
     36 N           0.5314    1.7101   19.0522 N.pl3   1  UNL1       -0.2166
     37 H          -0.0627    1.4626   18.3073 H       1  UNL1        0.1734
     38 S           0.0686    2.6938   20.0857 S.O2    1  UNL1        0.0540
     39 O           0.4675    3.8261   19.1865 O.2     1  UNL1       -0.1545
     40 O          -0.3304    1.5614   20.9849 O.2     1  UNL1       -0.1545
     41 C          -0.3943    3.6774   21.1192 C.3     1  UNL1        0.1724
     42 C           1.9291    3.8365   22.2712 C.3     1  UNL1        0.0019
     43 C           0.6099    4.4560   21.9164 C.3     1  UNL1        0.0273
@<TRIPOS>BOND
     1    42    43    1
     2    43    41    1
     3    41    38    1
     4    38    39    2
     5    38    40    2
     6    38    36    1
     7    36    28    1
     8    28    29   ar
     9    29    30   ar
    10    30    31   ar
    11    31    32    1
    12    31    33   ar
    13    33    26    1
    14    26    27    2
    15    26     1    1
    16     1     2   ar
    17     2     3   ar
    18     3     4   ar
    19     4     5   ar
    20     5     6   ar
    21     6     7   ar
    22     7    11    1
    23    11    12   ar
    24    12    13   ar
    25    13    14   ar
    26    14    17    1
    27    17    18    1
    28    18    19    1
    29    19    20    1
    30    20    21    1
    31    21    22    1
    32    22    23    1
    33    23    24    1
    34    24    25    1
    35    14    15   ar
    36    15    16   ar
    37     7     8   ar
    38     8     9   ar
    39    33    34   ar
    40    34    35    1
    41    34    28   ar
    42     9     1   ar
    43     9     4    1
    44    16    11   ar
    45    25    20    1
    46    36    37    1
    47     5    10    1
