@<TRIPOS>MOLECULE
*****
 18 19 0 0 0
SMALL
GASTEIGER

@<TRIPOS>ATOM
      1 C          -9.9115  -18.2158   20.5545 C.ar    1  UNL1        0.2250
      2 C          -9.2966  -19.3225   19.7501 C.ar    1  UNL1        0.0592
      3 C          -7.8500  -19.6720   19.9382 C.ar    1  UNL1        0.0239
      4 C          -7.0184  -18.9147   20.9306 C.ar    1  UNL1        0.0849
      5 C          -7.6334  -17.8080   21.7350 C.ar    1  UNL1        0.1195
      6 N          -9.0799  -17.4586   21.5469 N.ar    1  UNL1       -0.2086
      7 N          -5.5719  -19.2641   21.1187 N.ar    1  UNL1       -0.2849
      8 C          -4.7207  -18.8916   22.2963 C.ar    1  UNL1        0.1023
      9 C          -3.3453  -19.4447   22.0676 C.ar    1  UNL1        0.1196
     10 N          -3.3464  -20.1590   20.7486 N.ar    1  UNL1       -0.2220
     11 C          -4.7225  -20.0474   20.1622 C.ar    1  UNL1        0.1829
     12 O         -11.3581  -17.8664   20.3664 O.3     1  UNL1       -0.4602
     13 C         -12.0991  -17.1339   21.4454 C.3     1  UNL1        0.2071
     14 C         -13.0415  -17.8769   22.3453 C.3     1  UNL1        0.0474
     15 C         -12.6276  -18.2199   23.7457 C.3     1  UNL1        0.0038
     16 C         -11.2174  -18.6466   24.0277 C.3     1  UNL1        0.0001
     17 C          -9.3150  -20.4038   23.8205 C.3     1  UNL1        0.0000
     18 C         -10.7379  -19.9952   23.5790 C.3     1  UNL1        0.0000
@<TRIPOS>BOND
     1    17    18    1
     2    18    16    1
     3    16    15    1
     4    15    14    1
     5    14    13    1
     6    13    12    1
     7    12     1    1
     8     1     2   ar
     9     2     3   ar
    10     3     4   ar
    11     4     7    1
    12     7     8   ar
    13     8     9   ar
    14     9    10   ar
    15    10    11   ar
    16     4     5   ar
    17     5     6   ar
    18     6     1   ar
    19    11     7   ar
@<TRIPOS>MOLECULE
*****
 18 19 0 0 0
SMALL
GASTEIGER

@<TRIPOS>ATOM
      1 C          -9.6951  -18.5547   23.7801 C.ar    1  UNL1        0.2250
      2 C          -8.9227  -17.3272   23.3971 C.ar    1  UNL1        0.0592
      3 C          -7.6299  -17.4580   22.6478 C.ar    1  UNL1        0.0239
      4 C          -7.1095  -18.8163   22.2814 C.ar    1  UNL1        0.0849
      5 C          -7.8819  -20.0437   22.6644 C.ar    1  UNL1        0.1195
      6 N          -9.1747  -19.9129   23.4137 N.ar    1  UNL1       -0.2086
      7 N          -5.8167  -18.9471   21.5321 N.ar    1  UNL1       -0.2849
      8 C          -5.6715  -19.1475   20.0526 C.ar    1  UNL1        0.1023
      9 C          -4.2071  -19.2248   19.7368 C.ar    1  UNL1        0.1196
     10 N          -3.4473  -19.0720   21.0210 N.ar    1  UNL1       -0.2220
     11 C          -4.4421  -18.9004   22.1305 C.ar    1  UNL1        0.1829
     12 O         -10.9879  -18.4239   24.5294 O.3     1  UNL1       -0.4602
     13 C         -12.2893  -18.4125   23.7836 C.3     1  UNL1        0.2071
     14 C         -12.5772  -17.3225   22.7942 C.3     1  UNL1        0.0474
     15 C         -12.6597  -17.6406   21.3306 C.3     1  UNL1        0.0038
     16 C         -11.4041  -17.8338   20.5332 C.3     1  UNL1        0.0001
     17 C          -9.6091  -19.4081   19.5087 C.3     1  UNL1        0.0000
     18 C         -10.8696  -19.2155   20.2987 C.3     1  UNL1        0.0000
@<TRIPOS>BOND
     1    17    18    1
     2    18    16    1
     3    16    15    1
     4    15    14    1
     5    14    13    1
     6    13    12    1
     7    12     1    1
     8     1     2   ar
     9     2     3   ar
    10     3     4   ar
    11     4     7    1
    12     7     8   ar
    13     8     9   ar
    14     9    10   ar
    15    10    11   ar
    16     4     5   ar
    17     5     6   ar
    18     6     1   ar
    19    11     7   ar
@<TRIPOS>MOLECULE
*****
 18 19 0 0 0
SMALL
GASTEIGER

@<TRIPOS>ATOM
      1 C          -7.0066  -18.6302   21.4734 C.ar    1  UNL1        0.2250
      2 C          -7.5639  -19.7890   22.2457 C.ar    1  UNL1        0.0592
      3 C          -8.9392  -19.7033   22.8384 C.ar    1  UNL1        0.0239
      4 C          -9.7571  -18.4589   22.6587 C.ar    1  UNL1        0.0849
      5 C          -9.1998  -17.3001   21.8864 C.ar    1  UNL1        0.1195
      6 N          -7.8245  -17.3858   21.2937 N.ar    1  UNL1       -0.2086
      7 N         -11.1324  -18.3732   23.2514 N.ar    1  UNL1       -0.2849
      8 C         -12.3450  -17.7938   22.5852 C.ar    1  UNL1        0.1023
      9 C         -13.4986  -17.9144   23.5364 C.ar    1  UNL1        0.1196
     10 N         -12.9990  -18.5684   24.7904 N.ar    1  UNL1       -0.2220
     11 C         -11.5366  -18.8520   24.6142 C.ar    1  UNL1        0.1829
     12 O          -5.6313  -18.7159   20.8807 O.3     1  UNL1       -0.4602
     13 C          -5.0310  -20.0547   20.5690 C.3     1  UNL1        0.2071
     14 C          -3.5560  -20.1769   20.3251 C.3     1  UNL1        0.0474
     15 C          -2.5831  -19.7668   21.3906 C.3     1  UNL1        0.0038
     16 C          -2.1561  -18.3334   21.5048 C.3     1  UNL1        0.0001
     17 C          -3.7649  -17.8473   23.4861 C.3     1  UNL1        0.0000
     18 C          -2.5059  -17.5419   22.7300 C.3     1  UNL1        0.0000
@<TRIPOS>BOND
     1    17    18    1
     2    18    16    1
     3    16    15    1
     4    15    14    1
     5    14    13    1
     6    13    12    1
     7    12     1    1
     8     1     2   ar
     9     2     3   ar
    10     3     4   ar
    11     4     7    1
    12     7     8   ar
    13     8     9   ar
    14     9    10   ar
    15    10    11   ar
    16     4     5   ar
    17     5     6   ar
    18     6     1   ar
    19    11     7   ar
@<TRIPOS>MOLECULE
*****
 18 19 0 0 0
SMALL
GASTEIGER

@<TRIPOS>ATOM
      1 C          -8.9576  -19.1909   20.8132 C.ar    1  UNL1        0.2250
      2 C          -8.3689  -19.3346   22.1852 C.ar    1  UNL1        0.0592
      3 C          -6.8802  -19.3918   22.3604 C.ar    1  UNL1        0.0239
      4 C          -5.9804  -19.3054   21.1634 C.ar    1  UNL1        0.0849
      5 C          -6.5691  -19.1617   19.7913 C.ar    1  UNL1        0.1195
      6 N          -8.0578  -19.1044   19.6162 N.ar    1  UNL1       -0.2086
      7 N          -4.4917  -19.3626   21.3386 N.ar    1  UNL1       -0.2849
      8 C          -3.6784  -18.5016   22.2590 C.ar    1  UNL1        0.1023
      9 C          -2.2391  -18.8978   22.1133 C.ar    1  UNL1        0.1196
     10 N          -2.1627  -20.0037   21.1028 N.ar    1  UNL1       -0.2220
     11 C          -3.5549  -20.2910   20.6240 C.ar    1  UNL1        0.1829
     12 O         -10.4463  -19.1336   20.6380 O.3     1  UNL1       -0.4602
     13 C         -11.0705  -17.9906   19.8938 C.3     1  UNL1        0.2071
     14 C         -11.0808  -16.6181   20.4989 C.3     1  UNL1        0.0474
     15 C         -11.3003  -16.4500   21.9732 C.3     1  UNL1        0.0038
     16 C         -12.6320  -16.7861   22.5763 C.3     1  UNL1        0.0001
     17 C         -11.5757  -18.6723   24.0173 C.3     1  UNL1        0.0000
     18 C         -12.7850  -18.0194   23.4163 C.3     1  UNL1        0.0000
@<TRIPOS>BOND
     1    17    18    1
     2    18    16    1
     3    16    15    1
     4    15    14    1
     5    14    13    1
     6    13    12    1
     7    12     1    1
     8     1     2   ar
     9     2     3   ar
    10     3     4   ar
    11     4     7    1
    12     7     8   ar
    13     8     9   ar
    14     9    10   ar
    15    10    11   ar
    16     4     5   ar
    17     5     6   ar
    18     6     1   ar
    19    11     7   ar
@<TRIPOS>MOLECULE
*****
 18 19 0 0 0
SMALL
GASTEIGER

@<TRIPOS>ATOM
      1 C          -6.1857  -18.1923   22.2286 C.ar    1  UNL1        0.2250
      2 C          -6.9975  -19.2912   21.6094 C.ar    1  UNL1        0.0592
      3 C          -8.4941  -19.1936   21.5815 C.ar    1  UNL1        0.0239
      4 C          -9.1788  -17.9972   22.1726 C.ar    1  UNL1        0.0849
      5 C          -8.3671  -16.8983   22.7917 C.ar    1  UNL1        0.1195
      6 N          -6.8705  -16.9958   22.8197 N.ar    1  UNL1       -0.2086
      7 N         -10.6754  -17.8996   22.1446 N.ar    1  UNL1       -0.2849
      8 C         -11.5742  -17.7884   23.3404 C.ar    1  UNL1        0.1023
      9 C         -12.9902  -17.7162   22.8508 C.ar    1  UNL1        0.1196
     10 N         -12.9666  -17.7828   21.3524 N.ar    1  UNL1       -0.2220
     11 C         -11.5359  -17.8961   20.9161 C.ar    1  UNL1        0.1829
     12 O          -4.6892  -18.2898   22.2565 O.3     1  UNL1       -0.4602
     13 C          -4.0218  -19.6255   22.1132 C.3     1  UNL1        0.2071
     14 C          -3.1049  -19.8854   20.9549 C.3     1  UNL1        0.0474
     15 C          -3.3694  -19.2363   19.6287 C.3     1  UNL1        0.0038
     16 C          -2.4331  -18.1869   19.1072 C.3     1  UNL1        0.0001
     17 C          -0.0396  -17.6902   19.9873 C.3     1  UNL1        0.0000
     18 C          -1.5206  -17.4605   20.0504 C.3     1  UNL1        0.0000
@<TRIPOS>BOND
     1    17    18    1
     2    18    16    1
     3    16    15    1
     4    15    14    1
     5    14    13    1
     6    13    12    1
     7    12     1    1
     8     1     2   ar
     9     2     3   ar
    10     3     4   ar
    11     4     7    1
    12     7     8   ar
    13     8     9   ar
    14     9    10   ar
    15    10    11   ar
    16     4     5   ar
    17     5     6   ar
    18     6     1   ar
    19    11     7   ar
@<TRIPOS>MOLECULE
*****
 18 19 0 0 0
SMALL
GASTEIGER

@<TRIPOS>ATOM
      1 C         -13.0700   -3.5870   18.3436 C.ar    1  UNL1        0.2250
      2 C         -13.1097   -4.2299   19.6982 C.ar    1  UNL1        0.0592
      3 C         -13.7529   -5.5738   19.8720 C.ar    1  UNL1        0.0239
      4 C         -14.3565   -6.2748   18.6912 C.ar    1  UNL1        0.0849
      5 C         -14.3169   -5.6318   17.3366 C.ar    1  UNL1        0.1195
      6 N         -13.6736   -4.2879   17.1628 N.ar    1  UNL1       -0.2086
      7 N         -14.9998   -7.6187   18.8650 N.ar    1  UNL1       -0.2849
      8 C         -16.2453   -7.9051   19.6503 C.ar    1  UNL1        0.1023
      9 C         -16.5257   -9.3755   19.5547 C.ar    1  UNL1        0.1196
     10 N         -15.4535   -9.9979   18.7103 N.ar    1  UNL1       -0.2220
     11 C         -14.5104   -8.9121   18.2841 C.ar    1  UNL1        0.1829
     12 O         -12.4268   -2.2431   18.1698 O.3     1  UNL1       -0.4602
     13 C         -10.9332   -2.1314   18.0881 C.3     1  UNL1        0.2071
     14 C         -10.2250   -2.4660   16.8088 C.3     1  UNL1        0.0474
     15 C          -9.3939   -3.7113   16.7153 C.3     1  UNL1        0.0038
     16 C         -10.0591   -5.0546   16.6603 C.3     1  UNL1        0.0001
     17 C          -9.5956   -5.3896   19.1946 C.3     1  UNL1        0.0000
     18 C         -10.1902   -5.8782   17.9071 C.3     1  UNL1        0.0000
@<TRIPOS>BOND
     1    17    18    1
     2    18    16    1
     3    16    15    1
     4    15    14    1
     5    14    13    1
     6    13    12    1
     7    12     1    1
     8     1     2   ar
     9     2     3   ar
    10     3     4   ar
    11     4     7    1
    12     7     8   ar
    13     8     9   ar
    14     9    10   ar
    15    10    11   ar
    16     4     5   ar
    17     5     6   ar
    18     6     1   ar
    19    11     7   ar
@<TRIPOS>MOLECULE
*****
 18 19 0 0 0
SMALL
GASTEIGER

@<TRIPOS>ATOM
      1 C           6.2884  -12.1967   27.8683 C.ar    1  UNL1        0.2250
      2 C           5.4204  -11.9435   29.0651 C.ar    1  UNL1        0.0592
      3 C           4.0802  -12.6083   29.1738 C.ar    1  UNL1        0.0239
      4 C           3.6080  -13.5265   28.0857 C.ar    1  UNL1        0.0849
      5 C           4.4759  -13.7797   26.8889 C.ar    1  UNL1        0.1195
      6 N           5.8161  -13.1149   26.7802 N.ar    1  UNL1       -0.2086
      7 N           2.2678  -14.1913   28.1945 N.ar    1  UNL1       -0.2849
      8 C           2.0227  -15.6657   28.3213 C.ar    1  UNL1        0.1023
      9 C           0.5408  -15.8842   28.4007 C.ar    1  UNL1        0.1196
     10 N          -0.1300  -14.5448   28.3229 N.ar    1  UNL1       -0.2220
     11 C           0.9373  -13.4986   28.1954 C.ar    1  UNL1        0.1829
     12 O           7.6286  -11.5319   27.7595 O.3     1  UNL1       -0.4602
     13 C           7.7280  -10.0355   27.7891 C.3     1  UNL1        0.2071
     14 C           9.0468   -9.3664   27.5377 C.3     1  UNL1        0.0474
     15 C           9.1488   -8.2681   26.5211 C.3     1  UNL1        0.0038
     16 C           7.9450   -7.8769   25.7163 C.3     1  UNL1        0.0001
     17 C           8.9690   -7.3840   23.3800 C.3     1  UNL1        0.0000
     18 C           8.0978   -6.9723   24.5296 C.3     1  UNL1        0.0000
@<TRIPOS>BOND
     1    17    18    1
     2    18    16    1
     3    16    15    1
     4    15    14    1
     5    14    13    1
     6    13    12    1
     7    12     1    1
     8     1     2   ar
     9     2     3   ar
    10     3     4   ar
    11     4     7    1
    12     7     8   ar
    13     8     9   ar
    14     9    10   ar
    15    10    11   ar
    16     4     5   ar
    17     5     6   ar
    18     6     1   ar
    19    11     7   ar
@<TRIPOS>MOLECULE
*****
 18 19 0 0 0
SMALL
GASTEIGER

@<TRIPOS>ATOM
      1 C         -10.5006   -5.3934   17.7087 C.ar    1  UNL1        0.2250
      2 C         -11.0957   -6.2882   16.6622 C.ar    1  UNL1        0.0592
      3 C         -12.3404   -7.0693   16.9629 C.ar    1  UNL1        0.0239
      4 C         -12.9901   -6.9557   18.3101 C.ar    1  UNL1        0.0849
      5 C         -12.3950   -6.0609   19.3566 C.ar    1  UNL1        0.1195
      6 N         -11.1502   -5.2798   19.0559 N.ar    1  UNL1       -0.2086
      7 N         -14.2348   -7.7368   18.6108 N.ar    1  UNL1       -0.2849
      8 C         -15.4358   -7.2304   19.3533 C.ar    1  UNL1        0.1023
      9 C         -16.4404   -8.3421   19.4231 C.ar    1  UNL1        0.1196
     10 N         -15.8603   -9.5357   18.7238 N.ar    1  UNL1       -0.2220
     11 C         -14.4972   -9.1615   18.2218 C.ar    1  UNL1        0.1829
     12 O          -9.2558   -4.6122   17.4080 O.3     1  UNL1       -0.4602
     13 C          -9.2534   -3.6030   16.2984 C.3     1  UNL1        0.2071
     14 C         -10.4316   -2.6942   16.1086 C.3     1  UNL1        0.0474
     15 C         -10.3394   -1.2524   16.5124 C.3     1  UNL1        0.0038
     16 C         -11.1069   -0.7562   17.7017 C.3     1  UNL1        0.0001
     17 C         -12.8726   -2.1743   18.9750 C.3     1  UNL1        0.0000
     18 C         -11.4590   -1.6991   18.8139 C.3     1  UNL1        0.0000
@<TRIPOS>BOND
     1    17    18    1
     2    18    16    1
     3    16    15    1
     4    15    14    1
     5    14    13    1
     6    13    12    1
     7    12     1    1
     8     1     2   ar
     9     2     3   ar
    10     3     4   ar
    11     4     7    1
    12     7     8   ar
    13     8     9   ar
    14     9    10   ar
    15    10    11   ar
    16     4     5   ar
    17     5     6   ar
    18     6     1   ar
    19    11     7   ar
@<TRIPOS>MOLECULE
*****
 18 19 0 0 0
SMALL
GASTEIGER

@<TRIPOS>ATOM
      1 C           6.2921  -12.2118   27.9714 C.ar    1  UNL1        0.2250
      2 C           5.4125  -11.9820   29.1644 C.ar    1  UNL1        0.0592
      3 C           4.0710  -12.6481   29.2467 C.ar    1  UNL1        0.0239
      4 C           3.6091  -13.5440   28.1359 C.ar    1  UNL1        0.0849
      5 C           4.4887  -13.7738   26.9428 C.ar    1  UNL1        0.1195
      6 N           5.8302  -13.1077   26.8606 N.ar    1  UNL1       -0.2086
      7 N           2.2677  -14.2101   28.2181 N.ar    1  UNL1       -0.2849
      8 C           2.0207  -15.6866   28.3128 C.ar    1  UNL1        0.1023
      9 C           0.5380  -15.9057   28.3733 C.ar    1  UNL1        0.1196
     10 N          -0.1314  -14.5646   28.3161 N.ar    1  UNL1       -0.2220
     11 C           0.9376  -13.5167   28.2202 C.ar    1  UNL1        0.1829
     12 O           7.6336  -11.5457   27.8891 O.3     1  UNL1       -0.4602
     13 C           7.7234  -10.0660   27.6603 C.3     1  UNL1        0.2071
     14 C           9.0568   -9.3801   27.7028 C.3     1  UNL1        0.0474
     15 C           9.2144   -8.0931   28.4570 C.3     1  UNL1        0.0038
     16 C           8.0921   -7.0982   28.4854 C.3     1  UNL1        0.0001
     17 C           7.0089   -5.5243   30.2459 C.3     1  UNL1        0.0000
     18 C           8.1763   -5.8981   29.3813 C.3     1  UNL1        0.0000
@<TRIPOS>BOND
     1    17    18    1
     2    18    16    1
     3    16    15    1
     4    15    14    1
     5    14    13    1
     6    13    12    1
     7    12     1    1
     8     1     2   ar
     9     2     3   ar
    10     3     4   ar
    11     4     7    1
    12     7     8   ar
    13     8     9   ar
    14     9    10   ar
    15    10    11   ar
    16     4     5   ar
    17     5     6   ar
    18     6     1   ar
    19    11     7   ar
