@<TRIPOS>MOLECULE
*****
 27 29 0 0 0
SMALL
GASTEIGER

@<TRIPOS>ATOM
      1 C          -8.6563  -18.8155   21.4750 C.ar    1  UNL1        0.0005
      2 C          -7.4796  -18.8153   22.4052 C.ar    1  UNL1       -0.0011
      3 C          -6.1633  -19.3719   21.9495 C.ar    1  UNL1        0.0143
      4 C          -6.0238  -19.9287   20.5637 C.ar    1  UNL1        0.0483
      5 C          -7.2005  -19.9289   19.6335 C.ar    1  UNL1        0.0143
      6 C          -8.5167  -19.3723   20.0892 C.ar    1  UNL1       -0.0011
      7 N          -4.7074  -20.4853   20.1081 N.pl3   1  UNL1       -0.3125
      8 H          -4.6538  -21.4084   19.7702 H       1  UNL1        0.1522
      9 C          -3.4729  -19.6353   20.1672 C.ar    1  UNL1        0.0483
     10 C          -3.0581  -18.8310   18.9709 C.ar    1  UNL1        0.0146
     11 C          -1.8235  -17.9811   19.0301 C.ar    1  UNL1        0.0013
     12 C          -1.0038  -17.9354   20.2854 C.ar    1  UNL1        0.0001
     13 C          -1.4187  -18.7397   21.4817 C.ar    1  UNL1        0.0013
     14 C          -2.6532  -19.5896   21.4226 C.ar    1  UNL1        0.0146
     15 C          -9.9726  -18.2589   21.9306 C.3     1  UNL1        0.1390
     16 N         -10.7253  -17.3013   21.0552 N.ar    1  UNL1       -0.2273
     17 C         -12.1793  -17.3902   20.6974 C.ar    1  UNL1        0.1975
     18 N         -12.5089  -16.2304   19.8050 N.ar    1  UNL1       -0.2007
     19 C         -11.2585  -15.4248   19.6112 C.ar    1  UNL1        0.2210
     20 N         -10.1563  -16.0866   20.3839 N.ar    1  UNL1       -0.1449
     21 C         -10.5362  -18.6600   23.2616 C.3     1  UNL1        0.1141
     22 C         -10.2058  -17.3035   23.8102 C.3     1  UNL1        0.0134
     23 C         -10.8665  -20.0164   22.7130 C.3     1  UNL1        0.0134
     24 C         -11.0998  -19.0611   24.5926 C.2     1  UNL1        0.3182
     25 O         -10.2064  -19.6690   25.6329 O.2     1  UNL1       -0.2501
     26 C         -13.4012  -18.0446   23.9445 C.3     1  UNL1        0.2556
     27 O         -12.5567  -18.8542   24.8833 O.3     1  UNL1       -0.4444
@<TRIPOS>BOND
     1    26    27    1
     2    27    24    1
     3    24    25    2
     4    24    21    1
     5    21    22    1
     6    21    23    1
     7    21    15    1
     8    15     1    1
     9     1     2   ar
    10     2     3   ar
    11     3     4   ar
    12     4     7    1
    13     7     9    1
    14     9    10   ar
    15    10    11   ar
    16    11    12   ar
    17    12    13   ar
    18    13    14   ar
    19     4     5   ar
    20     5     6   ar
    21    15    16    1
    22    16    17   ar
    23    17    18   ar
    24    18    19   ar
    25    19    20   ar
    26     6     1   ar
    27    20    16   ar
    28    14     9   ar
    29     7     8    1
@<TRIPOS>MOLECULE
*****
 27 29 0 0 0
SMALL
GASTEIGER

@<TRIPOS>ATOM
      1 C          -8.0372  -18.2284   21.9761 C.ar    1  UNL1        0.0005
      2 C          -6.6719  -18.0565   22.5731 C.ar    1  UNL1       -0.0011
      3 C          -5.4835  -18.7038   21.9260 C.ar    1  UNL1        0.0143
      4 C          -5.6604  -19.5230   20.6820 C.ar    1  UNL1        0.0483
      5 C          -7.0257  -19.6949   20.0850 C.ar    1  UNL1        0.0143
      6 C          -8.2141  -19.0476   20.7321 C.ar    1  UNL1       -0.0011
      7 N          -4.4719  -20.1703   20.0349 N.pl3   1  UNL1       -0.3125
      8 H          -4.5344  -21.0957   19.7049 H       1  UNL1        0.1522
      9 C          -3.1884  -19.4076   19.8907 C.ar    1  UNL1        0.0483
     10 C          -2.9770  -18.5123   18.7059 C.ar    1  UNL1        0.0146
     11 C          -1.6934  -17.7496   18.5618 C.ar    1  UNL1        0.0013
     12 C          -0.6213  -17.8822   19.6024 C.ar    1  UNL1        0.0001
     13 C          -0.8327  -18.7775   20.7872 C.ar    1  UNL1        0.0013
     14 C          -2.1162  -19.5402   20.9314 C.ar    1  UNL1        0.0146
     15 C          -9.2256  -17.5811   22.6232 C.3     1  UNL1        0.1390
     16 N         -10.4327  -17.2379   21.8015 N.ar    1  UNL1       -0.2273
     17 C         -11.7882  -17.8693   21.9194 C.ar    1  UNL1        0.1975
     18 N         -12.6894  -17.2247   20.9083 N.ar    1  UNL1       -0.2007
     19 C         -11.8909  -16.1948   20.1655 C.ar    1  UNL1        0.2210
     20 N         -10.4962  -16.2030   20.7175 N.ar    1  UNL1       -0.1449
     21 C          -9.2070  -17.2770   24.0919 C.3     1  UNL1        0.1141
     22 C          -9.5744  -18.7001   24.3912 C.3     1  UNL1        0.0134
     23 C          -8.8395  -15.8539   23.7926 C.3     1  UNL1        0.0134
     24 C          -9.1883  -16.9729   25.5607 C.2     1  UNL1        0.3182
     25 O          -9.4630  -18.0613   26.5555 O.2     1  UNL1       -0.2501
     26 C          -8.1338  -15.3664   27.3091 C.3     1  UNL1        0.2556
     27 O          -8.8950  -15.5802   26.0345 O.3     1  UNL1       -0.4444
@<TRIPOS>BOND
     1    26    27    1
     2    27    24    1
     3    24    25    2
     4    24    21    1
     5    21    22    1
     6    21    23    1
     7    21    15    1
     8    15     1    1
     9     1     2   ar
    10     2     3   ar
    11     3     4   ar
    12     4     7    1
    13     7     9    1
    14     9    10   ar
    15    10    11   ar
    16    11    12   ar
    17    12    13   ar
    18    13    14   ar
    19     4     5   ar
    20     5     6   ar
    21    15    16    1
    22    16    17   ar
    23    17    18   ar
    24    18    19   ar
    25    19    20   ar
    26     6     1   ar
    27    20    16   ar
    28    14     9   ar
    29     7     8    1
@<TRIPOS>MOLECULE
*****
 27 29 0 0 0
SMALL
GASTEIGER

@<TRIPOS>ATOM
      1 C          -7.9368  -18.0514   23.0524 C.ar    1  UNL1        0.0005
      2 C          -6.5632  -17.4487   23.0480 C.ar    1  UNL1       -0.0011
      3 C          -5.4444  -18.1374   22.3241 C.ar    1  UNL1        0.0143
      4 C          -5.6992  -19.4288   21.6048 C.ar    1  UNL1        0.0483
      5 C          -7.0728  -20.0314   21.6092 C.ar    1  UNL1        0.0143
      6 C          -8.1916  -19.3427   22.3331 C.ar    1  UNL1       -0.0011
      7 N          -4.5803  -20.1175   20.8809 N.pl3   1  UNL1       -0.3125
      8 H          -4.6232  -21.0873   20.7173 H       1  UNL1        0.1522
      9 C          -3.3962  -19.3284   20.4063 C.ar    1  UNL1        0.0483
     10 C          -3.5012  -18.4911   19.1662 C.ar    1  UNL1        0.0146
     11 C          -2.3170  -17.7020   18.6916 C.ar    1  UNL1        0.0013
     12 C          -1.0280  -17.7504   19.4570 C.ar    1  UNL1        0.0001
     13 C          -0.9230  -18.5878   20.6971 C.ar    1  UNL1        0.0013
     14 C          -2.1071  -19.3768   21.1718 C.ar    1  UNL1        0.0146
     15 C          -9.0557  -17.3627   23.7763 C.3     1  UNL1        0.1390
     16 N          -8.8276  -16.8006   25.1482 N.ar    1  UNL1       -0.2273
     17 C          -8.5937  -15.3570   25.4819 C.ar    1  UNL1        0.1975
     18 N          -8.4150  -15.2476   26.9672 N.ar    1  UNL1       -0.2007
     19 C          -8.5384  -16.6236   27.5515 C.ar    1  UNL1        0.2210
     20 N          -8.7934  -17.5834   26.4273 N.ar    1  UNL1       -0.1449
     21 C         -10.4025  -17.2361   23.1283 C.3     1  UNL1        0.1141
     22 C          -9.8346  -16.2632   22.1379 C.3     1  UNL1        0.0134
     23 C         -10.9704  -18.2090   24.1187 C.3     1  UNL1        0.0134
     24 C         -11.7494  -17.1096   22.4803 C.2     1  UNL1        0.3182
     25 O         -12.5390  -15.8434   22.6327 O.2     1  UNL1       -0.2501
     26 C         -11.4257  -18.9935   20.7207 C.3     1  UNL1        0.2556
     27 O         -12.3067  -18.2493   21.6799 O.3     1  UNL1       -0.4444
@<TRIPOS>BOND
     1    26    27    1
     2    27    24    1
     3    24    25    2
     4    24    21    1
     5    21    22    1
     6    21    23    1
     7    21    15    1
     8    15     1    1
     9     1     2   ar
    10     2     3   ar
    11     3     4   ar
    12     4     7    1
    13     7     9    1
    14     9    10   ar
    15    10    11   ar
    16    11    12   ar
    17    12    13   ar
    18    13    14   ar
    19     4     5   ar
    20     5     6   ar
    21    15    16    1
    22    16    17   ar
    23    17    18   ar
    24    18    19   ar
    25    19    20   ar
    26     6     1   ar
    27    20    16   ar
    28    14     9   ar
    29     7     8    1
@<TRIPOS>MOLECULE
*****
 27 29 0 0 0
SMALL
GASTEIGER

@<TRIPOS>ATOM
      1 C          -7.9832  -17.7894   23.0538 C.ar    1  UNL1        0.0005
      2 C          -6.5245  -17.4748   23.2060 C.ar    1  UNL1       -0.0011
      3 C          -5.5125  -18.1773   22.3503 C.ar    1  UNL1        0.0143
      4 C          -5.9592  -19.1945   21.3424 C.ar    1  UNL1        0.0483
      5 C          -7.4179  -19.5091   21.1902 C.ar    1  UNL1        0.0143
      6 C          -8.4299  -18.8065   22.0459 C.ar    1  UNL1       -0.0011
      7 N          -4.9471  -19.8970   20.4867 N.pl3   1  UNL1       -0.3125
      8 H          -5.1485  -20.7865   20.1158 H       1  UNL1        0.1522
      9 C          -3.6282  -19.2444   20.1961 C.ar    1  UNL1        0.0483
     10 C          -2.4340  -19.5541   21.0494 C.ar    1  UNL1        0.0146
     11 C          -1.1151  -18.9014   20.7587 C.ar    1  UNL1        0.0013
     12 C          -0.9903  -17.9391   19.6148 C.ar    1  UNL1        0.0001
     13 C          -2.1845  -17.6295   18.7616 C.ar    1  UNL1        0.0013
     14 C          -3.5034  -18.2821   19.0522 C.ar    1  UNL1        0.0146
     15 C          -8.9953  -17.0868   23.9095 C.3     1  UNL1        0.1390
     16 N         -10.4401  -17.0758   23.5063 N.ar    1  UNL1       -0.2273
     17 C         -11.4776  -18.0784   23.9166 C.ar    1  UNL1        0.1975
     18 N         -12.7798  -17.6825   23.2859 N.ar    1  UNL1       -0.2007
     19 C         -12.5470  -16.4352   22.4859 C.ar    1  UNL1        0.2210
     20 N         -11.1010  -16.0603   22.6221 N.ar    1  UNL1       -0.1449
     21 C          -8.5626  -16.3954   25.1683 C.3     1  UNL1        0.1141
     22 C          -8.2511  -15.1572   24.3810 C.3     1  UNL1        0.0134
     23 C          -8.8742  -17.6336   25.9555 C.3     1  UNL1        0.0134
     24 C          -8.1299  -15.7039   26.4272 C.2     1  UNL1        0.3182
     25 O          -9.0623  -14.7550   27.1201 O.2     1  UNL1       -0.2501
     26 C          -5.5446  -15.5395   26.2295 C.3     1  UNL1        0.2556
     27 O          -6.7648  -15.9614   26.9930 O.3     1  UNL1       -0.4444
@<TRIPOS>BOND
     1    26    27    1
     2    27    24    1
     3    24    25    2
     4    24    21    1
     5    21    22    1
     6    21    23    1
     7    21    15    1
     8    15     1    1
     9     1     2   ar
    10     2     3   ar
    11     3     4   ar
    12     4     7    1
    13     7     9    1
    14     9    10   ar
    15    10    11   ar
    16    11    12   ar
    17    12    13   ar
    18    13    14   ar
    19     4     5   ar
    20     5     6   ar
    21    15    16    1
    22    16    17   ar
    23    17    18   ar
    24    18    19   ar
    25    19    20   ar
    26     6     1   ar
    27    20    16   ar
    28    14     9   ar
    29     7     8    1
@<TRIPOS>MOLECULE
*****
 27 29 0 0 0
SMALL
GASTEIGER

@<TRIPOS>ATOM
      1 C          -7.4943  -18.3152   22.2647 C.ar    1  UNL1        0.0005
      2 C          -6.4303  -17.3668   22.7319 C.ar    1  UNL1       -0.0011
      3 C          -4.9833  -17.7398   22.6012 C.ar    1  UNL1        0.0143
      4 C          -4.6004  -19.0611   22.0033 C.ar    1  UNL1        0.0483
      5 C          -5.6645  -20.0095   21.5362 C.ar    1  UNL1        0.0143
      6 C          -7.1114  -19.6365   21.6669 C.ar    1  UNL1       -0.0011
      7 N          -3.1533  -19.4340   21.8727 N.pl3   1  UNL1       -0.3125
      8 H          -2.7518  -20.0764   22.5015 H       1  UNL1        0.1522
      9 C          -2.3181  -18.8283   20.7840 C.ar    1  UNL1        0.0483
     10 C          -0.8987  -18.4299   21.0612 C.ar    1  UNL1        0.0146
     11 C          -0.0635  -17.8241   19.9724 C.ar    1  UNL1        0.0013
     12 C          -0.6475  -17.6167   18.6065 C.ar    1  UNL1        0.0001
     13 C          -2.0669  -18.0150   18.3292 C.ar    1  UNL1        0.0013
     14 C          -2.9021  -18.6208   19.4179 C.ar    1  UNL1        0.0146
     15 C          -8.9414  -17.9422   22.3954 C.3     1  UNL1        0.1390
     16 N          -9.5291  -16.8922   21.4998 N.ar    1  UNL1       -0.2273
     17 C          -9.0514  -15.4763   21.3697 C.ar    1  UNL1        0.1975
     18 N          -9.9247  -14.7827   20.3666 N.ar    1  UNL1       -0.2007
     19 C         -10.9422  -15.7700   19.8768 C.ar    1  UNL1        0.2210
     20 N         -10.6977  -17.0737   20.5772 N.ar    1  UNL1       -0.1449
     21 C          -9.8007  -18.6193   23.4216 C.3     1  UNL1        0.1141
     22 C         -10.0632  -19.7414   22.4615 C.3     1  UNL1        0.0134
     23 C          -9.5381  -17.4972   24.3818 C.3     1  UNL1        0.0134
     24 C         -10.6600  -19.2964   24.4480 C.2     1  UNL1        0.3182
     25 O         -10.0250  -20.0264   25.5942 O.2     1  UNL1       -0.2501
     26 C         -12.8313  -17.9591   23.9510 C.3     1  UNL1        0.2556
     27 O         -12.1542  -19.2434   24.3280 O.3     1  UNL1       -0.4444
@<TRIPOS>BOND
     1    26    27    1
     2    27    24    1
     3    24    25    2
     4    24    21    1
     5    21    22    1
     6    21    23    1
     7    21    15    1
     8    15     1    1
     9     1     2   ar
    10     2     3   ar
    11     3     4   ar
    12     4     7    1
    13     7     9    1
    14     9    10   ar
    15    10    11   ar
    16    11    12   ar
    17    12    13   ar
    18    13    14   ar
    19     4     5   ar
    20     5     6   ar
    21    15    16    1
    22    16    17   ar
    23    17    18   ar
    24    18    19   ar
    25    19    20   ar
    26     6     1   ar
    27    20    16   ar
    28    14     9   ar
    29     7     8    1
@<TRIPOS>MOLECULE
*****
 27 29 0 0 0
SMALL
GASTEIGER

@<TRIPOS>ATOM
      1 C          -6.5459  -17.2894   23.3287 C.ar    1  UNL1        0.0005
      2 C          -5.1568  -16.8222   23.6482 C.ar    1  UNL1       -0.0011
      3 C          -3.9723  -17.5619   23.1007 C.ar    1  UNL1        0.0143
      4 C          -4.1769  -18.7688   22.2338 C.ar    1  UNL1        0.0483
      5 C          -5.5660  -19.2359   21.9143 C.ar    1  UNL1        0.0143
      6 C          -6.7505  -18.4962   22.4618 C.ar    1  UNL1       -0.0011
      7 N          -2.9923  -19.5085   21.6863 N.pl3   1  UNL1       -0.3125
      8 H          -2.7801  -20.4113   22.0166 H       1  UNL1        0.1522
      9 C          -2.1311  -18.8726   20.6356 C.ar    1  UNL1        0.0483
     10 C          -0.7178  -18.4862   20.9572 C.ar    1  UNL1        0.0146
     11 C           0.1434  -17.8503   19.9064 C.ar    1  UNL1        0.0013
     12 C          -0.4087  -17.6009   18.5342 C.ar    1  UNL1        0.0001
     13 C          -1.8220  -17.9873   18.2127 C.ar    1  UNL1        0.0013
     14 C          -2.6832  -18.6231   19.2634 C.ar    1  UNL1        0.0146
     15 C          -7.7305  -16.5497   23.8762 C.3     1  UNL1        0.1390
     16 N          -7.6812  -15.9745   25.2607 N.ar    1  UNL1       -0.2273
     17 C          -6.4404  -15.6043   26.0179 C.ar    1  UNL1        0.1975
     18 N          -6.8564  -15.0696   27.3562 N.ar    1  UNL1       -0.2007
     19 C          -8.3542  -15.1093   27.4261 C.ar    1  UNL1        0.2210
     20 N          -8.8639  -15.6686   26.1310 N.ar    1  UNL1       -0.1449
     21 C          -8.9643  -16.3851   23.0392 C.3     1  UNL1        0.1141
     22 C          -8.3166  -15.2467   22.3082 C.3     1  UNL1        0.0134
     23 C          -9.6120  -17.5236   23.7702 C.3     1  UNL1        0.0134
     24 C         -10.1982  -16.2206   22.2022 C.2     1  UNL1        0.3182
     25 O         -10.1256  -16.4035   20.7152 O.2     1  UNL1       -0.2501
     26 C         -12.7769  -16.4957   22.3585 C.3     1  UNL1        0.2556
     27 O         -11.5046  -15.8733   22.8523 O.3     1  UNL1       -0.4444
@<TRIPOS>BOND
     1    26    27    1
     2    27    24    1
     3    24    25    2
     4    24    21    1
     5    21    22    1
     6    21    23    1
     7    21    15    1
     8    15     1    1
     9     1     2   ar
    10     2     3   ar
    11     3     4   ar
    12     4     7    1
    13     7     9    1
    14     9    10   ar
    15    10    11   ar
    16    11    12   ar
    17    12    13   ar
    18    13    14   ar
    19     4     5   ar
    20     5     6   ar
    21    15    16    1
    22    16    17   ar
    23    17    18   ar
    24    18    19   ar
    25    19    20   ar
    26     6     1   ar
    27    20    16   ar
    28    14     9   ar
    29     7     8    1
@<TRIPOS>MOLECULE
*****
 27 29 0 0 0
SMALL
GASTEIGER

@<TRIPOS>ATOM
      1 C           4.7089   -1.6523   21.4798 C.ar    1  UNL1        0.0005
      2 C           6.1104   -1.1566   21.6793 C.ar    1  UNL1       -0.0011
      3 C           6.9451   -1.6988   22.8013 C.ar    1  UNL1        0.0143
      4 C           6.3783   -2.7368   23.7240 C.ar    1  UNL1        0.0483
      5 C           4.9767   -3.2326   23.5245 C.ar    1  UNL1        0.0143
      6 C           4.1420   -2.6903   22.4024 C.ar    1  UNL1       -0.0011
      7 N           7.2131   -3.2791   24.8461 N.pl3   1  UNL1       -0.3125
      8 H           7.6242   -2.6640   25.4956 H       1  UNL1        0.1522
      9 C           7.4215   -4.7586   24.9787 C.ar    1  UNL1        0.0483
     10 C           6.9694   -5.4716   26.2186 C.ar    1  UNL1        0.0146
     11 C           7.1778   -6.9512   26.3511 C.ar    1  UNL1        0.0013
     12 C           7.8383   -7.7177   25.2438 C.ar    1  UNL1        0.0001
     13 C           8.2904   -7.0047   24.0039 C.ar    1  UNL1        0.0013
     14 C           8.0820   -5.5252   23.8714 C.ar    1  UNL1        0.0146
     15 C           3.8740   -1.1100   20.3577 C.3     1  UNL1        0.1390
     16 N           2.5562   -0.4564   20.6513 N.ar    1  UNL1       -0.2273
     17 C           1.2423   -0.7948   20.0118 C.ar    1  UNL1        0.1975
     18 N           0.1950    0.1028   20.6013 N.ar    1  UNL1       -0.2007
     19 C           0.8617    0.9959   21.6052 C.ar    1  UNL1        0.2210
     20 N           2.3210    0.6503   21.6361 N.ar    1  UNL1       -0.1449
     21 C           4.3571   -1.2213   18.9420 C.3     1  UNL1        0.1141
     22 C           4.1215   -2.7022   18.9780 C.3     1  UNL1        0.0134
     23 C           4.5926    0.2596   18.9059 C.3     1  UNL1        0.0134
     24 C           4.8401   -1.3326   17.5262 C.2     1  UNL1        0.3182
     25 O           3.9207   -0.9916   16.3911 O.2     1  UNL1       -0.2501
     26 C           7.2744   -1.7474   18.3335 C.3     1  UNL1        0.2556
     27 O           6.2425   -1.7848   17.2456 O.3     1  UNL1       -0.4444
@<TRIPOS>BOND
     1    26    27    1
     2    27    24    1
     3    24    25    2
     4    24    21    1
     5    21    22    1
     6    21    23    1
     7    21    15    1
     8    15     1    1
     9     1     2   ar
    10     2     3   ar
    11     3     4   ar
    12     4     7    1
    13     7     9    1
    14     9    10   ar
    15    10    11   ar
    16    11    12   ar
    17    12    13   ar
    18    13    14   ar
    19     4     5   ar
    20     5     6   ar
    21    15    16    1
    22    16    17   ar
    23    17    18   ar
    24    18    19   ar
    25    19    20   ar
    26     6     1   ar
    27    20    16   ar
    28    14     9   ar
    29     7     8    1
@<TRIPOS>MOLECULE
*****
 27 29 0 0 0
SMALL
GASTEIGER

@<TRIPOS>ATOM
      1 C           2.8445   -0.2297   20.2127 C.ar    1  UNL1        0.0005
      2 C           3.3046    1.0296   20.8853 C.ar    1  UNL1       -0.0011
      3 C           2.3082    1.9307   21.5524 C.ar    1  UNL1        0.0143
      4 C           0.8516    1.5725   21.5469 C.ar    1  UNL1        0.0483
      5 C           0.3914    0.3132   20.8743 C.ar    1  UNL1        0.0143
      6 C           1.3879   -0.5878   20.2072 C.ar    1  UNL1       -0.0011
      7 N          -0.1448    2.4737   22.2141 N.pl3   1  UNL1       -0.3125
      8 H          -0.6422    3.1366   21.6827 H       1  UNL1        0.1522
      9 C          -0.3835    2.3648   23.6910 C.ar    1  UNL1        0.0483
     10 C           0.3552    1.3373   24.4964 C.ar    1  UNL1        0.0146
     11 C           0.1165    1.2285   25.9733 C.ar    1  UNL1        0.0013
     12 C          -0.8609    2.1470   26.6448 C.ar    1  UNL1        0.0001
     13 C          -1.5996    3.1745   25.8394 C.ar    1  UNL1        0.0013
     14 C          -1.3610    3.2834   24.3625 C.ar    1  UNL1        0.0146
     15 C           3.8409   -1.1309   19.5455 C.3     1  UNL1        0.1390
     16 N           3.8764   -2.5915   19.8852 N.ar    1  UNL1       -0.2273
     17 C           4.3248   -3.1828   21.1888 C.ar    1  UNL1        0.1975
     18 N           4.1953   -4.6740   21.0902 N.ar    1  UNL1       -0.2007
     19 C           3.6670   -5.0042   19.7258 C.ar    1  UNL1        0.2210
     20 N           3.4699   -3.7171   18.9810 N.ar    1  UNL1       -0.1449
     21 C           4.8017   -0.5714   18.5386 C.3     1  UNL1        0.1141
     22 C           5.9272   -0.7483   19.5143 C.3     1  UNL1        0.0134
     23 C           3.6763   -0.3945   17.5629 C.3     1  UNL1        0.0134
     24 C           5.7626   -0.0120   17.5317 C.2     1  UNL1        0.3182
     25 O           6.8739   -0.8674   16.9995 O.2     1  UNL1       -0.2501
     26 C           5.9453    2.5415   17.9749 C.3     1  UNL1        0.2556
     27 O           5.6121    1.4029   17.0570 O.3     1  UNL1       -0.4444
@<TRIPOS>BOND
     1    26    27    1
     2    27    24    1
     3    24    25    2
     4    24    21    1
     5    21    22    1
     6    21    23    1
     7    21    15    1
     8    15     1    1
     9     1     2   ar
    10     2     3   ar
    11     3     4   ar
    12     4     7    1
    13     7     9    1
    14     9    10   ar
    15    10    11   ar
    16    11    12   ar
    17    12    13   ar
    18    13    14   ar
    19     4     5   ar
    20     5     6   ar
    21    15    16    1
    22    16    17   ar
    23    17    18   ar
    24    18    19   ar
    25    19    20   ar
    26     6     1   ar
    27    20    16   ar
    28    14     9   ar
    29     7     8    1
@<TRIPOS>MOLECULE
*****
 27 29 0 0 0
SMALL
GASTEIGER

@<TRIPOS>ATOM
      1 C           2.6823   -0.0588   20.2057 C.ar    1  UNL1        0.0005
      2 C           1.3003   -0.6415   20.1865 C.ar    1  UNL1       -0.0011
      3 C           0.1227    0.2084   20.5616 C.ar    1  UNL1        0.0143
      4 C           0.3271    1.6412   20.9559 C.ar    1  UNL1        0.0483
      5 C           1.7091    2.2239   20.9752 C.ar    1  UNL1        0.0143
      6 C           2.8867    1.3740   20.6001 C.ar    1  UNL1       -0.0011
      7 N          -0.8506    2.4911   21.3310 N.pl3   1  UNL1       -0.3125
      8 H          -1.0562    2.6565   22.2795 H       1  UNL1        0.1522
      9 C          -1.7151    3.0892   20.2610 C.ar    1  UNL1        0.0483
     10 C          -1.0966    3.5878   18.9886 C.ar    1  UNL1        0.0146
     11 C          -1.9612    4.1858   17.9186 C.ar    1  UNL1        0.0013
     12 C          -3.4441    4.2852   18.1209 C.ar    1  UNL1        0.0001
     13 C          -4.0626    3.7866   19.3933 C.ar    1  UNL1        0.0013
     14 C          -3.1981    3.1886   20.4633 C.ar    1  UNL1        0.0146
     15 C           3.8600   -0.9087   19.8306 C.3     1  UNL1        0.1390
     16 N           4.1119   -2.2008   20.5499 N.ar    1  UNL1       -0.2273
     17 C           4.1445   -3.5648   19.9268 C.ar    1  UNL1        0.1975
     18 N           4.4281   -4.5627   21.0103 N.ar    1  UNL1       -0.2007
     19 C           4.5707   -3.8153   22.3030 C.ar    1  UNL1        0.2210
     20 N           4.3752   -2.3556   22.0184 N.ar    1  UNL1       -0.1449
     21 C           4.7858   -0.4667   18.7364 C.3     1  UNL1        0.1141
     22 C           3.6933   -0.6715   17.7293 C.3     1  UNL1        0.0134
     23 C           5.8784   -0.2618   19.7435 C.3     1  UNL1        0.0134
     24 C           5.7117   -0.0246   17.6421 C.2     1  UNL1        0.3182
     25 O           6.7028   -0.9899   17.0627 O.2     1  UNL1       -0.2501
     26 C           6.9048    2.1845   16.9741 C.3     1  UNL1        0.2556
     27 O           5.6464    1.3828   17.1274 O.3     1  UNL1       -0.4444
@<TRIPOS>BOND
     1    26    27    1
     2    27    24    1
     3    24    25    2
     4    24    21    1
     5    21    22    1
     6    21    23    1
     7    21    15    1
     8    15     1    1
     9     1     2   ar
    10     2     3   ar
    11     3     4   ar
    12     4     7    1
    13     7     9    1
    14     9    10   ar
    15    10    11   ar
    16    11    12   ar
    17    12    13   ar
    18    13    14   ar
    19     4     5   ar
    20     5     6   ar
    21    15    16    1
    22    16    17   ar
    23    17    18   ar
    24    18    19   ar
    25    19    20   ar
    26     6     1   ar
    27    20    16   ar
    28    14     9   ar
    29     7     8    1
