@<TRIPOS>MOLECULE
*****
 23 25 0 0 0
SMALL
GASTEIGER

@<TRIPOS>ATOM
      1 C          -3.2520  -18.0836   22.2199 C.3     1  UNL1        0.0952
      2 C          -3.4978  -16.9842   23.2102 C.3     1  UNL1        0.0245
      3 C          -4.8904  -16.7088   23.6948 C.3     1  UNL1        0.0067
      4 C          -6.0372  -17.5328   23.1890 C.3     1  UNL1        0.0263
      5 C          -5.7914  -18.6322   22.1987 C.ar    1  UNL1       -0.0216
      6 C          -6.9383  -19.4562   21.6929 C.ar    1  UNL1        0.0150
      7 C          -6.6925  -20.5557   20.7025 C.ar    1  UNL1        0.0985
      8 N          -5.2999  -20.8311   20.2180 N.ar    1  UNL1       -0.2426
      9 C          -4.1531  -20.0071   20.7237 C.ar    1  UNL1        0.0959
     10 C          -4.3988  -18.9076   21.7141 C.ar    1  UNL1        0.0107
     11 C          -8.3309  -19.1808   22.1774 C.ar    1  UNL1        0.0012
     12 C          -9.1444  -18.0923   21.5424 C.ar    1  UNL1        0.0007
     13 C         -10.5370  -17.8169   22.0269 C.ar    1  UNL1        0.0103
     14 C         -11.1160  -18.6299   23.1466 C.ar    1  UNL1        0.0684
     15 C         -10.3025  -19.7185   23.7817 C.ar    1  UNL1        0.0103
     16 C          -8.9099  -19.9939   23.2971 C.ar    1  UNL1        0.0007
     17 C         -12.5086  -18.3545   23.6311 C.1     1  UNL1        0.1004
     18 N         -13.9012  -18.0790   24.1157 N.1     1  UNL1       -0.1908
     19 C           0.0141  -18.0277   19.9661 C.3     1  UNL1        0.0946
     20 C          -1.3785  -17.7522   20.4507 C.2     1  UNL1        0.2232
     21 O          -2.2903  -16.8698   19.6505 O.2     1  UNL1       -0.2751
     22 N          -1.8594  -18.3591   21.7353 N.am    1  UNL1       -0.3021
     23 H          -1.2610  -18.9382   22.2605 H       1  UNL1        0.1497
@<TRIPOS>BOND
     1    19    20    1
     2    20    21    2
     3    20    22   am
     4    22     1    1
     5     1     2    1
     6     2     3    1
     7     3     4    1
     8     4     5    1
     9     5     6   ar
    10     6    11    1
    11    11    12   ar
    12    12    13   ar
    13    13    14   ar
    14    14    17    1
    15    17    18    3
    16    14    15   ar
    17    15    16   ar
    18     6     7   ar
    19     7     8   ar
    20     8     9   ar
    21     9    10   ar
    22    10     1    1
    23    10     5   ar
    24    16    11   ar
    25    22    23    1
@<TRIPOS>MOLECULE
*****
 23 25 0 0 0
SMALL
GASTEIGER

@<TRIPOS>ATOM
      1 C          -4.1216  -19.3990   21.0758 C.3     1  UNL1        0.0952
      2 C          -4.8779  -20.4842   20.3684 C.3     1  UNL1        0.0245
      3 C          -6.3620  -20.6047   20.5496 C.3     1  UNL1        0.0067
      4 C          -7.0899  -19.6401   21.4382 C.3     1  UNL1        0.0263
      5 C          -6.3336  -18.5550   22.1457 C.ar    1  UNL1       -0.0216
      6 C          -7.0615  -17.5903   23.0344 C.ar    1  UNL1        0.0150
      7 C          -6.3052  -16.5052   23.7418 C.ar    1  UNL1        0.0985
      8 N          -4.8211  -16.3847   23.5606 N.ar    1  UNL1       -0.2426
      9 C          -4.0932  -17.3492   22.6719 C.ar    1  UNL1        0.0959
     10 C          -4.8495  -18.4345   21.9645 C.ar    1  UNL1        0.0107
     11 C          -8.5456  -17.7109   23.2156 C.ar    1  UNL1        0.0012
     12 C          -9.1020  -18.6580   24.2370 C.ar    1  UNL1        0.0007
     13 C         -10.5861  -18.7786   24.4182 C.ar    1  UNL1        0.0103
     14 C         -11.5139  -17.9520   23.5780 C.ar    1  UNL1        0.0684
     15 C         -10.9575  -17.0048   22.5565 C.ar    1  UNL1        0.0103
     16 C          -9.4734  -16.8842   22.3753 C.ar    1  UNL1        0.0007
     17 C         -12.9980  -18.0725   23.7592 C.1     1  UNL1        0.1004
     18 N         -14.4821  -18.1931   23.9404 N.1     1  UNL1       -0.1908
     19 C          -0.5944  -18.1489   19.7546 C.3     1  UNL1        0.0946
     20 C          -2.0785  -18.2695   19.9358 C.2     1  UNL1        0.2232
     21 O          -3.0036  -17.3810   19.1581 O.2     1  UNL1       -0.2751
     22 N          -2.6375  -19.2785   20.8946 N.am    1  UNL1       -0.3021
     23 H          -2.0303  -19.8616   21.4050 H       1  UNL1        0.1497
@<TRIPOS>BOND
     1    19    20    1
     2    20    21    2
     3    20    22   am
     4    22     1    1
     5     1     2    1
     6     2     3    1
     7     3     4    1
     8     4     5    1
     9     5     6   ar
    10     6    11    1
    11    11    12   ar
    12    12    13   ar
    13    13    14   ar
    14    14    17    1
    15    17    18    3
    16    14    15   ar
    17    15    16   ar
    18     6     7   ar
    19     7     8   ar
    20     8     9   ar
    21     9    10   ar
    22    10     1    1
    23    10     5   ar
    24    16    11   ar
    25    22    23    1
@<TRIPOS>MOLECULE
*****
 23 25 0 0 0
SMALL
GASTEIGER

@<TRIPOS>ATOM
      1 C         -10.1715  -17.2095   23.0086 C.3     1  UNL1        0.0952
      2 C          -9.3461  -16.3199   23.8901 C.3     1  UNL1        0.0245
      3 C          -7.8535  -16.2951   23.7437 C.3     1  UNL1        0.0067
      4 C          -7.1863  -17.1600   22.7158 C.3     1  UNL1        0.0263
      5 C          -8.0117  -18.0496   21.8342 C.ar    1  UNL1       -0.0216
      6 C          -7.3445  -18.9146   20.8062 C.ar    1  UNL1        0.0150
      7 C          -8.1699  -19.8042   19.9246 C.ar    1  UNL1        0.0985
      8 N          -9.6625  -19.8290   20.0710 N.ar    1  UNL1       -0.2426
      9 C         -10.3297  -18.9641   21.0990 C.ar    1  UNL1        0.0959
     10 C          -9.5043  -18.0744   21.9806 C.ar    1  UNL1        0.0107
     11 C          -5.8518  -18.8898   20.6598 C.ar    1  UNL1        0.0012
     12 C          -4.9771  -19.1623   21.8474 C.ar    1  UNL1        0.0007
     13 C          -3.4845  -19.1376   21.7010 C.ar    1  UNL1        0.0103
     14 C          -2.8666  -18.8403   20.3670 C.ar    1  UNL1        0.0684
     15 C          -3.7413  -18.5678   19.1792 C.ar    1  UNL1        0.0103
     16 C          -5.2339  -18.5925   19.3256 C.ar    1  UNL1        0.0007
     17 C          -1.3739  -18.8155   20.2206 C.1     1  UNL1        0.1004
     18 N           0.1187  -18.7908   20.0742 N.1     1  UNL1       -0.1908
     19 C         -13.8049  -18.2630   24.2080 C.3     1  UNL1        0.0946
     20 C         -12.3123  -18.2382   24.0616 C.2     1  UNL1        0.2232
     21 O         -11.4678  -19.2175   24.8218 O.2     1  UNL1       -0.2751
     22 N         -11.6642  -17.2343   23.1550 N.am    1  UNL1       -0.3021
     23 H         -12.2184  -16.5916   22.6560 H       1  UNL1        0.1497
@<TRIPOS>BOND
     1    19    20    1
     2    20    21    2
     3    20    22   am
     4    22     1    1
     5     1     2    1
     6     2     3    1
     7     3     4    1
     8     4     5    1
     9     5     6   ar
    10     6    11    1
    11    11    12   ar
    12    12    13   ar
    13    13    14   ar
    14    14    17    1
    15    17    18    3
    16    14    15   ar
    17    15    16   ar
    18     6     7   ar
    19     7     8   ar
    20     8     9   ar
    21     9    10   ar
    22    10     1    1
    23    10     5   ar
    24    16    11   ar
    25    22    23    1
@<TRIPOS>MOLECULE
*****
 23 25 0 0 0
SMALL
GASTEIGER

@<TRIPOS>ATOM
      1 C         -10.1705  -17.4815   23.4051 C.3     1  UNL1        0.0952
      2 C          -9.8365  -16.1044   22.9133 C.3     1  UNL1        0.0245
      3 C          -8.5180  -15.8452   22.2467 C.3     1  UNL1        0.0067
      4 C          -7.5334  -16.9632   22.0720 C.3     1  UNL1        0.0263
      5 C          -7.8673  -18.3404   22.5638 C.ar    1  UNL1       -0.0216
      6 C          -6.8827  -19.4585   22.3891 C.ar    1  UNL1        0.0150
      7 C          -7.2166  -20.8356   22.8810 C.ar    1  UNL1        0.0985
      8 N          -8.5351  -21.0947   23.5476 N.ar    1  UNL1       -0.2426
      9 C          -9.5198  -19.9767   23.7223 C.ar    1  UNL1        0.0959
     10 C          -9.1859  -18.5995   23.2304 C.ar    1  UNL1        0.0107
     11 C          -5.5642  -19.1993   21.7226 C.ar    1  UNL1        0.0012
     12 C          -5.4319  -19.3538   20.2364 C.ar    1  UNL1        0.0007
     13 C          -4.1133  -19.0947   19.5699 C.ar    1  UNL1        0.0103
     14 C          -2.9271  -18.6811   20.3894 C.ar    1  UNL1        0.0684
     15 C          -3.0593  -18.5266   21.8756 C.ar    1  UNL1        0.0103
     16 C          -4.3779  -18.7857   22.5422 C.ar    1  UNL1        0.0007
     17 C          -1.6086  -18.4220   19.7228 C.1     1  UNL1        0.1004
     18 N          -0.2900  -18.1628   19.0562 N.1     1  UNL1       -0.1908
     19 C         -14.0573  -18.1001   23.9149 C.3     1  UNL1        0.0946
     20 C         -12.7388  -17.8409   23.2483 C.2     1  UNL1        0.2232
     21 O         -12.6700  -17.6821   21.7583 O.2     1  UNL1       -0.2751
     22 N         -11.4890  -17.7406   24.0717 N.am    1  UNL1       -0.3021
     23 H         -11.5341  -17.8448   25.0496 H       1  UNL1        0.1497
@<TRIPOS>BOND
     1    19    20    1
     2    20    21    2
     3    20    22   am
     4    22     1    1
     5     1     2    1
     6     2     3    1
     7     3     4    1
     8     4     5    1
     9     5     6   ar
    10     6    11    1
    11    11    12   ar
    12    12    13   ar
    13    13    14   ar
    14    14    17    1
    15    17    18    3
    16    14    15   ar
    17    15    16   ar
    18     6     7   ar
    19     7     8   ar
    20     8     9   ar
    21     9    10   ar
    22    10     1    1
    23    10     5   ar
    24    16    11   ar
    25    22    23    1
@<TRIPOS>MOLECULE
*****
 23 25 0 0 0
SMALL
GASTEIGER

@<TRIPOS>ATOM
      1 C           5.1237   -2.7440   24.1366 C.3     1  UNL1        0.0952
      2 C           4.7757   -1.5193   24.9298 C.3     1  UNL1        0.0245
      3 C           3.9800   -0.4167   24.2965 C.3     1  UNL1        0.0067
      4 C           3.5323   -0.5387   22.8701 C.3     1  UNL1        0.0263
      5 C           3.8803   -1.7634   22.0770 C.ar    1  UNL1       -0.0216
      6 C           3.4325   -1.8855   20.6505 C.ar    1  UNL1        0.0150
      7 C           3.7806   -3.1101   19.8574 C.ar    1  UNL1        0.0985
      8 N           4.5763   -4.2127   20.4907 N.ar    1  UNL1       -0.2426
      9 C           5.0240   -4.0907   21.9171 C.ar    1  UNL1        0.0959
     10 C           4.6760   -2.8660   22.7103 C.ar    1  UNL1        0.0107
     11 C           2.6368   -0.7829   20.0173 C.ar    1  UNL1        0.0012
     12 C           3.2797    0.1220   19.0084 C.ar    1  UNL1        0.0007
     13 C           2.4840    1.2246   18.3751 C.ar    1  UNL1        0.0103
     14 C           1.0453    1.4224   18.7507 C.ar    1  UNL1        0.0684
     15 C           0.4023    0.5175   19.7597 C.ar    1  UNL1        0.0103
     16 C           1.1981   -0.5851   20.3929 C.ar    1  UNL1        0.0007
     17 C           0.2496    2.5250   18.1175 C.1     1  UNL1        0.1004
     18 N          -0.5462    3.6276   17.4842 N.1     1  UNL1       -0.1908
     19 C           8.2136   -4.9252   25.3387 C.3     1  UNL1        0.0946
     20 C           7.4179   -3.8226   24.7054 C.2     1  UNL1        0.2232
     21 O           8.1206   -2.6959   24.0077 O.2     1  UNL1       -0.2751
     22 N           5.9195   -3.8466   24.7699 N.am    1  UNL1       -0.3021
     23 H           5.4583   -4.5861   25.2279 H       1  UNL1        0.1497
@<TRIPOS>BOND
     1    19    20    1
     2    20    21    2
     3    20    22   am
     4    22     1    1
     5     1     2    1
     6     2     3    1
     7     3     4    1
     8     4     5    1
     9     5     6   ar
    10     6    11    1
    11    11    12   ar
    12    12    13   ar
    13    13    14   ar
    14    14    17    1
    15    17    18    3
    16    14    15   ar
    17    15    16   ar
    18     6     7   ar
    19     7     8   ar
    20     8     9   ar
    21     9    10   ar
    22    10     1    1
    23    10     5   ar
    24    16    11   ar
    25    22    23    1
@<TRIPOS>MOLECULE
*****
 23 25 0 0 0
SMALL
GASTEIGER

@<TRIPOS>ATOM
      1 C           5.7556   -1.7300   20.1397 C.3     1  UNL1        0.0952
      2 C           4.4620   -2.4635   20.3362 C.3     1  UNL1        0.0245
      3 C           4.3896   -3.6116   21.2988 C.3     1  UNL1        0.0067
      4 C           5.6108   -4.0262   22.0649 C.3     1  UNL1        0.0263
      5 C           6.9043   -3.2926   21.8684 C.ar    1  UNL1       -0.0216
      6 C           8.1255   -3.7071   22.6345 C.ar    1  UNL1        0.0150
      7 C           9.4190   -2.9736   22.4381 C.ar    1  UNL1        0.0985
      8 N           9.4914   -1.8255   21.4754 N.ar    1  UNL1       -0.2426
      9 C           8.2703   -1.4109   20.7093 C.ar    1  UNL1        0.0959
     10 C           6.9767   -2.1445   20.9058 C.ar    1  UNL1        0.0107
     11 C           8.0531   -4.8552   23.5972 C.ar    1  UNL1        0.0012
     12 C           7.5219   -4.6395   24.9832 C.ar    1  UNL1        0.0007
     13 C           7.4495   -5.7876   25.9458 C.ar    1  UNL1        0.0103
     14 C           7.9083   -7.1514   25.5224 C.ar    1  UNL1        0.0684
     15 C           8.4395   -7.3673   24.1362 C.ar    1  UNL1        0.0103
     16 C           8.5119   -6.2192   23.1736 C.ar    1  UNL1        0.0007
     17 C           7.8359   -8.2995   26.4850 C.1     1  UNL1        0.1004
     18 N           7.7635   -9.4476   27.4476 N.1     1  UNL1       -0.1908
     19 C           6.4118    0.3461   16.8217 C.3     1  UNL1        0.0946
     20 C           6.3394   -0.8020   17.7843 C.2     1  UNL1        0.2232
     21 O           6.7785   -2.1703   17.3540 O.2     1  UNL1       -0.2751
     22 N           5.8280   -0.5819   19.1771 N.am    1  UNL1       -0.3021
     23 H           5.5398    0.3162   19.4594 H       1  UNL1        0.1497
@<TRIPOS>BOND
     1    19    20    1
     2    20    21    2
     3    20    22   am
     4    22     1    1
     5     1     2    1
     6     2     3    1
     7     3     4    1
     8     4     5    1
     9     5     6   ar
    10     6    11    1
    11    11    12   ar
    12    12    13   ar
    13    13    14   ar
    14    14    17    1
    15    17    18    3
    16    14    15   ar
    17    15    16   ar
    18     6     7   ar
    19     7     8   ar
    20     8     9   ar
    21     9    10   ar
    22    10     1    1
    23    10     5   ar
    24    16    11   ar
    25    22    23    1
@<TRIPOS>MOLECULE
*****
 23 25 0 0 0
SMALL
GASTEIGER

@<TRIPOS>ATOM
      1 C          -5.3726  -16.5221   23.2830 C.3     1  UNL1        0.0952
      2 C          -5.7688  -15.6724   24.4538 C.3     1  UNL1        0.0245
      3 C          -7.1813  -15.7016   24.9578 C.3     1  UNL1        0.0067
      4 C          -8.1975  -16.5805   24.2910 C.3     1  UNL1        0.0263
      5 C          -7.8013  -17.4302   23.1201 C.ar    1  UNL1       -0.0216
      6 C          -8.8176  -18.3091   22.4532 C.ar    1  UNL1        0.0150
      7 C          -8.4214  -19.1588   21.2824 C.ar    1  UNL1        0.0985
      8 N          -7.0090  -19.1296   20.7783 N.ar    1  UNL1       -0.2426
      9 C          -5.9927  -18.2508   21.4452 C.ar    1  UNL1        0.0959
     10 C          -6.3889  -17.4010   22.6161 C.ar    1  UNL1        0.0107
     11 C         -10.2301  -18.3383   22.9573 C.ar    1  UNL1        0.0012
     12 C         -10.5635  -19.0904   24.2115 C.ar    1  UNL1        0.0007
     13 C         -11.9760  -19.1196   24.7155 C.ar    1  UNL1        0.0103
     14 C         -13.0551  -18.3966   23.9653 C.ar    1  UNL1        0.0684
     15 C         -12.7217  -17.6444   22.7110 C.ar    1  UNL1        0.0103
     16 C         -11.3092  -17.6152   22.2070 C.ar    1  UNL1        0.0007
     17 C         -14.4676  -18.4258   24.4693 C.1     1  UNL1        0.1004
     18 N         -15.8801  -18.4549   24.9734 N.1     1  UNL1       -0.1908
     19 C          -1.6647  -17.6640   22.4478 C.3     1  UNL1        0.0946
     20 C          -3.0772  -17.6931   22.9518 C.2     1  UNL1        0.2232
     21 O          -3.6067  -18.9226   23.6288 O.2     1  UNL1       -0.2751
     22 N          -3.9601  -16.4930   22.7789 N.am    1  UNL1       -0.3021
     23 H          -3.6126  -15.6861   22.3346 H       1  UNL1        0.1497
@<TRIPOS>BOND
     1    19    20    1
     2    20    21    2
     3    20    22   am
     4    22     1    1
     5     1     2    1
     6     2     3    1
     7     3     4    1
     8     4     5    1
     9     5     6   ar
    10     6    11    1
    11    11    12   ar
    12    12    13   ar
    13    13    14   ar
    14    14    17    1
    15    17    18    3
    16    14    15   ar
    17    15    16   ar
    18     6     7   ar
    19     7     8   ar
    20     8     9   ar
    21     9    10   ar
    22    10     1    1
    23    10     5   ar
    24    16    11   ar
    25    22    23    1
@<TRIPOS>MOLECULE
*****
 23 25 0 0 0
SMALL
GASTEIGER

@<TRIPOS>ATOM
      1 C          -1.6905    3.5886   22.4711 C.3     1  UNL1        0.0952
      2 C          -0.5389    2.7663   21.9735 C.3     1  UNL1        0.0245
      3 C           0.3068    1.9956   22.9436 C.3     1  UNL1        0.0067
      4 C           0.0009    2.0474   24.4111 C.3     1  UNL1        0.0263
      5 C          -1.1506    2.8698   24.9086 C.ar    1  UNL1       -0.0216
      6 C          -1.4565    2.9215   26.3762 C.ar    1  UNL1        0.0150
      7 C          -2.6081    3.7439   26.8738 C.ar    1  UNL1        0.0985
      8 N          -3.4538    4.5145   25.9037 N.ar    1  UNL1       -0.2426
      9 C          -3.1479    4.4628   24.4362 C.ar    1  UNL1        0.0959
     10 C          -1.9963    3.6404   23.9386 C.ar    1  UNL1        0.0107
     11 C          -0.6108    2.1509   27.3462 C.ar    1  UNL1        0.0012
     12 C           0.6464    2.7593   27.8933 C.ar    1  UNL1        0.0007
     13 C           1.4921    1.9886   28.8633 C.ar    1  UNL1        0.0103
     14 C           1.0805    0.6096   29.2863 C.ar    1  UNL1        0.0684
     15 C          -0.1767    0.0012   28.7393 C.ar    1  UNL1        0.0103
     16 C          -1.0224    0.7718   27.7692 C.ar    1  UNL1        0.0007
     17 C           1.9262   -0.1610   30.2563 C.1     1  UNL1        0.1004
     18 N           2.7719   -0.9316   31.2263 N.1     1  UNL1       -0.1908
     19 C          -4.7105    4.5855   20.0971 C.3     1  UNL1        0.0946
     20 C          -3.8648    3.8149   21.0672 C.2     1  UNL1        0.2232
     21 O          -4.3478    2.4998   21.6033 O.2     1  UNL1       -0.2751
     22 N          -2.5362    4.3593   21.5010 N.am    1  UNL1       -0.3021
     23 H          -2.2192    5.2224   21.1492 H       1  UNL1        0.1497
@<TRIPOS>BOND
     1    19    20    1
     2    20    21    2
     3    20    22   am
     4    22     1    1
     5     1     2    1
     6     2     3    1
     7     3     4    1
     8     4     5    1
     9     5     6   ar
    10     6    11    1
    11    11    12   ar
    12    12    13   ar
    13    13    14   ar
    14    14    17    1
    15    17    18    3
    16    14    15   ar
    17    15    16   ar
    18     6     7   ar
    19     7     8   ar
    20     8     9   ar
    21     9    10   ar
    22    10     1    1
    23    10     5   ar
    24    16    11   ar
    25    22    23    1
@<TRIPOS>MOLECULE
*****
 23 25 0 0 0
SMALL
GASTEIGER

@<TRIPOS>ATOM
      1 C           2.4837   -1.2191   20.4496 C.3     1  UNL1        0.0952
      2 C           1.4180   -0.4824   19.6936 C.3     1  UNL1        0.0245
      3 C           0.5960    0.5648   20.3847 C.3     1  UNL1        0.0067
      4 C           0.8396    0.8753   21.8318 C.3     1  UNL1        0.0263
      5 C           1.9053    0.1387   22.5878 C.ar    1  UNL1       -0.0216
      6 C           2.1490    0.4492   24.0350 C.ar    1  UNL1        0.0150
      7 C           3.2147   -0.2875   24.7910 C.ar    1  UNL1        0.0985
      8 N           4.0367   -1.3347   24.0999 N.ar    1  UNL1       -0.2426
      9 C           3.7931   -1.6452   22.6528 C.ar    1  UNL1        0.0959
     10 C           2.7274   -0.9085   21.8967 C.ar    1  UNL1        0.0107
     11 C           1.3270    1.4964   24.7261 C.ar    1  UNL1        0.0012
     12 C           1.8052    2.9174   24.7696 C.ar    1  UNL1        0.0007
     13 C           0.9832    3.9646   25.4607 C.ar    1  UNL1        0.0103
     14 C          -0.3171    3.5908   26.1083 C.ar    1  UNL1        0.0684
     15 C          -0.7954    2.1697   26.0648 C.ar    1  UNL1        0.0103
     16 C           0.0266    1.1225   25.3738 C.ar    1  UNL1        0.0007
     17 C          -1.1391    4.6380   26.7994 C.1     1  UNL1        0.1004
     18 N          -1.9612    5.6852   27.4905 N.1     1  UNL1       -0.1908
     19 C           5.3215   -2.9128   18.2523 C.3     1  UNL1        0.0946
     20 C           4.4995   -1.8656   18.9434 C.2     1  UNL1        0.2232
     21 O           4.8712   -0.4177   18.8194 O.2     1  UNL1       -0.2751
     22 N           3.3058   -2.2663   19.7585 N.am    1  UNL1       -0.3021
     23 H           3.0618   -3.2166   19.8399 H       1  UNL1        0.1497
@<TRIPOS>BOND
     1    19    20    1
     2    20    21    2
     3    20    22   am
     4    22     1    1
     5     1     2    1
     6     2     3    1
     7     3     4    1
     8     4     5    1
     9     5     6   ar
    10     6    11    1
    11    11    12   ar
    12    12    13   ar
    13    13    14   ar
    14    14    17    1
    15    17    18    3
    16    14    15   ar
    17    15    16   ar
    18     6     7   ar
    19     7     8   ar
    20     8     9   ar
    21     9    10   ar
    22    10     1    1
    23    10     5   ar
    24    16    11   ar
    25    22    23    1
