@<TRIPOS>MOLECULE
*****
 30 34 0 0 0
SMALL
GASTEIGER

@<TRIPOS>ATOM
      1 C         -13.6047  -18.1639   22.4272 C.3     1  UNL1        0.0950
      2 C         -12.1557  -17.8795   22.6906 C.ar    1  UNL1        0.2063
      3 N         -11.6155  -16.9531   23.7394 N.ar    1  UNL1       -0.2072
      4 C         -10.1183  -16.9726   23.6485 C.ar    1  UNL1        0.1744
      5 C          -9.0560  -16.2570   24.4292 C.ar    1  UNL1        0.2816
      6 O          -9.4411  -15.3186   25.5342 O.2     1  UNL1       -0.2652
      7 N          -7.6085  -16.4799   24.1048 N.ar    1  UNL1       -0.2951
      8 C          -7.2234  -17.4184   22.9998 C.ar    1  UNL1        0.0773
      9 C          -5.7760  -17.6413   22.6755 C.ar    1  UNL1        0.0890
     10 CL         -4.7137  -16.9257   23.4561 Cl      1  UNL1       -0.0794
     11 C          -5.3909  -18.5797   21.5705 C.ar    1  UNL1        0.0878
     12 C          -6.4532  -19.2953   20.7898 C.ar    1  UNL1        0.1543
     13 F          -6.0681  -20.2337   19.6848 F       1  UNL1       -0.2028
     14 C          -7.9007  -19.0724   21.1142 C.ar    1  UNL1        0.0355
     15 C          -8.2858  -18.1339   22.2192 C.ar    1  UNL1        0.0553
     16 C          -9.7332  -17.9110   22.5435 C.ar    1  UNL1        0.1705
     17 O         -10.9924  -18.4715   21.9515 O.2     1  UNL1       -0.4382
     18 N          -3.9435  -18.8026   21.2461 N.pl3   1  UNL1       -0.3050
     19 C          -3.0612  -19.8634   21.8346 C.3     1  UNL1        0.0910
     20 C          -1.6966  -19.7203   21.2285 C.3     1  UNL1        0.0244
     21 C          -1.7355  -18.5709   20.2654 C.3     1  UNL1        0.0357
     22 C          -3.1241  -18.0038   20.2762 C.3     1  UNL1        0.0922
     23 C          -0.5874  -18.0757   19.4369 C.3     1  UNL1        0.0525
     24 C           0.7337  -17.7836   20.0844 C.3     1  UNL1        0.0169
     25 N          -0.7603  -17.8727   17.9608 N.3     1  UNL1       -0.3221
     26 H           0.1145  -17.5352   17.5592 H       1  UNL1        0.1188
     27 H          -1.4970  -17.1867   17.7959 H       1  UNL1        0.1188
     28 C          -6.5462  -15.7644   24.8855 C.3     1  UNL1        0.0886
     29 C          -5.4275  -14.7669   24.9448 C.3     1  UNL1        0.0246
     30 C          -5.8249  -15.5224   26.1782 C.3     1  UNL1        0.0246
@<TRIPOS>BOND
     1     1     2    1
     2     2     3   ar
     3     3     4   ar
     4     4     5   ar
     5     5     6    2
     6     5     7   ar
     7     7    28    1
     8    28    29    1
     9    29    30    1
    10     7     8   ar
    11     8     9   ar
    12     9    10    1
    13     9    11   ar
    14    11    18    1
    15    18    19    1
    16    19    20    1
    17    21    20    1
    18    21    23    1
    19    23    24    1
    20    23    25    1
    21    21    22    1
    22    11    12   ar
    23    12    13    1
    24    12    14   ar
    25    14    15   ar
    26    15    16   ar
    27    16    17   ar
    28    17     2   ar
    29    16     4   ar
    30    30    28    1
    31    15     8   ar
    32    22    18    1
    33    25    26    1
    34    25    27    1
@<TRIPOS>MOLECULE
*****
 30 34 0 0 0
SMALL
GASTEIGER

@<TRIPOS>ATOM
      1 C           5.8401   -2.1824   32.3091 C.3     1  UNL1        0.0950
      2 C           6.1560   -2.8180   30.9877 C.ar    1  UNL1        0.2063
      3 N           6.8244   -4.1455   30.7851 N.ar    1  UNL1       -0.2072
      4 C           6.9404   -4.3856   29.3090 C.ar    1  UNL1        0.1744
      5 C           7.5123   -5.5256   28.5194 C.ar    1  UNL1        0.2816
      6 O           8.1089   -6.7047   29.2292 O.2     1  UNL1       -0.2652
      7 N           7.4875   -5.4865   27.0201 N.ar    1  UNL1       -0.2951
      8 C           6.8908   -4.3074   26.3104 C.ar    1  UNL1        0.0773
      9 C           6.8661   -4.2682   24.8111 C.ar    1  UNL1        0.0890
     10 CL          7.4379   -5.4082   24.0216 Cl      1  UNL1       -0.0794
     11 C           6.2694   -3.0891   24.1014 C.ar    1  UNL1        0.0878
     12 C           5.6975   -1.9492   24.8909 C.ar    1  UNL1        0.1543
     13 F           5.1009   -0.7701   24.1812 F       1  UNL1       -0.2028
     14 C           5.7223   -1.9883   26.3903 C.ar    1  UNL1        0.0355
     15 C           6.3190   -3.1674   27.1000 C.ar    1  UNL1        0.0553
     16 C           6.3437   -3.2065   28.5992 C.ar    1  UNL1        0.1705
     17 O           5.8590   -2.2377   29.6367 O.2     1  UNL1       -0.4382
     18 N           6.2446   -3.0500   22.6021 N.pl3   1  UNL1       -0.3050
     19 C           7.3579   -2.5791   21.7139 C.3     1  UNL1        0.0910
     20 C           6.9035   -2.7130   20.2906 C.3     1  UNL1        0.0244
     21 C           5.5094   -3.2666   20.2992 C.3     1  UNL1        0.0357
     22 C           5.1022   -3.4749   21.7278 C.3     1  UNL1        0.0922
     23 C           4.6699   -3.5603   19.0914 C.3     1  UNL1        0.0525
     24 C           3.5449   -4.5483   19.1822 C.3     1  UNL1        0.0169
     25 N           4.9554   -2.8661   17.7927 N.3     1  UNL1       -0.3221
     26 H           4.2930   -3.1832   17.0849 H       1  UNL1        0.1188
     27 H           5.9052   -3.0850   17.4919 H       1  UNL1        0.1188
     28 C           8.0594   -6.6264   26.2306 C.3     1  UNL1        0.0886
     29 C           9.2321   -7.2932   25.5748 C.3     1  UNL1        0.0246
     30 C           7.8772   -7.9342   25.5189 C.3     1  UNL1        0.0246
@<TRIPOS>BOND
     1     1     2    1
     2     2     3   ar
     3     3     4   ar
     4     4     5   ar
     5     5     6    2
     6     5     7   ar
     7     7    28    1
     8    28    29    1
     9    29    30    1
    10     7     8   ar
    11     8     9   ar
    12     9    10    1
    13     9    11   ar
    14    11    18    1
    15    18    19    1
    16    19    20    1
    17    21    20    1
    18    21    23    1
    19    23    24    1
    20    23    25    1
    21    21    22    1
    22    11    12   ar
    23    12    13    1
    24    12    14   ar
    25    14    15   ar
    26    15    16   ar
    27    16    17   ar
    28    17     2   ar
    29    16     4   ar
    30    30    28    1
    31    15     8   ar
    32    22    18    1
    33    25    26    1
    34    25    27    1
@<TRIPOS>MOLECULE
*****
 30 34 0 0 0
SMALL
GASTEIGER

@<TRIPOS>ATOM
      1 C           4.8736   -4.0066   18.6090 C.3     1  UNL1        0.0950
      2 C           4.9743   -3.6782   20.0691 C.ar    1  UNL1        0.2063
      3 N           4.2028   -2.6117   20.7883 N.ar    1  UNL1       -0.2072
      4 C           4.6159   -2.6330   22.2301 C.ar    1  UNL1        0.1744
      5 C           4.1897   -1.8088   23.4086 C.ar    1  UNL1        0.2816
      6 O           3.1628   -0.7291   23.2366 O.2     1  UNL1       -0.2652
      7 N           4.7905   -2.0642   24.7591 N.ar    1  UNL1       -0.2951
      8 C           5.8175   -3.1439   24.9311 C.ar    1  UNL1        0.0773
      9 C           6.4183   -3.3994   26.2815 C.ar    1  UNL1        0.0890
     10 CL          5.9921   -2.5751   27.4600 Cl      1  UNL1       -0.0794
     11 C           7.4453   -4.4791   26.4535 C.ar    1  UNL1        0.0878
     12 C           7.8715   -5.3033   25.2750 C.ar    1  UNL1        0.1543
     13 F           8.8984   -6.3830   25.4469 F       1  UNL1       -0.2028
     14 C           7.2707   -5.0479   23.9244 C.ar    1  UNL1        0.0355
     15 C           6.2437   -3.9682   23.7525 C.ar    1  UNL1        0.0553
     16 C           5.6429   -3.7127   22.4020 C.ar    1  UNL1        0.1705
     17 O           5.8644   -4.3587   21.0665 O.2     1  UNL1       -0.4382
     18 N           8.0460   -4.7345   27.8039 N.pl3   1  UNL1       -0.3050
     19 C           9.3119   -4.1296   28.3345 C.3     1  UNL1        0.0910
     20 C           9.5347   -4.6610   29.7195 C.3     1  UNL1        0.0244
     21 C           8.4064   -5.5944   30.0448 C.3     1  UNL1        0.0357
     22 C           7.4864   -5.6398   28.8610 C.3     1  UNL1        0.0922
     23 C           8.2292   -6.3497   31.3286 C.3     1  UNL1        0.0525
     24 C           9.3378   -7.2165   31.8479 C.3     1  UNL1        0.0169
     25 N           6.9435   -6.2382   32.0930 N.3     1  UNL1       -0.3221
     26 H           6.9969   -6.8134   32.9337 H       1  UNL1        0.1188
     27 H           6.1717   -6.5604   31.5091 H       1  UNL1        0.1188
     28 C           4.3643   -1.2400   25.9376 C.3     1  UNL1        0.0886
     29 C           4.4940    0.0013   26.7698 C.3     1  UNL1        0.0246
     30 C           3.4965   -1.0536   27.1468 C.3     1  UNL1        0.0246
@<TRIPOS>BOND
     1     1     2    1
     2     2     3   ar
     3     3     4   ar
     4     4     5   ar
     5     5     6    2
     6     5     7   ar
     7     7    28    1
     8    28    29    1
     9    29    30    1
    10     7     8   ar
    11     8     9   ar
    12     9    10    1
    13     9    11   ar
    14    11    18    1
    15    18    19    1
    16    19    20    1
    17    21    20    1
    18    21    23    1
    19    23    24    1
    20    23    25    1
    21    21    22    1
    22    11    12   ar
    23    12    13    1
    24    12    14   ar
    25    14    15   ar
    26    15    16   ar
    27    16    17   ar
    28    17     2   ar
    29    16     4   ar
    30    30    28    1
    31    15     8   ar
    32    22    18    1
    33    25    26    1
    34    25    27    1
@<TRIPOS>MOLECULE
*****
 30 34 0 0 0
SMALL
GASTEIGER

@<TRIPOS>ATOM
      1 C           1.9225   -0.6478   20.0555 C.3     1  UNL1        0.0950
      2 C           2.9435   -1.3441   20.9057 C.ar    1  UNL1        0.2063
      3 N           3.9780   -2.3168   20.4223 N.ar    1  UNL1       -0.2072
      4 C           4.7830   -2.7639   21.6064 C.ar    1  UNL1        0.1744
      5 C           5.9356   -3.7151   21.7351 C.ar    1  UNL1        0.2816
      6 O           6.4726   -4.4115   20.5199 O.2     1  UNL1       -0.2652
      7 N           6.5513   -3.9700   23.0790 N.ar    1  UNL1       -0.2951
      8 C           6.0143   -3.2736   24.2942 C.ar    1  UNL1        0.0773
      9 C           6.6299   -3.5285   25.6381 C.ar    1  UNL1        0.0890
     10 CL          7.7825   -4.4797   25.7667 Cl      1  UNL1       -0.0794
     11 C           6.0929   -2.8321   26.8533 C.ar    1  UNL1        0.0878
     12 C           4.9403   -1.8809   26.7246 C.ar    1  UNL1        0.1543
     13 F           4.4033   -1.1846   27.9398 F       1  UNL1       -0.2028
     14 C           4.3246   -1.6260   25.3807 C.ar    1  UNL1        0.0355
     15 C           4.8616   -2.3224   24.1655 C.ar    1  UNL1        0.0553
     16 C           4.2460   -2.0675   22.8216 C.ar    1  UNL1        0.1705
     17 O           3.1091   -1.1901   22.3885 O.2     1  UNL1       -0.4382
     18 N           6.7085   -3.0870   28.1971 N.pl3   1  UNL1       -0.3050
     19 C           7.6077   -2.1494   28.9472 C.3     1  UNL1        0.0910
     20 C           7.9880   -2.8072   30.2406 C.3     1  UNL1        0.0244
     21 C           7.3238   -4.1513   30.2899 C.3     1  UNL1        0.0357
     22 C           6.5331   -4.3242   29.0270 C.3     1  UNL1        0.0922
     23 C           7.4315   -5.1475   31.4060 C.3     1  UNL1        0.0525
     24 C           8.5453   -6.1522   31.4097 C.3     1  UNL1        0.0169
     25 N           6.4254   -5.1391   32.5185 N.3     1  UNL1       -0.3221
     26 H           6.6495   -5.8778   33.1852 H       1  UNL1        0.1188
     27 H           5.4936   -5.2980   32.1354 H       1  UNL1        0.1188
     28 C           7.7039   -4.9212   23.2077 C.3     1  UNL1        0.0886
     29 C           9.1741   -5.2016   23.1081 C.3     1  UNL1        0.0246
     30 C           8.2302   -6.2883   23.5301 C.3     1  UNL1        0.0246
@<TRIPOS>BOND
     1     1     2    1
     2     2     3   ar
     3     3     4   ar
     4     4     5   ar
     5     5     6    2
     6     5     7   ar
     7     7    28    1
     8    28    29    1
     9    29    30    1
    10     7     8   ar
    11     8     9   ar
    12     9    10    1
    13     9    11   ar
    14    11    18    1
    15    18    19    1
    16    19    20    1
    17    21    20    1
    18    21    23    1
    19    23    24    1
    20    23    25    1
    21    21    22    1
    22    11    12   ar
    23    12    13    1
    24    12    14   ar
    25    14    15   ar
    26    15    16   ar
    27    16    17   ar
    28    17     2   ar
    29    16     4   ar
    30    30    28    1
    31    15     8   ar
    32    22    18    1
    33    25    26    1
    34    25    27    1
@<TRIPOS>MOLECULE
*****
 30 34 0 0 0
SMALL
GASTEIGER

@<TRIPOS>ATOM
      1 C          -5.2603    4.2037   25.1834 C.3     1  UNL1        0.0950
      2 C          -4.5064    4.0901   23.8916 C.ar    1  UNL1        0.2063
      3 N          -5.0102    4.4951   22.5381 N.ar    1  UNL1       -0.2072
      4 C          -3.9315    4.2068   21.5365 C.ar    1  UNL1        0.1744
      5 C          -3.8639    4.4001   20.0506 C.ar    1  UNL1        0.2816
      6 O          -5.0345    4.9833   19.3160 O.2     1  UNL1       -0.2652
      7 N          -2.6256    4.0100   19.2990 N.ar    1  UNL1       -0.2951
      8 C          -1.4550    3.4268   20.0336 C.ar    1  UNL1        0.0773
      9 C          -0.2168    3.0368   19.2821 C.ar    1  UNL1        0.0890
     10 CL         -0.1492    3.2300   17.7962 Cl      1  UNL1       -0.0794
     11 C           0.9538    2.4536   20.0167 C.ar    1  UNL1        0.0878
     12 C           0.8862    2.2603   21.5026 C.ar    1  UNL1        0.1543
     13 F           2.0568    1.6771   22.2371 F       1  UNL1       -0.2028
     14 C          -0.3521    2.6504   22.2541 C.ar    1  UNL1        0.0355
     15 C          -1.5227    3.2336   21.5196 C.ar    1  UNL1        0.0553
     16 C          -2.7609    3.6236   22.2710 C.ar    1  UNL1        0.1705
     17 O          -3.1162    3.5514   23.7265 O.2     1  UNL1       -0.4382
     18 N           2.1920    2.0635   19.2652 N.pl3   1  UNL1       -0.3050
     19 C           3.3700    2.9494   18.9865 C.3     1  UNL1        0.0910
     20 C           4.3757    2.1525   18.2095 C.3     1  UNL1        0.0244
     21 C           3.8193    0.7741   18.0081 C.3     1  UNL1        0.0357
     22 C           2.4697    0.7191   18.6606 C.3     1  UNL1        0.0922
     23 C           4.4939   -0.3516   17.2819 C.3     1  UNL1        0.0525
     24 C           5.9521   -0.6221   17.5067 C.3     1  UNL1        0.0169
     25 N           3.7105   -1.2068   16.3307 N.3     1  UNL1       -0.3221
     26 H           4.3224   -1.9175   15.9295 H       1  UNL1        0.1188
     27 H           3.3303   -0.6248   15.5843 H       1  UNL1        0.1188
     28 C          -2.5580    4.2033   17.8131 C.3     1  UNL1        0.0886
     29 C          -2.1403    5.0212   16.6272 C.3     1  UNL1        0.0246
     30 C          -2.8586    3.7200   16.4253 C.3     1  UNL1        0.0246
@<TRIPOS>BOND
     1     1     2    1
     2     2     3   ar
     3     3     4   ar
     4     4     5   ar
     5     5     6    2
     6     5     7   ar
     7     7    28    1
     8    28    29    1
     9    29    30    1
    10     7     8   ar
    11     8     9   ar
    12     9    10    1
    13     9    11   ar
    14    11    18    1
    15    18    19    1
    16    19    20    1
    17    21    20    1
    18    21    23    1
    19    23    24    1
    20    23    25    1
    21    21    22    1
    22    11    12   ar
    23    12    13    1
    24    12    14   ar
    25    14    15   ar
    26    15    16   ar
    27    16    17   ar
    28    17     2   ar
    29    16     4   ar
    30    30    28    1
    31    15     8   ar
    32    22    18    1
    33    25    26    1
    34    25    27    1
@<TRIPOS>MOLECULE
*****
 30 34 0 0 0
SMALL
GASTEIGER

@<TRIPOS>ATOM
      1 C          -3.4921    4.1638   26.6563 C.3     1  UNL1        0.0950
      2 C          -2.2536    3.3690   26.3658 C.ar    1  UNL1        0.2063
      3 N          -1.3072    2.8071   27.3850 N.ar    1  UNL1       -0.2072
      4 C          -0.2127    2.0874   26.6542 C.ar    1  UNL1        0.1744
      5 C           0.9948    1.3406   27.1381 C.ar    1  UNL1        0.2816
      6 O           1.2646    1.2235   28.6090 O.2     1  UNL1       -0.2652
      7 N           1.9325    0.7108   26.1511 N.ar    1  UNL1       -0.2951
      8 C           1.6626    0.8279   24.6802 C.ar    1  UNL1        0.0773
      9 C           2.6003    0.1981   23.6932 C.ar    1  UNL1        0.0890
     10 CL          3.8078   -0.5487   24.1771 Cl      1  UNL1       -0.0794
     11 C           2.3304    0.3152   22.2223 C.ar    1  UNL1        0.0878
     12 C           1.1230    1.0620   21.7385 C.ar    1  UNL1        0.1543
     13 F           0.8531    1.1791   20.2676 F       1  UNL1       -0.2028
     14 C           0.1852    1.6918   22.7255 C.ar    1  UNL1        0.0355
     15 C           0.4551    1.5748   24.1964 C.ar    1  UNL1        0.0553
     16 C          -0.4826    2.2045   25.1833 C.ar    1  UNL1        0.1705
     17 O          -1.7439    2.9966   25.0051 O.2     1  UNL1       -0.4382
     18 N           3.2681   -0.3145   21.2354 N.pl3   1  UNL1       -0.3050
     19 C           4.5638    0.2684   20.7543 C.3     1  UNL1        0.0910
     20 C           5.1712   -0.6946   19.7777 C.3     1  UNL1        0.0244
     21 C           4.2508   -1.8728   19.6552 C.3     1  UNL1        0.0357
     22 C           3.0747   -1.6379   20.5560 C.3     1  UNL1        0.0922
     23 C           4.4684   -3.0747   18.7847 C.3     1  UNL1        0.0525
     24 C           3.6959   -4.3350   19.0394 C.3     1  UNL1        0.0169
     25 N           5.4586   -3.0165   17.6594 N.3     1  UNL1       -0.3221
     26 H           5.4776   -3.9147   17.1764 H       1  UNL1        0.1188
     27 H           6.3855   -2.8113   18.0324 H       1  UNL1        0.1188
     28 C           3.1400   -0.0360   26.6350 C.3     1  UNL1        0.0886
     29 C           3.7798   -1.3121   27.0956 C.3     1  UNL1        0.0246
     30 C           4.5916   -0.0535   27.0125 C.3     1  UNL1        0.0246
@<TRIPOS>BOND
     1     1     2    1
     2     2     3   ar
     3     3     4   ar
     4     4     5   ar
     5     5     6    2
     6     5     7   ar
     7     7    28    1
     8    28    29    1
     9    29    30    1
    10     7     8   ar
    11     8     9   ar
    12     9    10    1
    13     9    11   ar
    14    11    18    1
    15    18    19    1
    16    19    20    1
    17    21    20    1
    18    21    23    1
    19    23    24    1
    20    23    25    1
    21    21    22    1
    22    11    12   ar
    23    12    13    1
    24    12    14   ar
    25    14    15   ar
    26    15    16   ar
    27    16    17   ar
    28    17     2   ar
    29    16     4   ar
    30    30    28    1
    31    15     8   ar
    32    22    18    1
    33    25    26    1
    34    25    27    1
@<TRIPOS>MOLECULE
*****
 30 34 0 0 0
SMALL
GASTEIGER

@<TRIPOS>ATOM
      1 C           8.7470    2.8809   17.0684 C.3     1  UNL1        0.0950
      2 C           8.1237    1.6708   17.6988 C.ar    1  UNL1        0.2063
      3 N           7.0096    0.8501   17.1198 N.ar    1  UNL1       -0.2072
      4 C           6.7025   -0.2589   18.0819 C.ar    1  UNL1        0.1744
      5 C           5.7006   -1.3745   18.0410 C.ar    1  UNL1        0.2816
      6 O           4.7762   -1.5097   16.8674 O.2     1  UNL1       -0.2652
      7 N           5.6230   -2.3549   19.1737 N.ar    1  UNL1       -0.2951
      8 C           6.5474   -2.2197   20.3473 C.ar    1  UNL1        0.0773
      9 C           6.4699   -3.2000   21.4799 C.ar    1  UNL1        0.0890
     10 CL          5.4680   -4.3155   21.4390 Cl      1  UNL1       -0.0794
     11 C           7.3942   -3.0647   22.6535 C.ar    1  UNL1        0.0878
     12 C           8.3961   -1.9492   22.6944 C.ar    1  UNL1        0.1543
     13 F           9.3205   -1.8140   23.8680 F       1  UNL1       -0.2028
     14 C           8.4737   -0.9688   21.5617 C.ar    1  UNL1        0.0355
     15 C           7.5493   -1.1040   20.3882 C.ar    1  UNL1        0.0553
     16 C           7.6269   -0.1237   19.2555 C.ar    1  UNL1        0.1705
     17 O           8.5052    1.0689   19.0187 O.2     1  UNL1       -0.4382
     18 N           7.3167   -4.0451   23.7861 N.pl3   1  UNL1       -0.3050
     19 C           6.6345   -3.8190   25.1028 C.3     1  UNL1        0.0910
     20 C           6.8039   -5.0579   25.9314 C.3     1  UNL1        0.0244
     21 C           7.5909   -6.0496   25.1269 C.3     1  UNL1        0.0357
     22 C           7.9078   -5.4237   23.8011 C.3     1  UNL1        0.0922
     23 C           7.9907   -7.4256   25.5703 C.3     1  UNL1        0.0525
     24 C           9.3671   -7.9402   25.2693 C.3     1  UNL1        0.0169
     25 N           7.0141   -8.2870   26.3148 N.3     1  UNL1       -0.3221
     26 H           7.4502   -9.1821   26.5362 H       1  UNL1        0.1188
     27 H           6.1894   -8.4446   25.7356 H       1  UNL1        0.1188
     28 C           4.6211   -3.4704   19.1328 C.3     1  UNL1        0.0886
     29 C           3.2151   -3.9610   19.3131 C.3     1  UNL1        0.0246
     30 C           4.2918   -4.9121   18.8816 C.3     1  UNL1        0.0246
@<TRIPOS>BOND
     1     1     2    1
     2     2     3   ar
     3     3     4   ar
     4     4     5   ar
     5     5     6    2
     6     5     7   ar
     7     7    28    1
     8    28    29    1
     9    29    30    1
    10     7     8   ar
    11     8     9   ar
    12     9    10    1
    13     9    11   ar
    14    11    18    1
    15    18    19    1
    16    19    20    1
    17    21    20    1
    18    21    23    1
    19    23    24    1
    20    23    25    1
    21    21    22    1
    22    11    12   ar
    23    12    13    1
    24    12    14   ar
    25    14    15   ar
    26    15    16   ar
    27    16    17   ar
    28    17     2   ar
    29    16     4   ar
    30    30    28    1
    31    15     8   ar
    32    22    18    1
    33    25    26    1
    34    25    27    1
@<TRIPOS>MOLECULE
*****
 30 34 0 0 0
SMALL
GASTEIGER

@<TRIPOS>ATOM
      1 C          -3.7472    5.5718   18.1909 C.3     1  UNL1        0.0950
      2 C          -2.8065    4.7641   19.0350 C.ar    1  UNL1        0.2063
      3 N          -2.7814    4.7228   20.5343 N.ar    1  UNL1       -0.2072
      4 C          -1.6851    3.7890   20.9540 C.ar    1  UNL1        0.1744
      5 C          -1.1967    3.3574   22.3050 C.ar    1  UNL1        0.2816
      6 O          -1.8491    3.8933   23.5448 O.2     1  UNL1       -0.2652
      7 N          -0.0557    2.3899   22.4162 N.ar    1  UNL1       -0.2951
      8 C           0.5968    1.8541   21.1764 C.ar    1  UNL1        0.0773
      9 C           1.7376    0.8866   21.2875 C.ar    1  UNL1        0.0890
     10 CL          2.2261    0.4551   22.6385 Cl      1  UNL1       -0.0794
     11 C           2.3901    0.3508   20.0477 C.ar    1  UNL1        0.0878
     12 C           1.9017    0.7824   18.6967 C.ar    1  UNL1        0.1543
     13 F           2.5542    0.2465   17.4569 F       1  UNL1       -0.2028
     14 C           0.7607    1.7498   18.5855 C.ar    1  UNL1        0.0355
     15 C           0.1083    2.2857   19.8253 C.ar    1  UNL1        0.0553
     16 C          -1.0326    3.2531   19.7142 C.ar    1  UNL1        0.1705
     17 O          -1.7257    3.8558   18.5282 O.2     1  UNL1       -0.4382
     18 N           3.5310   -0.6166   20.1588 N.pl3   1  UNL1       -0.3050
     19 C           4.9104   -0.2999   20.6559 C.3     1  UNL1        0.0910
     20 C           5.7248   -1.5583   20.5967 C.3     1  UNL1        0.0244
     21 C           4.8487   -2.6527   20.0630 C.3     1  UNL1        0.0357
     22 C           3.4929   -2.0708   19.7925 C.3     1  UNL1        0.0922
     23 C           5.2567   -4.0786   19.8393 C.3     1  UNL1        0.0525
     24 C           4.4668   -4.9471   18.9056 C.3     1  UNL1        0.0169
     25 N           6.4547   -4.6361   20.5493 N.3     1  UNL1       -0.3221
     26 H           6.5848   -5.6118   20.2818 H       1  UNL1        0.1188
     27 H           6.3108   -4.5763   21.5573 H       1  UNL1        0.1188
     28 C           0.4327    1.9583   23.7671 C.3     1  UNL1        0.0886
     29 C           1.4169    2.0802   24.8926 C.3     1  UNL1        0.0246
     30 C           0.2946    1.0890   24.9817 C.3     1  UNL1        0.0246
@<TRIPOS>BOND
     1     1     2    1
     2     2     3   ar
     3     3     4   ar
     4     4     5   ar
     5     5     6    2
     6     5     7   ar
     7     7    28    1
     8    28    29    1
     9    29    30    1
    10     7     8   ar
    11     8     9   ar
    12     9    10    1
    13     9    11   ar
    14    11    18    1
    15    18    19    1
    16    19    20    1
    17    21    20    1
    18    21    23    1
    19    23    24    1
    20    23    25    1
    21    21    22    1
    22    11    12   ar
    23    12    13    1
    24    12    14   ar
    25    14    15   ar
    26    15    16   ar
    27    16    17   ar
    28    17     2   ar
    29    16     4   ar
    30    30    28    1
    31    15     8   ar
    32    22    18    1
    33    25    26    1
    34    25    27    1
@<TRIPOS>MOLECULE
*****
 30 34 0 0 0
SMALL
GASTEIGER

@<TRIPOS>ATOM
      1 C           6.5705    4.0741   17.4480 C.3     1  UNL1        0.0950
      2 C           6.3162    2.7036   18.0021 C.ar    1  UNL1        0.2063
      3 N           5.5602    1.6028   17.3191 N.ar    1  UNL1       -0.2072
      4 C           5.5500    0.4121   18.2313 C.ar    1  UNL1        0.1744
      5 C           4.9549   -0.9573   18.0877 C.ar    1  UNL1        0.2816
      6 O           4.2053   -1.3223   16.8408 O.2     1  UNL1       -0.2652
      7 N           5.1094   -1.9617   19.1911 N.ar    1  UNL1       -0.2951
      8 C           5.8590   -1.5967   20.4380 C.ar    1  UNL1        0.0773
      9 C           6.0136   -2.6010   21.5413 C.ar    1  UNL1        0.0890
     10 CL          5.4185   -3.9704   21.3977 Cl      1  UNL1       -0.0794
     11 C           6.7632   -2.2360   22.7882 C.ar    1  UNL1        0.0878
     12 C           7.3583   -0.8667   22.9319 C.ar    1  UNL1        0.1543
     13 F           8.1079   -0.5017   24.1788 F       1  UNL1       -0.2028
     14 C           7.2038    0.1378   21.8285 C.ar    1  UNL1        0.0355
     15 C           6.4541   -0.2272   20.5816 C.ar    1  UNL1        0.0553
     16 C           6.2996    0.7771   19.4783 C.ar    1  UNL1        0.1705
     17 O           6.7731    2.1933   19.3366 O.2     1  UNL1       -0.4382
     18 N           6.9177   -3.2404   23.8915 N.pl3   1  UNL1       -0.3050
     19 C           7.6101   -4.5668   23.7858 C.3     1  UNL1        0.0910
     20 C           7.5273   -5.2409   25.1233 C.3     1  UNL1        0.0244
     21 C           6.7838   -4.3310   26.0557 C.3     1  UNL1        0.0357
     22 C           6.4070   -3.0947   25.2945 C.3     1  UNL1        0.0922
     23 C           6.4718   -4.6087   27.4963 C.3     1  UNL1        0.0525
     24 C           7.0626   -3.7457   28.5715 C.3     1  UNL1        0.0169
     25 N           5.5689   -5.7495   27.8617 N.3     1  UNL1       -0.3221
     26 H           5.4675   -5.7914   28.8758 H       1  UNL1        0.1188
     27 H           5.9717   -6.6236   27.5239 H       1  UNL1        0.1188
     28 C           4.5143   -3.3311   19.0475 C.3     1  UNL1        0.0886
     29 C           4.6649   -4.7833   18.7036 C.3     1  UNL1        0.0246
     30 C           3.3331   -4.2507   19.1425 C.3     1  UNL1        0.0246
@<TRIPOS>BOND
     1     1     2    1
     2     2     3   ar
     3     3     4   ar
     4     4     5   ar
     5     5     6    2
     6     5     7   ar
     7     7    28    1
     8    28    29    1
     9    29    30    1
    10     7     8   ar
    11     8     9   ar
    12     9    10    1
    13     9    11   ar
    14    11    18    1
    15    18    19    1
    16    19    20    1
    17    21    20    1
    18    21    23    1
    19    23    24    1
    20    23    25    1
    21    21    22    1
    22    11    12   ar
    23    12    13    1
    24    12    14   ar
    25    14    15   ar
    26    15    16   ar
    27    16    17   ar
    28    17     2   ar
    29    16     4   ar
    30    30    28    1
    31    15     8   ar
    32    22    18    1
    33    25    26    1
    34    25    27    1
