@<TRIPOS>MOLECULE
*****
 31 34 0 0 0
SMALL
GASTEIGER

@<TRIPOS>ATOM
      1 C         -10.5326  -19.6776   19.2375 C.3     1  UNL1        0.2068
      2 C          -9.0467  -19.5535   19.0732 C.3     1  UNL1        0.0646
      3 C          -8.1316  -20.5099   19.7786 C.3     1  UNL1        0.0759
      4 C          -4.3613  -19.0013   21.7173 C.3     1  UNL1        0.0087
      5 C          -4.2903  -20.0815   20.6790 C.3     1  UNL1        0.0178
      6 C          -5.5470  -20.5844   20.0328 C.3     1  UNL1        0.0721
      7 N          -6.8748  -20.0070   20.4249 N.3     1  UNL1       -0.2726
      8 C          -6.9458  -18.9268   21.4632 C.3     1  UNL1        0.0721
      9 C          -5.6890  -18.4240   22.1094 C.3     1  UNL1        0.0178
     10 C          -3.1045  -18.4984   22.3636 C.3     1  UNL1        0.0475
     11 C          -0.0317  -17.8964   20.0700 C.ar    1  UNL1        0.1747
     12 N          -0.9685  -18.8210   20.7893 N.ar    1  UNL1       -0.2285
     13 C          -1.9792  -17.9839   21.5157 C.ar    1  UNL1        0.0776
     14 C          -1.6670  -16.5418   21.2453 C.ar    1  UNL1        0.0885
     15 N          -0.4634  -16.4877   20.3518 N.ar    1  UNL1       -0.3340
     16 H          -0.0325  -15.6711   20.0103 H       1  UNL1        0.1675
     17 O         -11.1404  -19.6497   20.6086 O.3     1  UNL1       -0.4754
     18 C         -10.7198  -18.6002   21.5942 C.ar    1  UNL1        0.1386
     19 C         -10.4262  -18.9804   23.0152 C.ar    1  UNL1        0.0382
     20 C         -10.0056  -17.9308   24.0008 C.ar    1  UNL1        0.0174
     21 C          -9.8785  -16.5010   23.5655 C.ar    1  UNL1        0.0448
     22 C         -10.1720  -16.1208   22.1445 C.ar    1  UNL1        0.0174
     23 C         -10.5927  -17.1704   21.1588 C.ar    1  UNL1        0.0382
     24 N          -9.4578  -15.4515   24.5511 N.pl3   1  UNL1       -0.3340
     25 H         -10.1032  -14.7715   24.8515 H       1  UNL1        0.1468
     26 C          -8.0538  -15.4380   25.0789 C.3     1  UNL1        0.0690
     27 C          -7.8087  -15.4519   26.5587 C.3     1  UNL1        0.0195
     28 C          -6.4048  -15.4384   27.0866 C.3     1  UNL1        0.0017
     29 C          -5.2458  -15.4110   26.1347 C.3     1  UNL1        0.0001
     30 C          -5.4909  -15.3970   24.6549 C.3     1  UNL1        0.0017
     31 C          -6.8949  -15.4105   24.1270 C.3     1  UNL1        0.0195
@<TRIPOS>BOND
     1    11    12   ar
     2    12    13   ar
     3    13    10    1
     4    10     4    1
     5     4     5    1
     6     5     6    1
     7     6     7    1
     8     7     3    1
     9     3     2    1
    10     2     1    1
    11     1    17    1
    12    17    18    1
    13    18    19   ar
    14    19    20   ar
    15    20    21   ar
    16    21    24    1
    17    24    26    1
    18    26    27    1
    19    27    28    1
    20    28    29    1
    21    29    30    1
    22    30    31    1
    23    21    22   ar
    24    22    23   ar
    25     7     8    1
    26     8     9    1
    27    13    14   ar
    28    14    15   ar
    29    15    11   ar
    30     9     4    1
    31    23    18   ar
    32    31    26    1
    33    24    25    1
    34    15    16    1
@<TRIPOS>MOLECULE
*****
 31 34 0 0 0
SMALL
GASTEIGER

@<TRIPOS>ATOM
      1 C          -2.0585  -20.0086   20.3872 C.3     1  UNL1        0.2068
      2 C          -3.3699  -19.7502   19.7064 C.3     1  UNL1        0.0646
      3 C          -4.5428  -20.6462   19.9733 C.3     1  UNL1        0.0759
      4 C          -8.1283  -19.0614   22.1830 C.3     1  UNL1        0.0087
      5 C          -7.4570  -20.3198   22.6474 C.3     1  UNL1        0.0178
      6 C          -6.2619  -20.8481   21.9109 C.3     1  UNL1        0.0721
      7 N          -5.7380  -20.1179   20.7099 N.3     1  UNL1       -0.2726
      8 C          -6.4093  -18.8595   20.2454 C.3     1  UNL1        0.0721
      9 C          -7.6044  -18.3313   20.9820 C.3     1  UNL1        0.0178
     10 C          -9.3235  -18.5331   22.9196 C.3     1  UNL1        0.0475
     11 C         -11.9525  -16.1809   21.3007 C.ar    1  UNL1        0.1747
     12 N         -10.7750  -16.4063   22.2023 N.ar    1  UNL1       -0.2285
     13 C         -10.4354  -17.8668   22.1648 C.ar    1  UNL1        0.0776
     14 C         -11.4029  -18.5441   21.2400 C.ar    1  UNL1        0.0885
     15 N         -12.3405  -17.5021   20.7060 N.ar    1  UNL1       -0.3340
     16 H         -13.0806  -17.6581   20.0758 H       1  UNL1        0.1675
     17 O          -1.7413  -19.3296   21.6866 O.3     1  UNL1       -0.4754
     18 C          -2.6173  -18.2191   22.1859 C.ar    1  UNL1        0.1386
     19 C          -2.2956  -16.7959   21.8380 C.ar    1  UNL1        0.0382
     20 C          -3.1717  -15.6854   22.3373 C.ar    1  UNL1        0.0174
     21 C          -4.3694  -15.9981   23.1844 C.ar    1  UNL1        0.0448
     22 C          -4.6911  -17.4212   23.5323 C.ar    1  UNL1        0.0174
     23 C          -3.8151  -18.5318   23.0330 C.ar    1  UNL1        0.0382
     24 N          -5.2454  -14.8876   23.6837 N.pl3   1  UNL1       -0.3340
     25 H          -5.1628  -13.9848   23.2996 H       1  UNL1        0.1468
     26 C          -6.2474  -15.1524   24.7682 C.3     1  UNL1        0.0690
     27 C          -7.6902  -15.3687   24.4197 C.3     1  UNL1        0.0195
     28 C          -8.6921  -15.6335   25.5041 C.3     1  UNL1        0.0017
     29 C          -8.2512  -15.6822   26.9371 C.3     1  UNL1        0.0001
     30 C          -6.8084  -15.4660   27.2856 C.3     1  UNL1        0.0017
     31 C          -5.8064  -15.2011   26.2011 C.3     1  UNL1        0.0195
@<TRIPOS>BOND
     1    11    12   ar
     2    12    13   ar
     3    13    10    1
     4    10     4    1
     5     4     5    1
     6     5     6    1
     7     6     7    1
     8     7     3    1
     9     3     2    1
    10     2     1    1
    11     1    17    1
    12    17    18    1
    13    18    19   ar
    14    19    20   ar
    15    20    21   ar
    16    21    24    1
    17    24    26    1
    18    26    27    1
    19    27    28    1
    20    28    29    1
    21    29    30    1
    22    30    31    1
    23    21    22   ar
    24    22    23   ar
    25     7     8    1
    26     8     9    1
    27    13    14   ar
    28    14    15   ar
    29    15    11   ar
    30     9     4    1
    31    23    18   ar
    32    31    26    1
    33    24    25    1
    34    15    16    1
@<TRIPOS>MOLECULE
*****
 31 34 0 0 0
SMALL
GASTEIGER

@<TRIPOS>ATOM
      1 C          -6.7377  -15.4912   27.2359 C.3     1  UNL1        0.2068
      2 C          -5.7071  -15.2107   26.1826 C.3     1  UNL1        0.0646
      3 C          -6.0662  -15.3306   24.7312 C.3     1  UNL1        0.0759
      4 C          -3.8778  -18.2582   22.1064 C.3     1  UNL1        0.0087
      5 C          -3.1516  -17.0789   22.6822 C.3     1  UNL1        0.0178
      6 C          -3.8810  -16.1031   23.5571 C.3     1  UNL1        0.0721
      7 N          -5.3367  -16.3066   23.8562 N.3     1  UNL1       -0.2726
      8 C          -6.0630  -17.4859   23.2804 C.3     1  UNL1        0.0721
      9 C          -5.3335  -18.4618   22.4055 C.3     1  UNL1        0.0178
     10 C          -3.1483  -19.2342   21.2314 C.3     1  UNL1        0.0475
     11 C           0.1084  -18.1099   19.4441 C.ar    1  UNL1        0.1747
     12 N          -0.6098  -18.6272   20.6551 N.ar    1  UNL1       -0.2285
     13 C          -2.0647  -18.7532   20.3126 C.ar    1  UNL1        0.0776
     14 C          -2.2456  -18.3137   18.8898 C.ar    1  UNL1        0.0885
     15 N          -0.9026  -17.9161   18.3531 N.ar    1  UNL1       -0.3340
     16 H          -0.7172  -17.5859   17.4443 H       1  UNL1        0.1675
     17 O          -8.1953  -15.3294   26.9209 O.3     1  UNL1       -0.4754
     18 C          -8.8523  -16.2373   25.9240 C.ar    1  UNL1        0.1386
     19 C          -9.1402  -17.6645   26.2850 C.ar    1  UNL1        0.0382
     20 C          -9.7973  -18.5724   25.2881 C.ar    1  UNL1        0.0174
     21 C         -10.1665  -18.0532   23.9301 C.ar    1  UNL1        0.0448
     22 C          -9.8786  -16.6261   23.5691 C.ar    1  UNL1        0.0174
     23 C          -9.2215  -15.7181   24.5660 C.ar    1  UNL1        0.0382
     24 N         -10.8235  -18.9611   22.9332 N.pl3   1  UNL1       -0.3340
     25 H         -11.6870  -19.3834   23.1462 H       1  UNL1        0.1468
     26 C         -10.1650  -19.2257   21.6116 C.3     1  UNL1        0.0690
     27 C         -10.9983  -19.3560   20.3712 C.3     1  UNL1        0.0195
     28 C         -10.3398  -19.6206   19.0497 C.3     1  UNL1        0.0017
     29 C          -8.8480  -19.7549   18.9686 C.3     1  UNL1        0.0001
     30 C          -8.0147  -19.6246   20.2090 C.3     1  UNL1        0.0017
     31 C          -8.6733  -19.3600   21.5306 C.3     1  UNL1        0.0195
@<TRIPOS>BOND
     1    11    12   ar
     2    12    13   ar
     3    13    10    1
     4    10     4    1
     5     4     5    1
     6     5     6    1
     7     6     7    1
     8     7     3    1
     9     3     2    1
    10     2     1    1
    11     1    17    1
    12    17    18    1
    13    18    19   ar
    14    19    20   ar
    15    20    21   ar
    16    21    24    1
    17    24    26    1
    18    26    27    1
    19    27    28    1
    20    28    29    1
    21    29    30    1
    22    30    31    1
    23    21    22   ar
    24    22    23   ar
    25     7     8    1
    26     8     9    1
    27    13    14   ar
    28    14    15   ar
    29    15    11   ar
    30     9     4    1
    31    23    18   ar
    32    31    26    1
    33    24    25    1
    34    15    16    1
@<TRIPOS>MOLECULE
*****
 31 34 0 0 0
SMALL
GASTEIGER

@<TRIPOS>ATOM
      1 C          -2.1066  -19.9788   20.8764 C.3     1  UNL1        0.2068
      2 C          -3.2356  -19.7678   19.9116 C.3     1  UNL1        0.0646
      3 C          -4.4711  -20.6131   20.0065 C.3     1  UNL1        0.0759
      4 C          -8.3688  -18.7646   21.2875 C.3     1  UNL1        0.0087
      5 C          -7.1989  -18.7739   22.2261 C.3     1  UNL1        0.0178
      6 C          -5.8997  -19.3901   21.7991 C.3     1  UNL1        0.0721
      7 N          -5.7704  -19.9969   20.4335 N.3     1  UNL1       -0.2726
      8 C          -6.9403  -19.9875   19.4948 C.3     1  UNL1        0.0721
      9 C          -8.2395  -19.3714   19.9218 C.3     1  UNL1        0.0178
     10 C          -9.6681  -18.1484   21.7145 C.3     1  UNL1        0.0475
     11 C         -11.8718  -18.7672   24.8491 C.ar    1  UNL1        0.1747
     12 N         -11.5387  -17.9802   23.6163 N.ar    1  UNL1       -0.2285
     13 C         -10.3406  -18.6125   22.9724 C.ar    1  UNL1        0.0776
     14 C          -9.9332  -19.7902   23.8071 C.ar    1  UNL1        0.0885
     15 N         -10.8794  -19.8859   24.9671 N.ar    1  UNL1       -0.3340
     16 H         -10.8537  -20.5638   25.6805 H       1  UNL1        0.1675
     17 O          -1.5501  -18.8173   21.6453 O.3     1  UNL1       -0.4754
     18 C          -2.4782  -17.8357   22.2971 C.ar    1  UNL1        0.1386
     19 C          -3.3701  -18.2779   23.4192 C.ar    1  UNL1        0.0382
     20 C          -4.2982  -17.2962   24.0710 C.ar    1  UNL1        0.0174
     21 C          -4.3346  -15.8723   23.6007 C.ar    1  UNL1        0.0448
     22 C          -3.4428  -15.4301   22.4786 C.ar    1  UNL1        0.0174
     23 C          -2.5146  -16.4118   21.8268 C.ar    1  UNL1        0.0382
     24 N          -5.2627  -14.8907   24.2525 N.pl3   1  UNL1       -0.3340
     25 H          -5.1579  -13.9266   24.0827 H       1  UNL1        0.1468
     26 C          -6.3506  -15.3778   25.1632 C.3     1  UNL1        0.0690
     27 C          -6.1601  -15.3326   26.6503 C.3     1  UNL1        0.0195
     28 C          -7.2479  -15.8198   27.5610 C.3     1  UNL1        0.0017
     29 C          -8.5263  -16.3522   26.9844 C.3     1  UNL1        0.0001
     30 C          -8.7168  -16.3974   25.4973 C.3     1  UNL1        0.0017
     31 C          -7.6289  -15.9102   24.5866 C.3     1  UNL1        0.0195
@<TRIPOS>BOND
     1    11    12   ar
     2    12    13   ar
     3    13    10    1
     4    10     4    1
     5     4     5    1
     6     5     6    1
     7     6     7    1
     8     7     3    1
     9     3     2    1
    10     2     1    1
    11     1    17    1
    12    17    18    1
    13    18    19   ar
    14    19    20   ar
    15    20    21   ar
    16    21    24    1
    17    24    26    1
    18    26    27    1
    19    27    28    1
    20    28    29    1
    21    29    30    1
    22    30    31    1
    23    21    22   ar
    24    22    23   ar
    25     7     8    1
    26     8     9    1
    27    13    14   ar
    28    14    15   ar
    29    15    11   ar
    30     9     4    1
    31    23    18   ar
    32    31    26    1
    33    24    25    1
    34    15    16    1
@<TRIPOS>MOLECULE
*****
 31 34 0 0 0
SMALL
GASTEIGER

@<TRIPOS>ATOM
      1 C          -2.9532  -17.9778   23.1556 C.3     1  UNL1        0.2068
      2 C          -2.7719  -18.4147   21.7321 C.3     1  UNL1        0.0646
      3 C          -3.5025  -19.6199   21.2187 C.3     1  UNL1        0.0759
      4 C          -7.9951  -19.5873   20.9617 C.3     1  UNL1        0.0087
      5 C          -7.3183  -20.1006   22.1980 C.3     1  UNL1        0.0178
      6 C          -5.8208  -20.1115   22.2836 C.3     1  UNL1        0.0721
      7 N          -5.0001  -19.6091   21.1330 N.3     1  UNL1       -0.2726
      8 C          -5.6769  -19.0957   19.8967 C.3     1  UNL1        0.0721
      9 C          -7.1743  -19.0849   19.8110 C.3     1  UNL1        0.0178
     10 C          -9.4926  -19.5765   20.8760 C.3     1  UNL1        0.0475
     11 C         -10.7875  -15.9884   20.1588 C.ar    1  UNL1        0.1747
     12 N          -9.7770  -16.9213   20.7578 N.ar    1  UNL1       -0.2285
     13 C         -10.2111  -18.3264   20.4624 C.ar    1  UNL1        0.0776
     14 C         -11.4899  -18.2619   19.6810 C.ar    1  UNL1        0.0885
     15 N         -11.8461  -16.8170   19.4933 N.ar    1  UNL1       -0.3340
     16 H         -12.6360  -16.4728   19.0170 H       1  UNL1        0.1675
     17 O          -3.4204  -16.5851   23.4590 O.3     1  UNL1       -0.4754
     18 C          -4.8707  -16.3253   23.7403 C.ar    1  UNL1        0.1386
     19 C          -5.2746  -15.6078   24.9942 C.ar    1  UNL1        0.0382
     20 C          -6.7249  -15.3479   25.2755 C.ar    1  UNL1        0.0174
     21 C          -7.7712  -15.8054   24.3030 C.ar    1  UNL1        0.0448
     22 C          -7.3674  -16.5229   23.0492 C.ar    1  UNL1        0.0174
     23 C          -5.9171  -16.7828   22.7678 C.ar    1  UNL1        0.0382
     24 N          -9.2215  -15.5455   24.5843 N.pl3   1  UNL1       -0.3340
     25 H          -9.4970  -14.7006   25.0078 H       1  UNL1        0.1468
     26 C         -10.2520  -16.5731   24.2204 C.3     1  UNL1        0.0690
     27 C         -11.4846  -16.1657   23.4690 C.3     1  UNL1        0.0195
     28 C         -12.5151  -17.1931   23.1051 C.3     1  UNL1        0.0017
     29 C         -12.3129  -18.6281   23.4926 C.3     1  UNL1        0.0001
     30 C         -11.0803  -19.0355   24.2440 C.3     1  UNL1        0.0017
     31 C         -10.0498  -18.0080   24.6079 C.3     1  UNL1        0.0195
@<TRIPOS>BOND
     1    11    12   ar
     2    12    13   ar
     3    13    10    1
     4    10     4    1
     5     4     5    1
     6     5     6    1
     7     6     7    1
     8     7     3    1
     9     3     2    1
    10     2     1    1
    11     1    17    1
    12    17    18    1
    13    18    19   ar
    14    19    20   ar
    15    20    21   ar
    16    21    24    1
    17    24    26    1
    18    26    27    1
    19    27    28    1
    20    28    29    1
    21    29    30    1
    22    30    31    1
    23    21    22   ar
    24    22    23   ar
    25     7     8    1
    26     8     9    1
    27    13    14   ar
    28    14    15   ar
    29    15    11   ar
    30     9     4    1
    31    23    18   ar
    32    31    26    1
    33    24    25    1
    34    15    16    1
@<TRIPOS>MOLECULE
*****
 31 34 0 0 0
SMALL
GASTEIGER

@<TRIPOS>ATOM
      1 C          -8.2283  -15.6653   27.1234 C.3     1  UNL1        0.2068
      2 C          -6.7455  -15.6051   27.3422 C.3     1  UNL1        0.0646
      3 C          -5.8595  -14.9777   26.3072 C.3     1  UNL1        0.0759
      4 C          -3.4468  -17.5762   23.5366 C.3     1  UNL1        0.0087
      5 C          -4.2089  -16.4046   22.9921 C.3     1  UNL1        0.0178
      6 C          -5.0131  -15.5385   23.9157 C.3     1  UNL1        0.0721
      7 N          -5.0552  -15.8440   25.3836 N.3     1  UNL1       -0.2726
      8 C          -4.2932  -17.0156   25.9280 C.3     1  UNL1        0.0721
      9 C          -3.4889  -17.8817   25.0045 C.3     1  UNL1        0.0178
     10 C          -2.6425  -18.4425   22.6130 C.3     1  UNL1        0.0475
     11 C          -2.9508  -17.6634   18.8231 C.ar    1  UNL1        0.1747
     12 N          -3.5414  -18.1521   20.1125 N.ar    1  UNL1       -0.2285
     13 C          -2.4838  -18.0575   21.1720 C.ar    1  UNL1        0.0776
     14 C          -1.2396  -17.5103   20.5375 C.ar    1  UNL1        0.0885
     15 N          -1.5282  -17.2667   19.0858 N.ar    1  UNL1       -0.3340
     16 H          -0.8951  -16.9093   18.4219 H       1  UNL1        0.1675
     17 O          -8.8662  -16.9394   26.6547 O.3     1  UNL1       -0.4754
     18 C          -9.0916  -17.1706   25.1899 C.ar    1  UNL1        0.1386
     19 C          -9.7144  -18.4518   24.7200 C.ar    1  UNL1        0.0382
     20 C          -9.9398  -18.6830   23.2552 C.ar    1  UNL1        0.0174
     21 C          -9.5424  -17.6331   22.2603 C.ar    1  UNL1        0.0448
     22 C          -8.9196  -16.3520   22.7302 C.ar    1  UNL1        0.0174
     23 C          -8.6942  -16.1207   24.1951 C.ar    1  UNL1        0.0382
     24 N          -9.7678  -17.8643   20.7955 N.pl3   1  UNL1       -0.3340
     25 H         -10.3706  -17.2718   20.2906 H       1  UNL1        0.1468
     26 C          -9.0748  -18.9983   20.0998 C.3     1  UNL1        0.0690
     27 C          -9.7739  -19.7441   19.0021 C.3     1  UNL1        0.0195
     28 C          -9.0809  -20.8781   18.3064 C.3     1  UNL1        0.0017
     29 C          -7.6888  -21.2662   18.7084 C.3     1  UNL1        0.0001
     30 C          -6.9898  -20.5203   19.8061 C.3     1  UNL1        0.0017
     31 C          -7.6828  -19.3863   20.5018 C.3     1  UNL1        0.0195
@<TRIPOS>BOND
     1    11    12   ar
     2    12    13   ar
     3    13    10    1
     4    10     4    1
     5     4     5    1
     6     5     6    1
     7     6     7    1
     8     7     3    1
     9     3     2    1
    10     2     1    1
    11     1    17    1
    12    17    18    1
    13    18    19   ar
    14    19    20   ar
    15    20    21   ar
    16    21    24    1
    17    24    26    1
    18    26    27    1
    19    27    28    1
    20    28    29    1
    21    29    30    1
    22    30    31    1
    23    21    22   ar
    24    22    23   ar
    25     7     8    1
    26     8     9    1
    27    13    14   ar
    28    14    15   ar
    29    15    11   ar
    30     9     4    1
    31    23    18   ar
    32    31    26    1
    33    24    25    1
    34    15    16    1
@<TRIPOS>MOLECULE
*****
 31 34 0 0 0
SMALL
GASTEIGER

@<TRIPOS>ATOM
      1 C           7.9873   -4.2681   21.3174 C.3     1  UNL1        0.2068
      2 C           8.0609   -3.8196   22.7470 C.3     1  UNL1        0.0646
      3 C           7.7407   -2.3985   23.1046 C.3     1  UNL1        0.0759
      4 C           3.7072   -0.6782   22.0943 C.3     1  UNL1        0.0087
      5 C           3.8064   -1.8974   22.9624 C.3     1  UNL1        0.0178
      6 C           5.1509   -2.4708   23.2991 C.3     1  UNL1        0.0721
      7 N           6.3962   -1.8250   22.7678 N.3     1  UNL1       -0.2726
      8 C           6.2969   -0.6058   21.8997 C.3     1  UNL1        0.0721
      9 C           4.9524   -0.0324   21.5630 C.3     1  UNL1        0.0178
     10 C           2.3626   -0.1047   21.7574 C.3     1  UNL1        0.0475
     11 C           0.8010    1.5645   24.8943 C.ar    1  UNL1        0.1747
     12 N           1.7184    0.5580   24.2655 N.ar    1  UNL1       -0.2285
     13 C           1.6156    0.7040   22.7762 C.ar    1  UNL1        0.0776
     14 C           0.6347    1.8007   22.4845 C.ar    1  UNL1        0.0885
     15 N           0.1312    2.3325   23.7936 N.ar    1  UNL1       -0.3340
     16 H          -0.5238    3.0583   23.9099 H       1  UNL1        0.1675
     17 O           6.6732   -4.6911   20.7309 O.3     1  UNL1       -0.4754
     18 C           5.8851   -3.7331   19.8876 C.ar    1  UNL1        0.1386
     19 C           6.5956   -2.7080   19.0542 C.ar    1  UNL1        0.0382
     20 C           5.8075   -1.7500   18.2109 C.ar    1  UNL1        0.0174
     21 C           4.3091   -1.8169   18.2011 C.ar    1  UNL1        0.0448
     22 C           3.5986   -2.8419   19.0345 C.ar    1  UNL1        0.0174
     23 C           4.3867   -3.8000   19.8778 C.ar    1  UNL1        0.0382
     24 N           3.5210   -0.8589   17.3579 N.pl3   1  UNL1       -0.3340
     25 H           3.3629   -1.0557   16.4063 H       1  UNL1        0.1468
     26 C           2.9738    0.3992   17.9644 C.3     1  UNL1        0.0690
     27 C           1.4983    0.5408   18.1943 C.3     1  UNL1        0.0195
     28 C           0.9511    1.7988   18.8009 C.3     1  UNL1        0.0017
     29 C           1.8794    2.9153   19.1776 C.3     1  UNL1        0.0001
     30 C           3.3549    2.7737   18.9477 C.3     1  UNL1        0.0017
     31 C           3.9021    1.5156   18.3411 C.3     1  UNL1        0.0195
@<TRIPOS>BOND
     1    11    12   ar
     2    12    13   ar
     3    13    10    1
     4    10     4    1
     5     4     5    1
     6     5     6    1
     7     6     7    1
     8     7     3    1
     9     3     2    1
    10     2     1    1
    11     1    17    1
    12    17    18    1
    13    18    19   ar
    14    19    20   ar
    15    20    21   ar
    16    21    24    1
    17    24    26    1
    18    26    27    1
    19    27    28    1
    20    28    29    1
    21    29    30    1
    22    30    31    1
    23    21    22   ar
    24    22    23   ar
    25     7     8    1
    26     8     9    1
    27    13    14   ar
    28    14    15   ar
    29    15    11   ar
    30     9     4    1
    31    23    18   ar
    32    31    26    1
    33    24    25    1
    34    15    16    1
@<TRIPOS>MOLECULE
*****
 31 34 0 0 0
SMALL
GASTEIGER

@<TRIPOS>ATOM
      1 C           7.7842   -6.6598   25.0471 C.3     1  UNL1        0.2068
      2 C           8.3312   -6.0628   23.7844 C.3     1  UNL1        0.0646
      3 C           8.0660   -4.6226   23.4595 C.3     1  UNL1        0.0759
      4 C           4.8000   -3.5344   20.5614 C.3     1  UNL1        0.0087
      5 C           6.1819   -3.8290   20.0580 C.3     1  UNL1        0.0178
      6 C           7.2706   -4.1917   21.0240 C.3     1  UNL1        0.0721
      7 N           6.9773   -4.2599   22.4935 N.3     1  UNL1       -0.2726
      8 C           5.5954   -3.9653   22.9969 C.3     1  UNL1        0.0721
      9 C           4.5068   -3.6026   22.0309 C.3     1  UNL1        0.0178
     10 C           3.7113   -3.1717   19.5954 C.3     1  UNL1        0.0475
     11 C           4.5004   -0.4381   16.9553 C.ar    1  UNL1        0.1747
     12 N           4.6508   -1.8354   17.4796 N.ar    1  UNL1       -0.2285
     13 C           3.8451   -1.9469   18.7399 C.ar    1  UNL1        0.0776
     14 C           3.1967   -0.6184   18.9946 C.ar    1  UNL1        0.0885
     15 N           3.6017    0.3141   17.8916 N.ar    1  UNL1       -0.3340
     16 H           3.3261    1.2546   17.7986 H       1  UNL1        0.1675
     17 O           8.6760   -6.8388   26.2398 O.3     1  UNL1       -0.4754
     18 C           8.1933   -6.4418   27.6034 C.ar    1  UNL1        0.1386
     19 C           6.9461   -5.6211   27.7481 C.ar    1  UNL1        0.0382
     20 C           6.4635   -5.2241   29.1116 C.ar    1  UNL1        0.0174
     21 C           7.2280   -5.6478   30.3306 C.ar    1  UNL1        0.0448
     22 C           8.4752   -6.4685   30.1861 C.ar    1  UNL1        0.0174
     23 C           8.9579   -6.8656   28.8224 C.ar    1  UNL1        0.0382
     24 N           6.7453   -5.2508   31.6942 N.pl3   1  UNL1       -0.3340
     25 H           6.3391   -5.9232   32.2876 H       1  UNL1        0.1468
     26 C           6.8816   -3.8294   32.1537 C.3     1  UNL1        0.0690
     27 C           5.6733   -3.0730   32.6204 C.3     1  UNL1        0.0195
     28 C           5.8096   -1.6516   33.0799 C.3     1  UNL1        0.0017
     29 C           7.1542   -0.9866   33.0726 C.3     1  UNL1        0.0001
     30 C           8.3624   -1.7431   32.6059 C.3     1  UNL1        0.0017
     31 C           8.2261   -3.1645   32.1464 C.3     1  UNL1        0.0195
@<TRIPOS>BOND
     1    11    12   ar
     2    12    13   ar
     3    13    10    1
     4    10     4    1
     5     4     5    1
     6     5     6    1
     7     6     7    1
     8     7     3    1
     9     3     2    1
    10     2     1    1
    11     1    17    1
    12    17    18    1
    13    18    19   ar
    14    19    20   ar
    15    20    21   ar
    16    21    24    1
    17    24    26    1
    18    26    27    1
    19    27    28    1
    20    28    29    1
    21    29    30    1
    22    30    31    1
    23    21    22   ar
    24    22    23   ar
    25     7     8    1
    26     8     9    1
    27    13    14   ar
    28    14    15   ar
    29    15    11   ar
    30     9     4    1
    31    23    18   ar
    32    31    26    1
    33    24    25    1
    34    15    16    1
@<TRIPOS>MOLECULE
*****
 31 34 0 0 0
SMALL
GASTEIGER

@<TRIPOS>ATOM
      1 C           5.3318   -1.7501   17.6958 C.3     1  UNL1        0.2068
      2 C           4.3786   -0.6824   17.2469 C.3     1  UNL1        0.0646
      3 C           4.0318    0.4492   18.1683 C.3     1  UNL1        0.0759
      4 C           3.2547   -0.3557   22.5270 C.3     1  UNL1        0.0087
      5 C           2.1928   -0.6492   21.5092 C.3     1  UNL1        0.0178
      6 C           2.4518   -0.3809   20.0563 C.3     1  UNL1        0.0721
      7 N           3.7728    0.1809   19.6213 N.3     1  UNL1       -0.2726
      8 C           4.8348    0.4744   20.6391 C.3     1  UNL1        0.0721
      9 C           4.5758    0.2062   22.0920 C.3     1  UNL1        0.0178
     10 C           2.9957   -0.6240   23.9800 C.3     1  UNL1        0.0475
     11 C           5.9918   -0.8459   26.4375 C.ar    1  UNL1        0.1747
     12 N           5.0809   -1.4703   25.4225 N.ar    1  UNL1       -0.2285
     13 C           4.0919   -0.4306   24.9854 C.ar    1  UNL1        0.0776
     14 C           4.3917    0.8364   25.7303 C.ar    1  UNL1        0.0885
     15 N           5.5659    0.5798   26.6277 N.ar    1  UNL1       -0.3340
     16 H           5.9836    1.2324   27.2350 H       1  UNL1        0.1675
     17 O           4.8387   -2.8912   18.5353 O.3     1  UNL1       -0.4754
     18 C           5.3548   -3.0726   19.9319 C.ar    1  UNL1        0.1386
     19 C           6.7812   -2.7383   20.2537 C.ar    1  UNL1        0.0382
     20 C           7.2974   -2.9197   21.6504 C.ar    1  UNL1        0.0174
     21 C           6.3871   -3.4355   22.7252 C.ar    1  UNL1        0.0448
     22 C           4.9607   -3.7699   22.4035 C.ar    1  UNL1        0.0174
     23 C           4.4445   -3.5884   21.0068 C.ar    1  UNL1        0.0382
     24 N           6.9032   -3.6170   24.1219 N.pl3   1  UNL1       -0.3340
     25 H           7.0217   -2.8351   24.7083 H       1  UNL1        0.1468
     26 C           7.2388   -4.9897   24.6251 C.3     1  UNL1        0.0690
     27 C           7.9496   -5.9629   23.7319 C.3     1  UNL1        0.0195
     28 C           8.2851   -7.3355   24.2350 C.3     1  UNL1        0.0017
     29 C           7.9099   -7.7351   25.6313 C.3     1  UNL1        0.0001
     30 C           7.1991   -6.7619   26.5245 C.3     1  UNL1        0.0017
     31 C           6.8636   -5.3892   26.0213 C.3     1  UNL1        0.0195
@<TRIPOS>BOND
     1    11    12   ar
     2    12    13   ar
     3    13    10    1
     4    10     4    1
     5     4     5    1
     6     5     6    1
     7     6     7    1
     8     7     3    1
     9     3     2    1
    10     2     1    1
    11     1    17    1
    12    17    18    1
    13    18    19   ar
    14    19    20   ar
    15    20    21   ar
    16    21    24    1
    17    24    26    1
    18    26    27    1
    19    27    28    1
    20    28    29    1
    21    29    30    1
    22    30    31    1
    23    21    22   ar
    24    22    23   ar
    25     7     8    1
    26     8     9    1
    27    13    14   ar
    28    14    15   ar
    29    15    11   ar
    30     9     4    1
    31    23    18   ar
    32    31    26    1
    33    24    25    1
    34    15    16    1
