@<TRIPOS>MOLECULE
*****
 27 30 0 0 0
SMALL
GASTEIGER

@<TRIPOS>ATOM
      1 O          -1.6036    4.3746   19.1817 O.2     1  UNL1       -0.2699
      2 C          -1.2075    3.4134   20.2631 C.2     1  UNL1        0.2490
      3 N          -0.1641    2.3698   19.9937 N.am    1  UNL1       -0.2758
      4 C           0.4831    2.2875   18.6431 C.3     1  UNL1        0.0973
      5 C           1.5265    1.2440   18.3738 C.3     1  UNL1        0.0616
      6 C           1.9225    0.2829   19.4552 C.3     1  UNL1        0.1367
      7 C           2.5699    0.2005   18.1045 C.3     1  UNL1        0.0449
      8 C           3.6132   -0.8430   17.8352 C.3     1  UNL1        0.0330
      9 C           4.0092   -1.8042   18.9165 C.ar    1  UNL1        0.0119
     10 C           5.0526   -2.8477   18.6472 C.ar    1  UNL1       -0.0013
     11 C           5.4487   -3.8089   19.7285 C.ar    1  UNL1       -0.0001
     12 C           4.8013   -3.7265   21.0792 C.ar    1  UNL1        0.0031
     13 C           3.7580   -2.6830   21.3485 C.ar    1  UNL1        0.0366
     14 C           3.3620   -1.7219   20.2671 C.ar    1  UNL1        0.1342
     15 O           2.3186   -0.6783   20.5365 O.3     1  UNL1       -0.4828
     16 C           1.2753    0.3652   20.8058 C.3     1  UNL1        0.0616
     17 C           0.2319    1.4087   21.0751 C.3     1  UNL1        0.0973
     18 C          -1.8548    3.4957   21.6137 C.ar    1  UNL1        0.0536
     19 C          -3.3476    3.4148   21.7362 C.ar    1  UNL1        0.0045
     20 C          -3.9948    3.4971   23.0869 C.ar    1  UNL1        0.0040
     21 C          -3.1493    3.6603   24.3150 C.ar    1  UNL1        0.0714
     22 C          -1.6565    3.7412   24.1926 C.ar    1  UNL1        0.0040
     23 C          -1.0092    3.6589   22.8419 C.ar    1  UNL1        0.0045
     24 C          -3.7966    3.7426   25.6657 C.3     1  UNL1        0.4186
     25 F          -4.4438    3.8250   27.0164 F       1  UNL1       -0.1659
     26 F          -5.0641    3.1817   25.0924 F       1  UNL1       -0.1659
     27 F          -2.5290    4.3036   26.2389 F       1  UNL1       -0.1659
@<TRIPOS>BOND
     1     1     2    2
     2     2    18    1
     3    18    19   ar
     4    19    20   ar
     5    20    21   ar
     6    21    24    1
     7    24    25    1
     8    24    26    1
     9    24    27    1
    10    21    22   ar
    11    22    23   ar
    12     2     3   am
    13     3     4    1
    14     4     5    1
    15     5     6    1
    16     6     7    1
    17     7     8    1
    18     8     9    1
    19     9    10   ar
    20    10    11   ar
    21    11    12   ar
    22    12    13   ar
    23    13    14   ar
    24    14    15    1
    25     6    16    1
    26    16    17    1
    27    23    18   ar
    28    17     3    1
    29    15     6    1
    30    14     9   ar
@<TRIPOS>MOLECULE
*****
 27 30 0 0 0
SMALL
GASTEIGER

@<TRIPOS>ATOM
      1 O           9.5242   -5.5302   22.6603 O.2     1  UNL1       -0.2699
      2 C           8.2711   -4.9381   23.2340 C.2     1  UNL1        0.2490
      3 N           7.3435   -4.1509   22.3565 N.am    1  UNL1       -0.2758
      4 C           7.6691   -3.9559   20.9053 C.3     1  UNL1        0.0973
      5 C           6.7415   -3.1688   20.0278 C.3     1  UNL1        0.0616
      6 C           5.4884   -2.5767   20.6015 C.3     1  UNL1        0.1367
      7 C           5.8139   -2.3816   19.1503 C.3     1  UNL1        0.0449
      8 C           4.8863   -1.5945   18.2728 C.3     1  UNL1        0.0330
      9 C           3.6332   -1.0024   18.8465 C.ar    1  UNL1        0.0119
     10 C           2.7056   -0.2152   17.9689 C.ar    1  UNL1       -0.0013
     11 C           1.4525    0.3769   18.5426 C.ar    1  UNL1       -0.0001
     12 C           1.1270    0.1818   19.9939 C.ar    1  UNL1        0.0031
     13 C           2.0546   -0.6053   20.8714 C.ar    1  UNL1        0.0366
     14 C           3.3077   -1.1974   20.2977 C.ar    1  UNL1        0.1342
     15 O           4.2353   -1.9846   21.1752 O.3     1  UNL1       -0.4828
     16 C           5.1628   -2.7717   22.0527 C.3     1  UNL1        0.0616
     17 C           6.0904   -3.5588   22.9302 C.3     1  UNL1        0.0973
     18 C           7.9456   -5.1331   24.6852 C.ar    1  UNL1        0.0536
     19 C           7.4356   -6.4586   25.1679 C.ar    1  UNL1        0.0045
     20 C           7.1100   -6.6536   26.6191 C.ar    1  UNL1        0.0040
     21 C           7.2945   -5.5231   27.5876 C.ar    1  UNL1        0.0714
     22 C           7.8044   -4.1977   27.1049 C.ar    1  UNL1        0.0040
     23 C           8.1300   -4.0026   25.6538 C.ar    1  UNL1        0.0045
     24 C           6.9689   -5.7182   29.0388 C.3     1  UNL1        0.4186
     25 F           6.6434   -5.9133   30.4900 F       1  UNL1       -0.1659
     26 F           6.1255   -4.4780   29.0163 F       1  UNL1       -0.1659
     27 F           7.8123   -6.9584   29.0613 F       1  UNL1       -0.1659
@<TRIPOS>BOND
     1     1     2    2
     2     2    18    1
     3    18    19   ar
     4    19    20   ar
     5    20    21   ar
     6    21    24    1
     7    24    25    1
     8    24    26    1
     9    24    27    1
    10    21    22   ar
    11    22    23   ar
    12     2     3   am
    13     3     4    1
    14     4     5    1
    15     5     6    1
    16     6     7    1
    17     7     8    1
    18     8     9    1
    19     9    10   ar
    20    10    11   ar
    21    11    12   ar
    22    12    13   ar
    23    13    14   ar
    24    14    15    1
    25     6    16    1
    26    16    17    1
    27    23    18   ar
    28    17     3    1
    29    15     6    1
    30    14     9   ar
@<TRIPOS>MOLECULE
*****
 27 30 0 0 0
SMALL
GASTEIGER

@<TRIPOS>ATOM
      1 O           1.0115    5.7441   17.9497 O.2     1  UNL1       -0.2699
      2 C           0.4476    4.3731   18.1781 C.2     1  UNL1        0.2490
      3 N           1.3688    3.1993   18.3321 N.am    1  UNL1       -0.2758
      4 C           2.8539    3.3966   18.2578 C.3     1  UNL1        0.0973
      5 C           3.7750    2.2229   18.4118 C.3     1  UNL1        0.0616
      6 C           3.2111    0.8518   18.6402 C.3     1  UNL1        0.1367
      7 C           4.6963    1.0491   18.5658 C.3     1  UNL1        0.0449
      8 C           5.6175   -0.1246   18.7199 C.3     1  UNL1        0.0330
      9 C           5.0536   -1.4957   18.9483 C.ar    1  UNL1        0.0119
     10 C           5.9748   -2.6694   19.1023 C.ar    1  UNL1       -0.0013
     11 C           5.4109   -4.0405   19.3307 C.ar    1  UNL1       -0.0001
     12 C           3.9257   -4.2378   19.4051 C.ar    1  UNL1        0.0031
     13 C           3.0046   -3.0641   19.2510 C.ar    1  UNL1        0.0366
     14 C           3.5685   -1.6930   19.0226 C.ar    1  UNL1        0.1342
     15 O           2.6472   -0.5192   18.8686 O.3     1  UNL1       -0.4828
     16 C           1.7261    0.6545   18.7146 C.3     1  UNL1        0.0616
     17 C           0.8049    1.8282   18.5605 C.3     1  UNL1        0.0973
     18 C          -1.0375    4.1757   18.2525 C.ar    1  UNL1        0.0536
     19 C          -1.7126    4.0578   19.5868 C.ar    1  UNL1        0.0045
     20 C          -3.1977    3.8605   19.6611 C.ar    1  UNL1        0.0040
     21 C          -4.0077    3.7810   18.4012 C.ar    1  UNL1        0.0714
     22 C          -3.3327    3.8989   17.0668 C.ar    1  UNL1        0.0040
     23 C          -1.8476    4.0962   16.9925 C.ar    1  UNL1        0.0045
     24 C          -5.4928    3.5837   18.4755 C.3     1  UNL1        0.4186
     25 F          -6.9779    3.3863   18.5500 F       1  UNL1       -0.1659
     26 F          -5.6502    4.2688   17.1505 F       1  UNL1       -0.1659
     27 F          -5.3354    2.8985   19.8006 F       1  UNL1       -0.1659
@<TRIPOS>BOND
     1     1     2    2
     2     2    18    1
     3    18    19   ar
     4    19    20   ar
     5    20    21   ar
     6    21    24    1
     7    24    25    1
     8    24    26    1
     9    24    27    1
    10    21    22   ar
    11    22    23   ar
    12     2     3   am
    13     3     4    1
    14     4     5    1
    15     5     6    1
    16     6     7    1
    17     7     8    1
    18     8     9    1
    19     9    10   ar
    20    10    11   ar
    21    11    12   ar
    22    12    13   ar
    23    13    14   ar
    24    14    15    1
    25     6    16    1
    26    16    17    1
    27    23    18   ar
    28    17     3    1
    29    15     6    1
    30    14     9   ar
@<TRIPOS>MOLECULE
*****
 27 30 0 0 0
SMALL
GASTEIGER

@<TRIPOS>ATOM
      1 O           2.9636   -1.2895   28.3272 O.2     1  UNL1       -0.2699
      2 C           2.3584   -0.1723   29.1245 C.2     1  UNL1        0.2490
      3 N           2.7510    0.0236   30.5589 N.am    1  UNL1       -0.2758
      4 C           3.7486   -0.8976   31.1961 C.3     1  UNL1        0.0973
      5 C           4.1411   -0.7017   32.6304 C.3     1  UNL1        0.0616
      6 C           3.5359    0.4155   33.4277 C.3     1  UNL1        0.1367
      7 C           4.5336   -0.5057   34.0649 C.3     1  UNL1        0.0449
      8 C           4.9261   -0.3098   35.4993 C.3     1  UNL1        0.0330
      9 C           4.3209    0.8075   36.2965 C.ar    1  UNL1        0.0119
     10 C           4.7134    1.0034   37.7310 C.ar    1  UNL1       -0.0013
     11 C           4.1083    2.1206   38.5283 C.ar    1  UNL1       -0.0001
     12 C           3.1106    3.0419   37.8911 C.ar    1  UNL1        0.0031
     13 C           2.7181    2.8459   36.4567 C.ar    1  UNL1        0.0366
     14 C           3.3233    1.7287   35.6594 C.ar    1  UNL1        0.1342
     15 O           2.9307    1.5328   34.2250 O.3     1  UNL1       -0.4828
     16 C           2.5383    1.3368   32.7906 C.3     1  UNL1        0.0616
     17 C           2.1458    1.1408   31.3562 C.3     1  UNL1        0.0973
     18 C           1.3608    0.7489   28.4873 C.ar    1  UNL1        0.0536
     19 C          -0.1010    0.4149   28.5276 C.ar    1  UNL1        0.0045
     20 C          -1.0987    1.3362   27.8904 C.ar    1  UNL1        0.0040
     21 C          -0.6345    2.5915   27.2130 C.ar    1  UNL1        0.0714
     22 C           0.8273    2.9255   27.1728 C.ar    1  UNL1        0.0040
     23 C           1.8249    2.0042   27.8099 C.ar    1  UNL1        0.0045
     24 C          -1.6322    3.5127   26.5759 C.3     1  UNL1        0.4186
     25 F          -2.6299    4.4340   25.9387 F       1  UNL1       -0.1659
     26 F          -1.3221    4.5597   27.6043 F       1  UNL1       -0.1659
     27 F          -1.9422    2.4657   25.5475 F       1  UNL1       -0.1659
@<TRIPOS>BOND
     1     1     2    2
     2     2    18    1
     3    18    19   ar
     4    19    20   ar
     5    20    21   ar
     6    21    24    1
     7    24    25    1
     8    24    26    1
     9    24    27    1
    10    21    22   ar
    11    22    23   ar
    12     2     3   am
    13     3     4    1
    14     4     5    1
    15     5     6    1
    16     6     7    1
    17     7     8    1
    18     8     9    1
    19     9    10   ar
    20    10    11   ar
    21    11    12   ar
    22    12    13   ar
    23    13    14   ar
    24    14    15    1
    25     6    16    1
    26    16    17    1
    27    23    18   ar
    28    17     3    1
    29    15     6    1
    30    14     9   ar
@<TRIPOS>MOLECULE
*****
 27 30 0 0 0
SMALL
GASTEIGER

@<TRIPOS>ATOM
      1 O          -1.1215    3.9175   23.1649 O.2     1  UNL1       -0.2699
      2 C          -0.9755    3.1322   21.8953 C.2     1  UNL1        0.2490
      3 N           0.0423    2.0340   21.8056 N.am    1  UNL1       -0.2758
      4 C           0.9142    1.7212   22.9854 C.3     1  UNL1        0.0973
      5 C           1.9320    0.6231   22.8956 C.3     1  UNL1        0.0616
      6 C           2.0780   -0.1623   21.6259 C.3     1  UNL1        0.1367
      7 C           2.9499   -0.4751   22.8058 C.3     1  UNL1        0.0449
      8 C           3.9677   -1.5733   22.7160 C.3     1  UNL1        0.0330
      9 C           4.1137   -2.3586   21.4464 C.ar    1  UNL1        0.0119
     10 C           5.1316   -3.4568   21.3566 C.ar    1  UNL1       -0.0013
     11 C           5.2775   -4.2421   20.0870 C.ar    1  UNL1       -0.0001
     12 C           4.4056   -3.9293   18.9071 C.ar    1  UNL1        0.0031
     13 C           3.3878   -2.8312   18.9970 C.ar    1  UNL1        0.0366
     14 C           3.2418   -2.0458   20.2666 C.ar    1  UNL1        0.1342
     15 O           2.2239   -0.9476   20.3563 O.3     1  UNL1       -0.4828
     16 C           1.2061    0.1505   20.4461 C.3     1  UNL1        0.0616
     17 C           0.1883    1.2486   20.5359 C.3     1  UNL1        0.0973
     18 C          -1.8474    3.4449   20.7155 C.ar    1  UNL1        0.0536
     19 C          -3.3281    3.2195   20.7965 C.ar    1  UNL1        0.0045
     20 C          -4.2000    3.5323   19.6166 C.ar    1  UNL1        0.0040
     21 C          -3.5911    4.0705   18.3558 C.ar    1  UNL1        0.0714
     22 C          -2.1103    4.2959   18.2749 C.ar    1  UNL1        0.0040
     23 C          -1.2385    3.9831   19.4547 C.ar    1  UNL1        0.0045
     24 C          -4.4630    4.3833   17.1760 C.3     1  UNL1        0.4186
     25 F          -5.3349    4.6961   15.9962 F       1  UNL1       -0.1659
     26 F          -3.9733    3.1448   16.4858 F       1  UNL1       -0.1659
     27 F          -4.9526    5.6218   17.8662 F       1  UNL1       -0.1659
@<TRIPOS>BOND
     1     1     2    2
     2     2    18    1
     3    18    19   ar
     4    19    20   ar
     5    20    21   ar
     6    21    24    1
     7    24    25    1
     8    24    26    1
     9    24    27    1
    10    21    22   ar
    11    22    23   ar
    12     2     3   am
    13     3     4    1
    14     4     5    1
    15     5     6    1
    16     6     7    1
    17     7     8    1
    18     8     9    1
    19     9    10   ar
    20    10    11   ar
    21    11    12   ar
    22    12    13   ar
    23    13    14   ar
    24    14    15    1
    25     6    16    1
    26    16    17    1
    27    23    18   ar
    28    17     3    1
    29    15     6    1
    30    14     9   ar
@<TRIPOS>MOLECULE
*****
 27 30 0 0 0
SMALL
GASTEIGER

@<TRIPOS>ATOM
      1 O           8.0749   -5.4961   23.8690 O.2     1  UNL1       -0.2699
      2 C           7.0728   -4.5613   24.4789 C.2     1  UNL1        0.2490
      3 N           6.1439   -3.7791   23.5983 N.am    1  UNL1       -0.2758
      4 C           6.2171   -3.9316   22.1079 C.3     1  UNL1        0.0973
      5 C           5.2883   -3.1494   21.2275 C.3     1  UNL1        0.0616
      6 C           4.2861   -2.2147   21.8374 C.3     1  UNL1        0.1367
      7 C           4.3594   -2.3671   20.3469 C.3     1  UNL1        0.0449
      8 C           3.4305   -1.5849   19.4664 C.3     1  UNL1        0.0330
      9 C           2.4284   -0.6502   20.0763 C.ar    1  UNL1        0.0119
     10 C           1.4995    0.1321   19.1958 C.ar    1  UNL1       -0.0013
     11 C           0.4973    1.0668   19.8057 C.ar    1  UNL1       -0.0001
     12 C           0.4241    1.2193   21.2962 C.ar    1  UNL1        0.0031
     13 C           1.3530    0.4371   22.1766 C.ar    1  UNL1        0.0366
     14 C           2.3551   -0.4977   21.5667 C.ar    1  UNL1        0.1342
     15 O           3.2840   -1.2799   22.4473 O.3     1  UNL1       -0.4828
     16 C           4.2129   -2.0621   23.3278 C.3     1  UNL1        0.0616
     17 C           5.1417   -2.8444   24.2082 C.3     1  UNL1        0.0973
     18 C           6.9995   -4.4088   25.9693 C.ar    1  UNL1        0.0536
     19 C           6.5216   -5.5500   26.8174 C.ar    1  UNL1        0.0045
     20 C           6.4483   -5.3975   28.3079 C.ar    1  UNL1        0.0040
     21 C           6.8529   -4.1038   28.9502 C.ar    1  UNL1        0.0714
     22 C           7.3308   -2.9626   28.1020 C.ar    1  UNL1        0.0040
     23 C           7.4041   -3.1151   26.6117 C.ar    1  UNL1        0.0045
     24 C           6.7797   -3.9512   30.4406 C.3     1  UNL1        0.4186
     25 F           6.7064   -3.7987   31.9310 F       1  UNL1       -0.1659
     26 F           6.5327   -5.4242   30.5791 F       1  UNL1       -0.1659
     27 F           7.0266   -2.4783   30.3020 F       1  UNL1       -0.1659
@<TRIPOS>BOND
     1     1     2    2
     2     2    18    1
     3    18    19   ar
     4    19    20   ar
     5    20    21   ar
     6    21    24    1
     7    24    25    1
     8    24    26    1
     9    24    27    1
    10    21    22   ar
    11    22    23   ar
    12     2     3   am
    13     3     4    1
    14     4     5    1
    15     5     6    1
    16     6     7    1
    17     7     8    1
    18     8     9    1
    19     9    10   ar
    20    10    11   ar
    21    11    12   ar
    22    12    13   ar
    23    13    14   ar
    24    14    15    1
    25     6    16    1
    26    16    17    1
    27    23    18   ar
    28    17     3    1
    29    15     6    1
    30    14     9   ar
@<TRIPOS>MOLECULE
*****
 27 30 0 0 0
SMALL
GASTEIGER

@<TRIPOS>ATOM
      1 O           4.1861    0.9202   24.3800 O.2     1  UNL1       -0.2699
      2 C           4.6087   -0.3504   23.7039 C.2     1  UNL1        0.2490
      3 N           5.2298   -1.4558   24.5054 N.am    1  UNL1       -0.2758
      4 C           5.4282   -1.2906   25.9830 C.3     1  UNL1        0.0973
      5 C           6.0493   -2.3960   26.7845 C.3     1  UNL1        0.0616
      6 C           6.4719   -3.6665   26.1084 C.3     1  UNL1        0.1367
      7 C           6.6704   -3.5014   27.5860 C.3     1  UNL1        0.0449
      8 C           7.2914   -4.6067   28.3875 C.3     1  UNL1        0.0330
      9 C           7.7141   -5.8773   27.7114 C.ar    1  UNL1        0.0119
     10 C           8.3352   -6.9827   28.5129 C.ar    1  UNL1       -0.0013
     11 C           8.7578   -8.2532   27.8368 C.ar    1  UNL1       -0.0001
     12 C           8.5594   -8.4183   26.3591 C.ar    1  UNL1        0.0031
     13 C           7.9383   -7.3130   25.5577 C.ar    1  UNL1        0.0366
     14 C           7.5157   -6.0424   26.2338 C.ar    1  UNL1        0.1342
     15 O           6.8946   -4.9370   25.4322 O.3     1  UNL1       -0.4828
     16 C           6.2735   -3.8317   24.6308 C.3     1  UNL1        0.0616
     17 C           5.6524   -2.7263   23.8293 C.3     1  UNL1        0.0973
     18 C           4.4103   -0.5155   22.2263 C.ar    1  UNL1        0.0536
     19 C           3.1671   -1.1738   21.7054 C.ar    1  UNL1        0.0045
     20 C           2.9687   -1.3389   20.2278 C.ar    1  UNL1        0.0040
     21 C           4.0134   -0.8458   19.2710 C.ar    1  UNL1        0.0714
     22 C           5.2566   -0.1875   19.7919 C.ar    1  UNL1        0.0040
     23 C           5.4550   -0.0224   21.2695 C.ar    1  UNL1        0.0045
     24 C           3.8150   -1.0110   17.7935 C.3     1  UNL1        0.4186
     25 F           3.6166   -1.1761   16.3158 F       1  UNL1       -0.1659
     26 F           4.6657   -2.2462   17.8173 F       1  UNL1       -0.1659
     27 F           2.9644    0.2242   17.7696 F       1  UNL1       -0.1659
@<TRIPOS>BOND
     1     1     2    2
     2     2    18    1
     3    18    19   ar
     4    19    20   ar
     5    20    21   ar
     6    21    24    1
     7    24    25    1
     8    24    26    1
     9    24    27    1
    10    21    22   ar
    11    22    23   ar
    12     2     3   am
    13     3     4    1
    14     4     5    1
    15     5     6    1
    16     6     7    1
    17     7     8    1
    18     8     9    1
    19     9    10   ar
    20    10    11   ar
    21    11    12   ar
    22    12    13   ar
    23    13    14   ar
    24    14    15    1
    25     6    16    1
    26    16    17    1
    27    23    18   ar
    28    17     3    1
    29    15     6    1
    30    14     9   ar
@<TRIPOS>MOLECULE
*****
 27 30 0 0 0
SMALL
GASTEIGER

@<TRIPOS>ATOM
      1 O           6.5439   -1.9836   18.2790 O.2     1  UNL1       -0.2699
      2 C           5.9089   -2.1718   19.6250 C.2     1  UNL1        0.2490
      3 N           6.5059   -3.1351   20.6078 N.am    1  UNL1       -0.2758
      4 C           7.7376   -3.9102   20.2446 C.3     1  UNL1        0.0973
      5 C           8.3344   -4.8734   21.2274 C.3     1  UNL1        0.0616
      6 C           7.6995   -5.0615   22.5733 C.3     1  UNL1        0.1367
      7 C           8.9314   -5.8367   22.2102 C.3     1  UNL1        0.0449
      8 C           9.5282   -6.8000   23.1930 C.3     1  UNL1        0.0330
      9 C           8.8932   -6.9881   24.5389 C.ar    1  UNL1        0.0119
     10 C           9.4901   -7.9514   25.5218 C.ar    1  UNL1       -0.0013
     11 C           8.8552   -8.1395   26.8677 C.ar    1  UNL1       -0.0001
     12 C           7.6234   -7.3643   27.2308 C.ar    1  UNL1        0.0031
     13 C           7.0265   -6.4011   26.2480 C.ar    1  UNL1        0.0366
     14 C           7.6615   -6.2130   24.9021 C.ar    1  UNL1        0.1342
     15 O           7.0646   -5.2497   23.9192 O.3     1  UNL1       -0.4828
     16 C           6.4677   -4.2864   22.9365 C.3     1  UNL1        0.0616
     17 C           5.8709   -3.3232   21.9537 C.3     1  UNL1        0.0973
     18 C           4.6772   -1.3967   19.9881 C.ar    1  UNL1        0.0536
     19 C           4.8020   -0.0217   20.5744 C.ar    1  UNL1        0.0045
     20 C           3.5701    0.7535   20.9375 C.ar    1  UNL1        0.0040
     21 C           2.2135    0.1536   20.7143 C.ar    1  UNL1        0.0714
     22 C           2.0888   -1.2214   20.1280 C.ar    1  UNL1        0.0040
     23 C           3.3205   -1.9965   19.7649 C.ar    1  UNL1        0.0045
     24 C           0.9818    0.9287   21.0774 C.3     1  UNL1        0.4186
     25 F          -0.2500    1.7039   21.4406 F       1  UNL1       -0.1659
     26 F           0.1365   -0.0728   20.3478 F       1  UNL1       -0.1659
     27 F           1.8271    1.9302   21.8070 F       1  UNL1       -0.1659
@<TRIPOS>BOND
     1     1     2    2
     2     2    18    1
     3    18    19   ar
     4    19    20   ar
     5    20    21   ar
     6    21    24    1
     7    24    25    1
     8    24    26    1
     9    24    27    1
    10    21    22   ar
    11    22    23   ar
    12     2     3   am
    13     3     4    1
    14     4     5    1
    15     5     6    1
    16     6     7    1
    17     7     8    1
    18     8     9    1
    19     9    10   ar
    20    10    11   ar
    21    11    12   ar
    22    12    13   ar
    23    13    14   ar
    24    14    15    1
    25     6    16    1
    26    16    17    1
    27    23    18   ar
    28    17     3    1
    29    15     6    1
    30    14     9   ar
@<TRIPOS>MOLECULE
*****
 27 30 0 0 0
SMALL
GASTEIGER

@<TRIPOS>ATOM
      1 O         -11.6904   -6.7810   19.3315 O.2     1  UNL1       -0.2699
      2 C         -13.0518   -6.2760   18.9553 C.2     1  UNL1        0.2490
      3 N         -13.2773   -4.8069   18.7528 N.am    1  UNL1       -0.2758
      4 C         -12.1413   -3.8429   18.9264 C.3     1  UNL1        0.0973
      5 C         -12.3667   -2.3739   18.7238 C.3     1  UNL1        0.0616
      6 C         -13.7282   -1.8689   18.3477 C.3     1  UNL1        0.1367
      7 C         -12.5922   -0.9047   18.5213 C.3     1  UNL1        0.0449
      8 C         -12.8176    0.5643   18.3187 C.3     1  UNL1        0.0330
      9 C         -14.1790    1.0693   17.9425 C.ar    1  UNL1        0.0119
     10 C         -14.4044    2.5384   17.7400 C.ar    1  UNL1       -0.0013
     11 C         -15.7659    3.0434   17.3638 C.ar    1  UNL1       -0.0001
     12 C         -16.9019    2.0793   17.1902 C.ar    1  UNL1        0.0031
     13 C         -16.6764    0.6103   17.3928 C.ar    1  UNL1        0.0366
     14 C         -15.3150    0.1053   17.7689 C.ar    1  UNL1        0.1342
     15 O         -15.0896   -1.3638   17.9715 O.3     1  UNL1       -0.4828
     16 C         -14.8641   -2.8329   18.1740 C.3     1  UNL1        0.0616
     17 C         -14.6387   -4.3019   18.3766 C.3     1  UNL1        0.0973
     18 C         -14.1878   -7.2401   18.7817 C.ar    1  UNL1        0.0536
     19 C         -15.4587   -7.0488   19.5552 C.ar    1  UNL1        0.0045
     20 C         -16.5947   -8.0129   19.3816 C.ar    1  UNL1        0.0040
     21 C         -16.4598   -9.1682   18.4345 C.ar    1  UNL1        0.0714
     22 C         -15.1889   -9.3594   17.6609 C.ar    1  UNL1        0.0040
     23 C         -14.0530   -8.3954   17.8346 C.ar    1  UNL1        0.0045
     24 C         -17.5958  -10.1322   18.2608 C.3     1  UNL1        0.4186
     25 F         -18.7318  -11.0962   18.0872 F       1  UNL1       -0.1659
     26 F         -17.0792  -10.9476   19.4089 F       1  UNL1       -0.1659
     27 F         -18.1123   -9.3167   17.1128 F       1  UNL1       -0.1659
@<TRIPOS>BOND
     1     1     2    2
     2     2    18    1
     3    18    19   ar
     4    19    20   ar
     5    20    21   ar
     6    21    24    1
     7    24    25    1
     8    24    26    1
     9    24    27    1
    10    21    22   ar
    11    22    23   ar
    12     2     3   am
    13     3     4    1
    14     4     5    1
    15     5     6    1
    16     6     7    1
    17     7     8    1
    18     8     9    1
    19     9    10   ar
    20    10    11   ar
    21    11    12   ar
    22    12    13   ar
    23    13    14   ar
    24    14    15    1
    25     6    16    1
    26    16    17    1
    27    23    18   ar
    28    17     3    1
    29    15     6    1
    30    14     9   ar
