@<TRIPOS>MOLECULE
*****
 34 37 0 0 0
SMALL
GASTEIGER

@<TRIPOS>ATOM
      1 C          -9.1798  -18.7024   20.9861 C.ar    1  UNL1        0.0949
      2 C          -9.8314  -19.1856   19.7243 C.ar    1  UNL1        0.1454
      3 F         -11.2306  -18.7593   19.3920 F       1  UNL1       -0.2040
      4 C          -9.0838  -20.0952   18.7950 C.ar    1  UNL1        0.0312
      5 C          -7.6846  -20.5215   19.1273 C.ar    1  UNL1        0.0204
      6 C          -7.0329  -20.0384   20.3890 C.ar    1  UNL1        0.0924
      7 C          -7.7806  -19.1288   21.3184 C.ar    1  UNL1        0.1598
      8 F          -7.1290  -18.6456   22.5801 F       1  UNL1       -0.2026
      9 C          -9.9274  -17.7928   21.9155 C.2     1  UNL1        0.2006
     10 O         -10.7718  -16.6839   21.3613 O.2     1  UNL1       -0.2866
     11 C          -8.1835  -15.9324   24.1444 C.2     1  UNL1        0.0659
     12 C          -7.5086  -15.2811   25.3149 C.2     1  UNL1        0.0573
     13 C          -7.6949  -15.8399   26.6944 C.2     1  UNL1        0.2361
     14 N          -8.5560  -17.0502   26.9033 N.2     1  UNL1       -0.0340
     15 C          -9.2309  -17.7015   25.7328 C.2     1  UNL1        0.3601
     16 N         -10.1319  -18.8965   25.6310 N.2     1  UNL1       -0.0342
     17 C         -10.5025  -19.0761   24.1887 C.2     1  UNL1        0.2354
     18 C          -9.8305  -17.9922   23.3990 C.2     1  UNL1        0.0799
     19 C          -9.0446  -17.1427   24.3533 C.3     1  UNL1        0.1729
     20 N          -7.8110  -14.8147   21.3854 N.1     1  UNL1       -0.1911
     21 C          -7.9972  -15.3736   22.7649 C.1     1  UNL1        0.0971
     22 N          -5.6338  -20.4647   20.7214 N.pl3   1  UNL1       -0.2127
     23 H          -5.4339  -21.4152   20.8824 H       1  UNL1        0.1738
     24 S          -4.5390  -19.4430   20.8083 S.O2    1  UNL1        0.0780
     25 O          -3.8820  -20.2394   21.8964 O.2     1  UNL1       -0.1498
     26 O          -5.1960  -18.6465   19.7202 O.2     1  UNL1       -0.1498
     27 C          -3.4444  -18.4212   20.8951 C.ar    1  UNL1        0.1797
     28 C          -3.3749  -17.4946   22.0728 C.ar    1  UNL1        0.1611
     29 F          -4.4002  -17.5900   23.1635 F       1  UNL1       -0.2027
     30 C          -2.2803  -16.4728   22.1597 C.ar    1  UNL1        0.0312
     31 C          -1.2550  -16.3774   21.0690 C.ar    1  UNL1        0.0047
     32 C          -1.3245  -17.3039   19.8914 C.ar    1  UNL1        0.0312
     33 C          -2.4191  -18.3258   19.8044 C.ar    1  UNL1        0.1611
     34 F          -2.4884  -19.2523   18.6268 F       1  UNL1       -0.2027
@<TRIPOS>BOND
     1    20    21    3
     2    21    11    1
     3    11    12    2
     4    12    13    1
     5    13    14    2
     6    14    15    1
     7    15    16    2
     8    16    17    1
     9    17    18    2
    10    18     9    1
    11     9    10    2
    12     9     1    1
    13     1     2   ar
    14     2     3    1
    15     2     4   ar
    16     4     5   ar
    17     5     6   ar
    18     6    22    1
    19    22    24    1
    20    24    25    2
    21    24    26    2
    22    24    27    1
    23    27    28   ar
    24    28    29    1
    25    28    30   ar
    26    30    31   ar
    27    31    32   ar
    28    32    33   ar
    29    33    34    1
    30     6     7   ar
    31     7     8    1
    32    18    19    1
    33    19    11    1
    34    19    15    1
    35     7     1   ar
    36    33    27   ar
    37    22    23    1
@<TRIPOS>MOLECULE
*****
 34 37 0 0 0
SMALL
GASTEIGER

@<TRIPOS>ATOM
      1 C          -8.7920  -18.8038   20.7815 C.ar    1  UNL1        0.0949
      2 C          -9.5409  -19.3698   19.6114 C.ar    1  UNL1        0.1454
      3 F         -10.9636  -18.9640   19.3642 F       1  UNL1       -0.2040
      4 C          -8.8669  -20.3415   18.6887 C.ar    1  UNL1        0.0312
      5 C          -7.4442  -20.7473   18.9359 C.ar    1  UNL1        0.0204
      6 C          -6.6953  -20.1813   20.1060 C.ar    1  UNL1        0.0924
      7 C          -7.3693  -19.2096   21.0287 C.ar    1  UNL1        0.1598
      8 F          -6.6205  -18.6436   22.1988 F       1  UNL1       -0.2026
      9 C          -9.4660  -17.8320   21.7043 C.2     1  UNL1        0.2006
     10 O          -9.5144  -16.3746   21.3532 O.2     1  UNL1       -0.2866
     11 C         -12.7146  -17.6025   22.6339 C.2     1  UNL1        0.0659
     12 C         -14.0725  -17.6266   23.2706 C.2     1  UNL1        0.0573
     13 C         -14.2549  -18.2442   24.6253 C.2     1  UNL1        0.2361
     14 N         -13.0794  -18.8377   25.3434 N.2     1  UNL1       -0.0340
     15 C         -11.7214  -18.8136   24.7068 C.2     1  UNL1        0.3601
     16 N         -10.3866  -19.3172   25.1702 N.2     1  UNL1       -0.0342
     17 C          -9.3792  -19.0108   24.1018 C.2     1  UNL1        0.2354
     18 C         -10.0915  -18.3178   22.9782 C.2     1  UNL1        0.0799
     19 C         -11.5390  -18.1960   23.3521 C.3     1  UNL1        0.1729
     20 N         -12.3498  -16.3672   19.9245 N.1     1  UNL1       -0.1911
     21 C         -12.5322  -16.9849   21.2792 C.1     1  UNL1        0.0971
     22 N          -5.2726  -20.5871   20.3532 N.pl3   1  UNL1       -0.2127
     23 H          -5.0361  -21.5409   20.4132 H       1  UNL1        0.1738
     24 S          -4.2102  -19.5397   20.5091 S.O2    1  UNL1        0.0780
     25 O          -4.9730  -18.6297   19.5926 O.2     1  UNL1       -0.1498
     26 O          -3.4475  -20.4498   21.4256 O.2     1  UNL1       -0.1498
     27 C          -3.1479  -18.4924   20.6650 C.ar    1  UNL1        0.1797
     28 C          -2.1761  -18.2381   19.5509 C.ar    1  UNL1        0.1611
     29 F          -2.2669  -19.0311   18.2810 F       1  UNL1       -0.2027
     30 C          -1.1137  -17.1907   19.7068 C.ar    1  UNL1        0.0312
     31 C          -1.0229  -16.3976   20.9767 C.ar    1  UNL1        0.0047
     32 C          -1.9946  -16.6520   22.0908 C.ar    1  UNL1        0.0312
     33 C          -3.0571  -17.6993   21.9350 C.ar    1  UNL1        0.1611
     34 F          -4.0287  -17.9535   23.0491 F       1  UNL1       -0.2027
@<TRIPOS>BOND
     1    20    21    3
     2    21    11    1
     3    11    12    2
     4    12    13    1
     5    13    14    2
     6    14    15    1
     7    15    16    2
     8    16    17    1
     9    17    18    2
    10    18     9    1
    11     9    10    2
    12     9     1    1
    13     1     2   ar
    14     2     3    1
    15     2     4   ar
    16     4     5   ar
    17     5     6   ar
    18     6    22    1
    19    22    24    1
    20    24    25    2
    21    24    26    2
    22    24    27    1
    23    27    28   ar
    24    28    29    1
    25    28    30   ar
    26    30    31   ar
    27    31    32   ar
    28    32    33   ar
    29    33    34    1
    30     6     7   ar
    31     7     8    1
    32    18    19    1
    33    19    11    1
    34    19    15    1
    35     7     1   ar
    36    33    27   ar
    37    22    23    1
@<TRIPOS>MOLECULE
*****
 34 37 0 0 0
SMALL
GASTEIGER

@<TRIPOS>ATOM
      1 C          -9.1119  -18.2535   21.2444 C.ar    1  UNL1        0.0949
      2 C          -9.7630  -18.6842   19.9636 C.ar    1  UNL1        0.1454
      3 F         -11.0947  -18.1162   19.5712 F       1  UNL1       -0.2040
      4 C          -9.0825  -19.6830   19.0752 C.ar    1  UNL1        0.0312
      5 C          -7.7508  -20.2510   19.4676 C.ar    1  UNL1        0.0204
      6 C          -7.0996  -19.8203   20.7484 C.ar    1  UNL1        0.0924
      7 C          -7.7802  -18.8215   21.6367 C.ar    1  UNL1        0.1598
      8 F          -7.1291  -18.3907   22.9176 F       1  UNL1       -0.2026
      9 C          -9.7924  -17.2546   22.1328 C.2     1  UNL1        0.2006
     10 O         -11.2895  -17.1634   22.1496 O.2     1  UNL1       -0.2866
     11 C          -9.3155  -17.4760   25.4785 C.2     1  UNL1        0.0659
     12 C          -8.9519  -17.3534   26.9286 C.2     1  UNL1        0.0573
     13 C          -8.0629  -16.2355   27.3870 C.2     1  UNL1        0.2361
     14 N          -7.5375  -15.2404   26.3953 N.2     1  UNL1       -0.0340
     15 C          -7.9010  -15.3630   24.9452 C.2     1  UNL1        0.3601
     16 N          -7.5374  -14.5385   23.7461 N.2     1  UNL1       -0.0342
     17 C          -8.2017  -15.1467   22.5466 C.2     1  UNL1        0.2354
     18 C          -8.9758  -16.3472   23.0044 C.2     1  UNL1        0.0799
     19 C          -8.7900  -16.4809   24.4868 C.3     1  UNL1        0.1729
     20 N         -11.0935  -19.7117   24.5618 N.1     1  UNL1       -0.1911
     21 C         -10.2045  -18.5939   25.0201 C.1     1  UNL1        0.0971
     22 N          -5.7679  -20.3883   21.1407 N.pl3   1  UNL1       -0.2127
     23 H          -5.7233  -21.2004   21.6955 H       1  UNL1        0.1738
     24 S          -4.5043  -19.7191   20.6878 S.O2    1  UNL1        0.0780
     25 O          -4.2518  -20.8447   19.7290 O.2     1  UNL1       -0.1498
     26 O          -4.7567  -18.5935   21.6466 O.2     1  UNL1       -0.1498
     27 C          -3.2406  -19.0498   20.2349 C.ar    1  UNL1        0.1797
     28 C          -1.9556  -19.2994   20.9673 C.ar    1  UNL1        0.1611
     29 F          -1.9343  -20.2184   22.1527 F       1  UNL1       -0.2027
     30 C          -0.6919  -18.6301   20.5145 C.ar    1  UNL1        0.0312
     31 C          -0.7131  -17.7112   19.3292 C.ar    1  UNL1        0.0047
     32 C          -1.9981  -17.4615   18.5967 C.ar    1  UNL1        0.0312
     33 C          -3.2618  -18.1308   19.0495 C.ar    1  UNL1        0.1611
     34 F          -4.5468  -17.8811   18.3170 F       1  UNL1       -0.2027
@<TRIPOS>BOND
     1    20    21    3
     2    21    11    1
     3    11    12    2
     4    12    13    1
     5    13    14    2
     6    14    15    1
     7    15    16    2
     8    16    17    1
     9    17    18    2
    10    18     9    1
    11     9    10    2
    12     9     1    1
    13     1     2   ar
    14     2     3    1
    15     2     4   ar
    16     4     5   ar
    17     5     6   ar
    18     6    22    1
    19    22    24    1
    20    24    25    2
    21    24    26    2
    22    24    27    1
    23    27    28   ar
    24    28    29    1
    25    28    30   ar
    26    30    31   ar
    27    31    32   ar
    28    32    33   ar
    29    33    34    1
    30     6     7   ar
    31     7     8    1
    32    18    19    1
    33    19    11    1
    34    19    15    1
    35     7     1   ar
    36    33    27   ar
    37    22    23    1
@<TRIPOS>MOLECULE
*****
 34 37 0 0 0
SMALL
GASTEIGER

@<TRIPOS>ATOM
      1 C          -7.8380  -16.0365   25.1304 C.ar    1  UNL1        0.0949
      2 C          -7.6729  -15.6934   26.5813 C.ar    1  UNL1        0.1454
      3 F          -8.8809  -15.5275   27.4549 F       1  UNL1       -0.2040
      4 C          -6.2998  -15.5162   27.1585 C.ar    1  UNL1        0.0312
      5 C          -5.0918  -15.6821   26.2849 C.ar    1  UNL1        0.0204
      6 C          -5.2569  -16.0252   24.8340 C.ar    1  UNL1        0.0924
      7 C          -6.6300  -16.2024   24.2568 C.ar    1  UNL1        0.1598
      8 F          -6.7951  -16.5455   22.8059 F       1  UNL1       -0.2026
      9 C          -9.2111  -16.2137   24.5531 C.2     1  UNL1        0.2006
     10 O         -10.0548  -15.0130   24.2426 O.2     1  UNL1       -0.2866
     11 C          -9.9442  -17.6045   21.5534 C.2     1  UNL1        0.0659
     12 C         -10.3386  -18.4373   20.3698 C.2     1  UNL1        0.0573
     13 C         -10.8416  -19.8361   20.5712 C.2     1  UNL1        0.2361
     14 N         -10.9502  -20.4020   21.9560 N.2     1  UNL1       -0.0340
     15 C         -10.5558  -19.5692   23.1396 C.2     1  UNL1        0.3601
     16 N         -10.5543  -19.8548   24.6121 N.2     1  UNL1       -0.0342
     17 C         -10.0504  -18.6326   25.3209 C.2     1  UNL1        0.2354
     18 C          -9.7405  -17.5916   24.2864 C.2     1  UNL1        0.0799
     19 C         -10.0528  -18.1704   22.9382 C.3     1  UNL1        0.1729
     20 N          -8.9383  -14.8070   21.1507 N.1     1  UNL1       -0.1911
     21 C          -9.4413  -16.2057   21.3520 C.1     1  UNL1        0.0971
     22 N          -4.0489  -16.1911   23.9604 N.pl3   1  UNL1       -0.2127
     23 H          -3.3012  -15.5542   24.0281 H       1  UNL1        0.1738
     24 S          -3.9801  -17.3274   22.9836 S.O2    1  UNL1        0.0780
     25 O          -3.8758  -16.3483   21.8520 O.2     1  UNL1       -0.1498
     26 O          -4.0844  -18.3065   24.1151 O.2     1  UNL1       -0.1498
     27 C          -3.9113  -18.4637   22.0069 C.ar    1  UNL1        0.1797
     28 C          -2.5985  -18.8419   21.3875 C.ar    1  UNL1        0.1611
     29 F          -1.3546  -18.0838   21.7450 F       1  UNL1       -0.2027
     30 C          -2.5296  -19.9782   20.4108 C.ar    1  UNL1        0.0312
     31 C          -3.7736  -20.7364   20.0533 C.ar    1  UNL1        0.0047
     32 C          -5.0864  -20.3581   20.6727 C.ar    1  UNL1        0.0312
     33 C          -5.1553  -19.2218   21.6494 C.ar    1  UNL1        0.1611
     34 F          -6.4681  -18.8437   22.2687 F       1  UNL1       -0.2027
@<TRIPOS>BOND
     1    20    21    3
     2    21    11    1
     3    11    12    2
     4    12    13    1
     5    13    14    2
     6    14    15    1
     7    15    16    2
     8    16    17    1
     9    17    18    2
    10    18     9    1
    11     9    10    2
    12     9     1    1
    13     1     2   ar
    14     2     3    1
    15     2     4   ar
    16     4     5   ar
    17     5     6   ar
    18     6    22    1
    19    22    24    1
    20    24    25    2
    21    24    26    2
    22    24    27    1
    23    27    28   ar
    24    28    29    1
    25    28    30   ar
    26    30    31   ar
    27    31    32   ar
    28    32    33   ar
    29    33    34    1
    30     6     7   ar
    31     7     8    1
    32    18    19    1
    33    19    11    1
    34    19    15    1
    35     7     1   ar
    36    33    27   ar
    37    22    23    1
@<TRIPOS>MOLECULE
*****
 34 37 0 0 0
SMALL
GASTEIGER

@<TRIPOS>ATOM
      1 C          -8.3189  -16.8766   25.3324 C.ar    1  UNL1        0.0949
      2 C          -8.2330  -16.5387   26.7913 C.ar    1  UNL1        0.1454
      3 F          -9.3234  -16.9704   27.7266 F       1  UNL1       -0.2040
      4 C          -7.0568  -15.7690   27.3148 C.ar    1  UNL1        0.0312
      5 C          -5.9665  -15.3373   26.3796 C.ar    1  UNL1        0.0204
      6 C          -6.0523  -15.6753   24.9207 C.ar    1  UNL1        0.0924
      7 C          -7.2285  -16.4450   24.3971 C.ar    1  UNL1        0.1598
      8 F          -7.3144  -16.7830   22.9382 F       1  UNL1       -0.2026
      9 C          -9.4951  -17.6464   24.8087 C.2     1  UNL1        0.2006
     10 O          -9.9002  -18.9338   25.4630 O.2     1  UNL1       -0.2866
     11 C          -9.8029  -19.0671   21.7498 C.2     1  UNL1        0.0659
     12 C         -10.0928  -19.4817   20.3377 C.2     1  UNL1        0.0573
     13 C         -10.9567  -18.6199   19.4654 C.2     1  UNL1        0.2361
     14 N         -11.5308  -17.3436   20.0051 N.2     1  UNL1       -0.0340
     15 C         -11.2410  -16.9290   21.4172 C.2     1  UNL1        0.3601
     16 N         -11.6640  -15.7342   22.2194 N.2     1  UNL1       -0.0342
     17 C         -11.0615  -15.8575   23.5875 C.2     1  UNL1        0.2354
     18 C         -10.2661  -17.1285   23.6308 C.2     1  UNL1        0.0799
     19 C         -10.3770  -17.7907   22.2895 C.3     1  UNL1        0.1729
     20 N          -8.0750  -20.7905   23.4945 N.1     1  UNL1       -0.1911
     21 C          -8.9390  -19.9288   22.6222 C.1     1  UNL1        0.0971
     22 N          -4.9620  -15.2436   23.9854 N.pl3   1  UNL1       -0.2127
     23 H          -4.7359  -14.2892   23.8999 H       1  UNL1        0.1738
     24 S          -4.2160  -16.2660   23.1803 S.O2    1  UNL1        0.0780
     25 O          -4.1781  -15.3213   22.0158 O.2     1  UNL1       -0.1498
     26 O          -4.2540  -17.2107   24.3448 O.2     1  UNL1       -0.1498
     27 C          -3.4701  -17.2885   22.3752 C.ar    1  UNL1        0.1797
     28 C          -4.0596  -18.6513   22.1625 C.ar    1  UNL1        0.1611
     29 F          -5.3950  -18.9916   22.7549 F       1  UNL1       -0.2027
     30 C          -3.3137  -19.6739   21.3575 C.ar    1  UNL1        0.0312
     31 C          -1.9783  -19.3336   20.7652 C.ar    1  UNL1        0.0047
     32 C          -1.3888  -17.9708   20.9779 C.ar    1  UNL1        0.0312
     33 C          -2.1347  -16.9482   21.7829 C.ar    1  UNL1        0.1611
     34 F          -1.5451  -15.5854   21.9956 F       1  UNL1       -0.2027
@<TRIPOS>BOND
     1    20    21    3
     2    21    11    1
     3    11    12    2
     4    12    13    1
     5    13    14    2
     6    14    15    1
     7    15    16    2
     8    16    17    1
     9    17    18    2
    10    18     9    1
    11     9    10    2
    12     9     1    1
    13     1     2   ar
    14     2     3    1
    15     2     4   ar
    16     4     5   ar
    17     5     6   ar
    18     6    22    1
    19    22    24    1
    20    24    25    2
    21    24    26    2
    22    24    27    1
    23    27    28   ar
    24    28    29    1
    25    28    30   ar
    26    30    31   ar
    27    31    32   ar
    28    32    33   ar
    29    33    34    1
    30     6     7   ar
    31     7     8    1
    32    18    19    1
    33    19    11    1
    34    19    15    1
    35     7     1   ar
    36    33    27   ar
    37    22    23    1
@<TRIPOS>MOLECULE
*****
 34 37 0 0 0
SMALL
GASTEIGER

@<TRIPOS>ATOM
      1 C          -7.8448  -16.4135   24.9459 C.ar    1  UNL1        0.0949
      2 C          -7.6948  -15.8822   26.3406 C.ar    1  UNL1        0.1454
      3 F          -8.8881  -15.8054   27.2463 F       1  UNL1       -0.2040
      4 C          -6.3516  -15.4278   26.8296 C.ar    1  UNL1        0.0312
      5 C          -5.1583  -15.5047   25.9239 C.ar    1  UNL1        0.0204
      6 C          -5.3083  -16.0360   24.5292 C.ar    1  UNL1        0.0924
      7 C          -6.6516  -16.4904   24.0402 C.ar    1  UNL1        0.1598
      8 F          -6.8017  -17.0217   22.6455 F       1  UNL1       -0.2026
      9 C          -9.1882  -16.8680   24.4569 C.2     1  UNL1        0.2006
     10 O         -10.1476  -17.5261   25.4035 O.2     1  UNL1       -0.2866
     11 C         -10.1339  -19.2220   22.2131 C.2     1  UNL1        0.0659
     12 C         -10.5749  -20.0572   21.0479 C.2     1  UNL1        0.0573
     13 C         -10.8679  -19.4078   19.7279 C.2     1  UNL1        0.2361
     14 N         -10.7199  -17.9232   19.5731 N.2     1  UNL1       -0.0340
     15 C         -10.2789  -17.0880   20.7384 C.2     1  UNL1        0.3601
     16 N         -10.0460  -15.6135   20.8854 N.2     1  UNL1       -0.0342
     17 C          -9.6091  -15.3516   22.2962 C.2     1  UNL1        0.2354
     18 C          -9.5719  -16.6642   23.0212 C.2     1  UNL1        0.0799
     19 C          -9.9859  -17.7374   22.0584 C.3     1  UNL1        0.1729
     20 N          -9.5479  -20.5208   24.8532 N.1     1  UNL1       -0.1911
     21 C          -9.8409  -19.8714   23.5331 C.1     1  UNL1        0.0971
     22 N          -4.1151  -16.1129   23.6235 N.pl3   1  UNL1       -0.2127
     23 H          -3.4471  -15.3897   23.6270 H       1  UNL1        0.1738
     24 S          -3.9397  -17.2916   22.7125 S.O2    1  UNL1        0.0780
     25 O          -4.1431  -18.2192   23.8736 O.2     1  UNL1       -0.1498
     26 O          -3.7363  -16.3639   21.5515 O.2     1  UNL1       -0.1498
     27 C          -3.7643  -18.4702   21.8015 C.ar    1  UNL1        0.1797
     28 C          -2.3988  -18.8304   21.2956 C.ar    1  UNL1        0.1611
     29 F          -1.2089  -18.0120   21.7008 F       1  UNL1       -0.2027
     30 C          -2.2233  -20.0090   20.3845 C.ar    1  UNL1        0.0312
     31 C          -3.4132  -20.8275   19.9793 C.ar    1  UNL1        0.0047
     32 C          -4.7787  -20.4672   20.4852 C.ar    1  UNL1        0.0312
     33 C          -4.9542  -19.2886   21.3963 C.ar    1  UNL1        0.1611
     34 F          -6.3196  -18.9285   21.9021 F       1  UNL1       -0.2027
@<TRIPOS>BOND
     1    20    21    3
     2    21    11    1
     3    11    12    2
     4    12    13    1
     5    13    14    2
     6    14    15    1
     7    15    16    2
     8    16    17    1
     9    17    18    2
    10    18     9    1
    11     9    10    2
    12     9     1    1
    13     1     2   ar
    14     2     3    1
    15     2     4   ar
    16     4     5   ar
    17     5     6   ar
    18     6    22    1
    19    22    24    1
    20    24    25    2
    21    24    26    2
    22    24    27    1
    23    27    28   ar
    24    28    29    1
    25    28    30   ar
    26    30    31   ar
    27    31    32   ar
    28    32    33   ar
    29    33    34    1
    30     6     7   ar
    31     7     8    1
    32    18    19    1
    33    19    11    1
    34    19    15    1
    35     7     1   ar
    36    33    27   ar
    37    22    23    1
