@<TRIPOS>MOLECULE
*****
 18 19 0 0 0
SMALL
GASTEIGER

@<TRIPOS>ATOM
      1 C          -7.6449  -15.5769   23.0060 C.2     1  UNL1        0.1535
      2 N          -8.3649  -15.4411   21.6971 N.2     1  UNL1       -0.2471
      3 C          -9.7289  -16.0452   21.8535 C.3     1  UNL1        0.1696
      4 C          -9.8520  -16.5544   23.2591 C.3     1  UNL1        0.1936
      5 O         -11.1209  -17.2157   23.7088 O.3     1  UNL1       -0.3427
      6 C         -12.2669  -17.3680   22.7530 C.3     1  UNL1        0.1480
      7 C         -12.1439  -16.8588   21.3474 C.3     1  UNL1        0.0635
      8 C         -10.8748  -16.1974   20.8977 C.3     1  UNL1        0.1386
      9 O         -10.7518  -15.6882   19.4921 O.3     1  UNL1       -0.3823
     10 S          -8.5639  -16.2649   23.9713 S.3     1  UNL1       -0.0497
     11 H         -11.5753  -15.8649   19.0110 H       1  UNL1        0.2104
     12 C         -13.5359  -18.0293   23.2027 C.3     1  UNL1        0.1667
     13 O         -14.0246  -17.8370   24.6077 O.3     1  UNL1       -0.3795
     14 H         -13.3999  -18.2469   25.2263 H       1  UNL1        0.2105
     15 N          -6.2506  -15.1072   23.2982 N.pl3   1  UNL1       -0.3135
     16 H          -5.8807  -14.3330   22.8155 H       1  UNL1        0.1487
     17 C          -5.3588  -15.2960   25.7311 C.3     1  UNL1        0.0230
     18 C          -5.4199  -15.8170   24.3258 C.3     1  UNL1        0.0887
@<TRIPOS>BOND
     1    17    18    1
     2    18    15    1
     3    15     1    1
     4     1     2    2
     5     3     2    1
     6     3     4    1
     7     4     5    1
     8     5     6    1
     9     6    12    1
    10    12    13    1
    11     6     7    1
    12     7     8    1
    13     8     9    1
    14     4    10    1
    15    10     1    1
    16     8     3    1
    17    15    16    1
    18    13    14    1
    19     9    11    1
@<TRIPOS>MOLECULE
*****
 18 19 0 0 0
SMALL
GASTEIGER

@<TRIPOS>ATOM
      1 C          -8.1243  -18.0732   22.1241 C.2     1  UNL1        0.1535
      2 N          -9.1164  -17.7296   21.0527 N.2     1  UNL1       -0.2471
      3 C         -10.4876  -17.7749   21.6590 C.3     1  UNL1        0.1696
      4 C         -10.3431  -18.1464   23.1050 C.3     1  UNL1        0.1936
      5 O         -11.5601  -18.2689   23.9732 O.3     1  UNL1       -0.3427
      6 C         -12.9218  -18.0198   23.3954 C.3     1  UNL1        0.1480
      7 C         -13.0664  -17.6482   21.9493 C.3     1  UNL1        0.0635
      8 C         -11.8492  -17.5258   21.0811 C.3     1  UNL1        0.1386
      9 O         -11.9938  -17.1542   19.6351 O.3     1  UNL1       -0.3823
     10 S          -8.8825  -18.3308   23.3924 S.3     1  UNL1       -0.0497
     11 H         -12.9327  -17.0296   19.4256 H       1  UNL1        0.2104
     12 C         -14.1388  -18.1422   24.2636 C.3     1  UNL1        0.1667
     13 O         -13.9920  -18.4815   25.7172 O.3     1  UNL1       -0.3795
     14 H         -13.6386  -19.3806   25.8053 H       1  UNL1        0.2105
     15 N          -6.6355  -18.1463   21.9564 N.pl3   1  UNL1       -0.3135
     16 H          -6.1158  -17.3234   21.8080 H       1  UNL1        0.1487
     17 C          -6.0728  -20.4418   20.8776 C.3     1  UNL1        0.0230
     18 C          -5.9384  -19.4732   22.0150 C.3     1  UNL1        0.0887
@<TRIPOS>BOND
     1    17    18    1
     2    18    15    1
     3    15     1    1
     4     1     2    2
     5     3     2    1
     6     3     4    1
     7     4     5    1
     8     5     6    1
     9     6    12    1
    10    12    13    1
    11     6     7    1
    12     7     8    1
    13     8     9    1
    14     4    10    1
    15    10     1    1
    16     8     3    1
    17    15    16    1
    18    13    14    1
    19     9    11    1
@<TRIPOS>MOLECULE
*****
 18 19 0 0 0
SMALL
GASTEIGER

@<TRIPOS>ATOM
      1 C           7.1005  -12.7400   27.9833 C.2     1  UNL1        0.1535
      2 N           6.2749  -13.2059   26.8208 N.2     1  UNL1       -0.2471
      3 C           4.8517  -13.3226   27.2802 C.3     1  UNL1        0.1696
      4 C           4.7978  -12.9289   28.7266 C.3     1  UNL1        0.1936
      5 O           3.4901  -12.9491   29.4611 O.3     1  UNL1       -0.3427
      6 C           2.2363  -13.3631   28.7493 C.3     1  UNL1        0.1480
      7 C           2.2903  -13.7568   27.3029 C.3     1  UNL1        0.0635
      8 C           3.5980  -13.7366   26.5683 C.3     1  UNL1        0.1386
      9 O           3.6520  -14.1303   25.1219 O.3     1  UNL1       -0.3823
     10 S           6.1876  -12.5688   29.1611 S.3     1  UNL1       -0.0497
     11 H           2.7620  -14.3680   24.8181 H       1  UNL1        0.2104
     12 C           0.9287  -13.3833   29.4838 C.3     1  UNL1        0.1667
     13 O           0.9112  -13.4076   30.9835 O.3     1  UNL1       -0.3795
     14 H           1.2869  -14.2449   31.2977 H       1  UNL1        0.2105
     15 N           8.5793  -12.4893   27.9702 N.pl3   1  UNL1       -0.3135
     16 H           8.9221  -11.5706   27.8823 H       1  UNL1        0.1487
     17 C           9.4878  -14.5308   29.2957 C.3     1  UNL1        0.0230
     18 C           9.5359  -13.6383   28.0910 C.3     1  UNL1        0.0887
@<TRIPOS>BOND
     1    17    18    1
     2    18    15    1
     3    15     1    1
     4     1     2    2
     5     3     2    1
     6     3     4    1
     7     4     5    1
     8     5     6    1
     9     6    12    1
    10    12    13    1
    11     6     7    1
    12     7     8    1
    13     8     9    1
    14     4    10    1
    15    10     1    1
    16     8     3    1
    17    15    16    1
    18    13    14    1
    19     9    11    1
@<TRIPOS>MOLECULE
*****
 18 19 0 0 0
SMALL
GASTEIGER

@<TRIPOS>ATOM
      1 C          -8.6116  -16.0601   25.8886 C.2     1  UNL1        0.1535
      2 N          -9.0151  -17.4868   26.1156 N.2     1  UNL1       -0.2471
      3 C          -9.6410  -17.9983   24.8520 C.3     1  UNL1        0.1696
      4 C          -9.6242  -16.8876   23.8440 C.3     1  UNL1        0.1936
      5 O         -10.1904  -17.1104   22.4730 O.3     1  UNL1       -0.3427
      6 C         -10.7734  -18.4440   22.1099 C.3     1  UNL1        0.1480
      7 C         -10.7901  -19.5547   23.1179 C.3     1  UNL1        0.0635
      8 C         -10.2239  -19.3318   24.4890 C.3     1  UNL1        0.1386
      9 O         -10.2406  -20.4425   25.4970 O.3     1  UNL1       -0.3823
     10 S          -8.9881  -15.6897   24.4847 S.3     1  UNL1       -0.0497
     11 H         -10.6487  -21.2298   25.1039 H       1  UNL1        0.2104
     12 C         -11.3396  -18.6669   20.7389 C.3     1  UNL1        0.1667
     13 O         -11.9014  -17.5128   19.9629 O.3     1  UNL1       -0.3795
     14 H         -12.6921  -17.1754   20.4121 H       1  UNL1        0.2105
     15 N          -7.9482  -15.1614   26.8898 N.pl3   1  UNL1       -0.3135
     16 H          -8.4720  -14.4674   27.3515 H       1  UNL1        0.1487
     17 C          -5.4901  -15.3346   26.0665 C.3     1  UNL1        0.0230
     18 C          -6.4867  -15.3203   27.1875 C.3     1  UNL1        0.0887
@<TRIPOS>BOND
     1    17    18    1
     2    18    15    1
     3    15     1    1
     4     1     2    2
     5     3     2    1
     6     3     4    1
     7     4     5    1
     8     5     6    1
     9     6    12    1
    10    12    13    1
    11     6     7    1
    12     7     8    1
    13     8     9    1
    14     4    10    1
    15    10     1    1
    16     8     3    1
    17    15    16    1
    18    13    14    1
    19     9    11    1
@<TRIPOS>MOLECULE
*****
 18 19 0 0 0
SMALL
GASTEIGER

@<TRIPOS>ATOM
      1 C          -9.4737  -17.3985   22.1404 C.2     1  UNL1        0.1535
      2 N          -8.9590  -16.2493   22.9555 N.2     1  UNL1       -0.2471
      3 C          -7.4829  -16.4384   23.1433 C.3     1  UNL1        0.1696
      4 C          -7.0852  -17.7046   22.4442 C.3     1  UNL1        0.1936
      5 O          -5.6542  -18.1536   22.4623 O.3     1  UNL1       -0.3427
      6 C          -4.6207  -17.3365   23.1795 C.3     1  UNL1        0.1480
      7 C          -5.0184  -16.0703   23.8785 C.3     1  UNL1        0.0635
      8 C          -6.4495  -15.6213   23.8604 C.3     1  UNL1        0.1386
      9 O          -6.8472  -14.3551   24.5595 O.3     1  UNL1       -0.3823
     10 S          -8.3156  -18.2979   21.8244 S.3     1  UNL1       -0.0497
     11 H          -6.0654  -13.9526   24.9690 H       1  UNL1        0.2104
     12 C          -3.1896  -17.7855   23.1976 C.3     1  UNL1        0.1667
     13 O          -2.1391  -16.9706   22.5032 O.3     1  UNL1       -0.3795
     14 H          -2.3007  -16.9820   21.5469 H       1  UNL1        0.2105
     15 N         -10.8966  -17.6110   21.7159 N.pl3   1  UNL1       -0.3135
     16 H         -11.0993  -18.1901   20.9460 H       1  UNL1        0.1487
     17 C         -13.0082  -17.7670   23.2216 C.3     1  UNL1        0.0230
     18 C         -12.0106  -16.9413   22.4645 C.3     1  UNL1        0.0887
@<TRIPOS>BOND
     1    17    18    1
     2    18    15    1
     3    15     1    1
     4     1     2    2
     5     3     2    1
     6     3     4    1
     7     4     5    1
     8     5     6    1
     9     6    12    1
    10    12    13    1
    11     6     7    1
    12     7     8    1
    13     8     9    1
    14     4    10    1
    15    10     1    1
    16     8     3    1
    17    15    16    1
    18    13    14    1
    19     9    11    1
@<TRIPOS>MOLECULE
*****
 18 19 0 0 0
SMALL
GASTEIGER

@<TRIPOS>ATOM
      1 C          -5.6872  -18.9659   22.2296 C.2     1  UNL1        0.1535
      2 N          -6.0647  -17.5338   22.4674 N.2     1  UNL1       -0.2471
      3 C          -7.5510  -17.4131   22.3052 C.3     1  UNL1        0.1696
      4 C          -8.0921  -18.7706   21.9671 C.3     1  UNL1        0.1936
      5 O          -9.5638  -18.9576   21.7455 O.3     1  UNL1       -0.3427
      6 C         -10.4945  -17.7869   21.8620 C.3     1  UNL1        0.1480
      7 C          -9.9533  -16.4294   22.2001 C.3     1  UNL1        0.0635
      8 C          -8.4816  -16.2425   22.4217 C.3     1  UNL1        0.1386
      9 O          -7.9405  -14.8849   22.7598 O.3     1  UNL1       -0.3823
     10 S          -6.9402  -19.7303   21.9204 S.3     1  UNL1       -0.0497
     11 H          -8.6695  -14.2460   22.7956 H       1  UNL1        0.2104
     12 C         -11.9661  -17.9738   21.6404 C.3     1  UNL1        0.1667
     13 O         -12.6923  -17.1065   20.6553 O.3     1  UNL1       -0.3795
     14 H         -12.6908  -16.1889   20.9697 H       1  UNL1        0.2105
     15 N          -4.3002  -19.5339   22.2903 N.pl3   1  UNL1       -0.3135
     16 H          -3.8816  -19.7185   23.1620 H       1  UNL1        0.1487
     17 C          -3.8909  -19.0758   19.7659 C.3     1  UNL1        0.0230
     18 C          -3.5510  -19.8205   21.0228 C.3     1  UNL1        0.0887
@<TRIPOS>BOND
     1    17    18    1
     2    18    15    1
     3    15     1    1
     4     1     2    2
     5     3     2    1
     6     3     4    1
     7     4     5    1
     8     5     6    1
     9     6    12    1
    10    12    13    1
    11     6     7    1
    12     7     8    1
    13     8     9    1
    14     4    10    1
    15    10     1    1
    16     8     3    1
    17    15    16    1
    18    13    14    1
    19     9    11    1
@<TRIPOS>MOLECULE
*****
 18 19 0 0 0
SMALL
GASTEIGER

@<TRIPOS>ATOM
      1 C           4.5240  -11.9212   27.7939 C.2     1  UNL1        0.1535
      2 N           3.0430  -11.7221   27.9242 N.2     1  UNL1       -0.2471
      3 C           2.4132  -13.0640   28.1538 C.3     1  UNL1        0.1696
      4 C           3.5051  -14.0925   28.1653 C.3     1  UNL1        0.1936
      5 O           3.1704  -15.5393   28.3768 O.3     1  UNL1       -0.3427
      6 C           1.7438  -15.9576   28.5768 C.3     1  UNL1        0.1480
      7 C           0.6520  -14.9292   28.5653 C.3     1  UNL1        0.0635
      8 C           0.9867  -13.4823   28.3538 C.3     1  UNL1        0.1386
      9 O          -0.1051  -12.4538   28.3423 O.3     1  UNL1       -0.3823
     10 S           4.8095  -13.3862   27.9428 S.3     1  UNL1       -0.0497
     11 H          -0.9604  -12.8887   28.4846 H       1  UNL1        0.2104
     12 C           1.4092  -17.4044   28.7883 C.3     1  UNL1        0.1667
     13 O           2.5057  -18.4025   29.0146 O.3     1  UNL1       -0.3795
     14 H           3.0462  -18.4765   28.2126 H       1  UNL1        0.2105
     15 N           5.5408  -10.8443   27.5563 N.pl3   1  UNL1       -0.3135
     16 H           5.2737  -10.0023   27.1216 H       1  UNL1        0.1487
     17 C           7.9754   -9.9625   27.7690 C.3     1  UNL1        0.0230
     18 C           6.9646  -11.0503   27.9810 C.3     1  UNL1        0.0887
@<TRIPOS>BOND
     1    17    18    1
     2    18    15    1
     3    15     1    1
     4     1     2    2
     5     3     2    1
     6     3     4    1
     7     4     5    1
     8     5     6    1
     9     6    12    1
    10    12    13    1
    11     6     7    1
    12     7     8    1
    13     8     9    1
    14     4    10    1
    15    10     1    1
    16     8     3    1
    17    15    16    1
    18    13    14    1
    19     9    11    1
@<TRIPOS>MOLECULE
*****
 18 19 0 0 0
SMALL
GASTEIGER

@<TRIPOS>ATOM
      1 C         -14.4362   -4.0728   19.9225 C.2     1  UNL1        0.1535
      2 N         -13.1873   -3.2915   19.6403 N.2     1  UNL1       -0.2471
      3 C         -12.0891   -4.2669   19.3359 C.3     1  UNL1        0.1696
      4 C         -12.6594   -5.6511   19.4301 C.3     1  UNL1        0.1936
      5 O         -11.7841   -6.8419   19.1736 O.3     1  UNL1       -0.3427
      6 C         -10.3385   -6.6485   18.8229 C.3     1  UNL1        0.1480
      7 C          -9.7682   -5.2644   18.7287 C.3     1  UNL1        0.0635
      8 C         -10.6436   -4.0735   18.9853 C.3     1  UNL1        0.1386
      9 O         -10.0733   -2.6893   18.8911 O.3     1  UNL1       -0.3823
     10 S         -14.1100   -5.5311   19.7926 S.3     1  UNL1       -0.0497
     11 H          -9.1335   -2.7421   18.6571 H       1  UNL1        0.2104
     12 C          -9.4632   -7.8393   18.5664 C.3     1  UNL1        0.1667
     13 O          -9.8680   -8.8618   17.5464 O.3     1  UNL1       -0.3795
     14 H         -10.6736   -9.3134   17.8432 H       1  UNL1        0.2105
     15 N         -15.7762   -3.4969   20.2730 N.pl3   1  UNL1       -0.3135
     16 H         -16.3073   -3.8936   21.0009 H       1  UNL1        0.1487
     17 C         -15.9432   -0.9255   19.9417 C.3     1  UNL1        0.0230
     18 C         -16.3069   -2.3166   19.5146 C.3     1  UNL1        0.0887
@<TRIPOS>BOND
     1    17    18    1
     2    18    15    1
     3    15     1    1
     4     1     2    2
     5     3     2    1
     6     3     4    1
     7     4     5    1
     8     5     6    1
     9     6    12    1
    10    12    13    1
    11     6     7    1
    12     7     8    1
    13     8     9    1
    14     4    10    1
    15    10     1    1
    16     8     3    1
    17    15    16    1
    18    13    14    1
    19     9    11    1
@<TRIPOS>MOLECULE
*****
 18 19 0 0 0
SMALL
GASTEIGER

@<TRIPOS>ATOM
      1 C          -8.0812  -15.8536   24.2699 C.2     1  UNL1        0.1535
      2 N          -9.1101  -16.8097   24.7965 N.2     1  UNL1       -0.2471
      3 C          -9.5938  -17.6478   23.6503 C.3     1  UNL1        0.1696
      4 C          -8.8637  -17.2098   22.4154 C.3     1  UNL1        0.1936
      5 O          -9.1445  -17.8772   21.1017 O.3     1  UNL1       -0.3427
      6 C         -10.1553  -18.9827   21.0230 C.3     1  UNL1        0.1480
      7 C         -10.8854  -19.4207   22.2580 C.3     1  UNL1        0.0635
      8 C         -10.6046  -18.7533   23.5717 C.3     1  UNL1        0.1386
      9 O         -11.3346  -19.1913   24.8067 O.3     1  UNL1       -0.3823
     10 S          -7.9289  -16.1009   22.7983 S.3     1  UNL1       -0.0497
     11 H         -11.9466  -19.9098   24.5827 H       1  UNL1        0.2104
     12 C         -10.4361  -19.6501   19.7094 C.3     1  UNL1        0.1667
     13 O          -9.3016  -20.1434   18.8612 O.3     1  UNL1       -0.3795
     14 H          -8.7777  -19.3884   18.5510 H       1  UNL1        0.2105
     15 N          -7.3355  -14.8301   25.0738 N.pl3   1  UNL1       -0.3135
     16 H          -7.4981  -13.8710   24.9220 H       1  UNL1        0.1487
     17 C          -6.8185  -15.8268   27.4167 C.3     1  UNL1        0.0230
     18 C          -6.3420  -15.2677   26.1089 C.3     1  UNL1        0.0887
@<TRIPOS>BOND
     1    17    18    1
     2    18    15    1
     3    15     1    1
     4     1     2    2
     5     3     2    1
     6     3     4    1
     7     4     5    1
     8     5     6    1
     9     6    12    1
    10    12    13    1
    11     6     7    1
    12     7     8    1
    13     8     9    1
    14     4    10    1
    15    10     1    1
    16     8     3    1
    17    15    16    1
    18    13    14    1
    19     9    11    1
