@<TRIPOS>MOLECULE
*****
 29 31 0 0 0
SMALL
GASTEIGER

@<TRIPOS>ATOM
      1 C         -12.6213   -2.5162   18.9002 C.ar    1  UNL1        0.1432
      2 C         -11.1562   -2.4458   18.5863 C.ar    1  UNL1        0.0384
      3 C         -10.3274   -3.6960   18.5906 C.ar    1  UNL1        0.0215
      4 C         -10.9636   -5.0166   18.9087 C.ar    1  UNL1        0.1061
      5 C         -12.4287   -5.0870   19.2226 C.ar    1  UNL1        0.0259
      6 C         -13.2576   -3.8368   19.2183 C.ar    1  UNL1        0.0888
      7 C         -14.7227   -3.9072   19.5322 C.2     1  UNL1        0.2525
      8 O         -15.4711   -2.6610   19.9021 O.2     1  UNL1       -0.2698
      9 N         -15.4393   -5.2238   19.4762 N.am    1  UNL1       -0.2678
     10 C         -16.8944   -5.4485   19.7626 C.3     1  UNL1        0.1205
     11 C         -17.1810   -6.9104   19.5873 C.ar    1  UNL1       -0.0046
     12 C         -18.4406   -7.7111   19.7362 C.ar    1  UNL1       -0.0020
     13 C         -18.4222   -9.1906   19.4903 C.ar    1  UNL1        0.0111
     14 C         -17.1442   -9.8695   19.0955 C.ar    1  UNL1        0.0574
     15 CL        -17.1258  -11.3491   18.8496 Cl      1  UNL1       -0.0823
     16 C         -15.8846   -9.0687   18.9467 C.ar    1  UNL1        0.0085
     17 C         -15.9030   -7.5892   19.1926 C.ar    1  UNL1       -0.0038
     18 C         -14.8266   -6.5468   19.1239 C.3     1  UNL1        0.1205
     19 S         -10.1347   -6.2668   18.9129 S.O2    1  UNL1        0.0105
     20 C          -9.3059   -7.5170   18.9172 C.3     1  UNL1        0.1816
     21 O          -9.0583   -5.5506   19.6734 O.2     1  UNL1       -0.1686
     22 O         -11.2112   -6.9830   18.1525 O.2     1  UNL1       -0.1686
     23 O         -13.4501   -1.2660   18.8959 O.3     1  UNL1       -0.4702
     24 C         -14.2226   -1.3219   16.4160 C.3     1  UNL1        0.0566
     25 C         -13.7266   -0.5538   17.6051 C.3     1  UNL1        0.2599
     26 C         -13.5070    0.9265   17.5033 C.3     1  UNL1        0.4340
     27 F         -13.2874    2.4069   17.4014 F       1  UNL1       -0.1664
     28 F         -12.0426    0.7269   17.7595 F       1  UNL1       -0.1664
     29 F         -14.9713    1.1262   17.2470 F       1  UNL1       -0.1664
@<TRIPOS>BOND
     1    25    24    1
     2    25    23    1
     3    23     1    1
     4     1     2   ar
     5     2     3   ar
     6     3     4   ar
     7     4    19    1
     8    19    20    1
     9    19    21    2
    10    19    22    2
    11     4     5   ar
    12     5     6   ar
    13     6     7    1
    14     7     8    2
    15     7     9   am
    16     9    10    1
    17    10    11    1
    18    11    12   ar
    19    12    13   ar
    20    13    14   ar
    21    14    15    1
    22    14    16   ar
    23    16    17   ar
    24    17    18    1
    25    25    26    1
    26    26    27    1
    27    26    28    1
    28    26    29    1
    29     6     1   ar
    30    18     9    1
    31    17    11   ar
@<TRIPOS>MOLECULE
*****
 29 31 0 0 0
SMALL
GASTEIGER

@<TRIPOS>ATOM
      1 C          -9.6715  -16.8515   22.8552 C.ar    1  UNL1        0.1432
      2 C         -10.0596  -15.6150   23.6107 C.ar    1  UNL1        0.0384
      3 C          -9.3124  -15.2297   24.8529 C.ar    1  UNL1        0.0215
      4 C          -8.1771  -16.0807   25.3397 C.ar    1  UNL1        0.1061
      5 C          -7.7891  -17.3170   24.5843 C.ar    1  UNL1        0.0259
      6 C          -8.5363  -17.7025   23.3420 C.ar    1  UNL1        0.0888
      7 C          -8.1482  -18.9389   22.5865 C.2     1  UNL1        0.2525
      8 O          -9.1511  -20.0338   22.3743 O.2     1  UNL1       -0.2698
      9 N          -6.7571  -19.0803   22.0434 N.am    1  UNL1       -0.2678
     10 C          -6.2267  -20.2523   21.2721 C.3     1  UNL1        0.1205
     11 C          -4.7940  -19.9709   20.9281 C.ar    1  UNL1       -0.0046
     12 C          -3.7669  -20.7664   20.1784 C.ar    1  UNL1       -0.0020
     13 C          -2.3848  -20.2158   19.9874 C.ar    1  UNL1        0.0111
     14 C          -2.0298  -18.8698   20.5461 C.ar    1  UNL1        0.0574
     15 CL         -0.6475  -18.3193   20.3550 Cl      1  UNL1       -0.0823
     16 C          -3.0569  -18.0743   21.2958 C.ar    1  UNL1        0.0085
     17 C          -4.4390  -18.6249   21.4868 C.ar    1  UNL1       -0.0038
     18 C          -5.6523  -18.0745   22.1761 C.3     1  UNL1        0.1205
     19 S          -7.4299  -15.6952   26.5820 S.O2    1  UNL1        0.0105
     20 C          -6.6828  -15.3098   27.8242 C.3     1  UNL1        0.1816
     21 O          -6.3396  -15.0997   25.7415 O.2     1  UNL1       -0.1686
     22 O          -8.5203  -16.2907   27.4225 O.2     1  UNL1       -0.1686
     23 O         -10.4187  -17.2369   21.6130 O.3     1  UNL1       -0.4702
     24 C         -12.4902  -16.2593   20.3869 C.3     1  UNL1        0.0566
     25 C         -11.9017  -17.0260   21.5339 C.3     1  UNL1        0.2599
     26 C         -12.7962  -17.5819   22.6020 C.3     1  UNL1        0.4340
     27 F         -13.6908  -18.1378   23.6701 F       1  UNL1       -0.1664
     28 F         -13.3064  -16.2017   22.8930 F       1  UNL1       -0.1664
     29 F         -12.2861  -18.9621   22.3109 F       1  UNL1       -0.1664
@<TRIPOS>BOND
     1    25    24    1
     2    25    23    1
     3    23     1    1
     4     1     2   ar
     5     2     3   ar
     6     3     4   ar
     7     4    19    1
     8    19    20    1
     9    19    21    2
    10    19    22    2
    11     4     5   ar
    12     5     6   ar
    13     6     7    1
    14     7     8    2
    15     7     9   am
    16     9    10    1
    17    10    11    1
    18    11    12   ar
    19    12    13   ar
    20    13    14   ar
    21    14    15    1
    22    14    16   ar
    23    16    17   ar
    24    17    18    1
    25    25    26    1
    26    26    27    1
    27    26    28    1
    28    26    29    1
    29     6     1   ar
    30    18     9    1
    31    17    11   ar
@<TRIPOS>MOLECULE
*****
 29 31 0 0 0
SMALL
GASTEIGER

@<TRIPOS>ATOM
      1 C           7.1566   -2.4602   18.7062 C.ar    1  UNL1        0.1432
      2 C           8.6303   -2.4124   18.9819 C.ar    1  UNL1        0.0384
      3 C           9.1845   -3.0652   20.2134 C.ar    1  UNL1        0.0215
      4 C           8.2650   -3.7659   21.1692 C.ar    1  UNL1        0.1061
      5 C           6.7913   -3.8137   20.8936 C.ar    1  UNL1        0.0259
      6 C           6.2371   -3.1608   19.6620 C.ar    1  UNL1        0.0888
      7 C           4.7635   -3.2086   19.3863 C.2     1  UNL1        0.2525
      8 O           4.1826   -4.3527   18.6094 O.2     1  UNL1       -0.2698
      9 N           3.8707   -2.1124   19.8875 N.am    1  UNL1       -0.2678
     10 C           2.3863   -2.0247   19.6905 C.3     1  UNL1        0.1205
     11 C           1.9038   -0.7694   20.3550 C.ar    1  UNL1       -0.0046
     12 C           0.5376   -0.1641   20.4852 C.ar    1  UNL1       -0.0020
     13 C           0.3576    1.1293   21.2231 C.ar    1  UNL1        0.0111
     14 C           1.5438    1.8174   21.8308 C.ar    1  UNL1        0.0574
     15 CL          1.3638    3.1110   22.5687 Cl      1  UNL1       -0.0823
     16 C           2.9100    1.2121   21.7006 C.ar    1  UNL1        0.0085
     17 C           3.0900   -0.0813   20.9627 C.ar    1  UNL1       -0.0038
     18 C           4.3056   -0.9113   20.6738 C.3     1  UNL1        0.1205
     19 S           8.8192   -4.4188   22.4008 S.O2    1  UNL1        0.0105
     20 C           9.3734   -5.0716   23.6323 C.3     1  UNL1        0.1816
     21 O           8.4103   -5.7619   21.8729 O.2     1  UNL1       -0.1686
     22 O           9.2282   -3.0757   22.9287 O.2     1  UNL1       -0.1686
     23 O           6.6025   -1.8073   17.4747 O.3     1  UNL1       -0.4702
     24 C           7.3189    0.6896   17.5217 C.3     1  UNL1        0.0566
     25 C           6.2398   -0.3520   17.4958 C.3     1  UNL1        0.2599
     26 C           4.7981    0.0618   17.4912 C.3     1  UNL1        0.4340
     27 F           3.3563    0.4757   17.4866 F       1  UNL1       -0.1664
     28 F           4.4434   -1.1823   16.7321 F       1  UNL1       -0.1664
     29 F           5.1528    1.3060   18.2503 F       1  UNL1       -0.1664
@<TRIPOS>BOND
     1    25    24    1
     2    25    23    1
     3    23     1    1
     4     1     2   ar
     5     2     3   ar
     6     3     4   ar
     7     4    19    1
     8    19    20    1
     9    19    21    2
    10    19    22    2
    11     4     5   ar
    12     5     6   ar
    13     6     7    1
    14     7     8    2
    15     7     9   am
    16     9    10    1
    17    10    11    1
    18    11    12   ar
    19    12    13   ar
    20    13    14   ar
    21    14    15    1
    22    14    16   ar
    23    16    17   ar
    24    17    18    1
    25    25    26    1
    26    26    27    1
    27    26    28    1
    28    26    29    1
    29     6     1   ar
    30    18     9    1
    31    17    11   ar
@<TRIPOS>MOLECULE
*****
 29 31 0 0 0
SMALL
GASTEIGER

@<TRIPOS>ATOM
      1 C           4.0505   -1.2475   18.7215 C.ar    1  UNL1        0.1432
      2 C           5.3914   -1.5488   18.1205 C.ar    1  UNL1        0.0384
      3 C           6.1756   -0.4590   17.4518 C.ar    1  UNL1        0.0215
      4 C           5.6189    0.9322   17.3840 C.ar    1  UNL1        0.1061
      5 C           4.2780    1.2336   17.9849 C.ar    1  UNL1        0.0259
      6 C           3.4938    0.1437   18.6537 C.ar    1  UNL1        0.0888
      7 C           2.1529    0.4451   19.2547 C.2     1  UNL1        0.2525
      8 O           0.9461    0.5678   18.3723 O.2     1  UNL1       -0.2698
      9 N           2.0188    0.6237   20.7379 N.am    1  UNL1       -0.2678
     10 C           0.7500    0.9268   21.4784 C.3     1  UNL1        0.1205
     11 C           1.0770    1.0210   22.9393 C.ar    1  UNL1       -0.0046
     12 C           0.2254    1.2981   24.1426 C.ar    1  UNL1       -0.0020
     13 C           0.8447    1.3304   25.5083 C.ar    1  UNL1        0.0111
     14 C           2.3157    1.0855   25.6708 C.ar    1  UNL1        0.0574
     15 CL          2.9350    1.1178   27.0366 Cl      1  UNL1       -0.0823
     16 C           3.1672    0.8084   24.4675 C.ar    1  UNL1        0.0085
     17 C           2.5479    0.7761   23.1017 C.ar    1  UNL1       -0.0038
     18 C           3.1300    0.5306   21.7412 C.3     1  UNL1        0.1205
     19 S           6.4031    2.0221   16.7152 S.O2    1  UNL1        0.0105
     20 C           7.1873    3.1120   16.0465 C.3     1  UNL1        0.1816
     21 O           7.2552    0.9918   16.0353 O.2     1  UNL1       -0.1686
     22 O           5.5510    3.0524   17.3951 O.2     1  UNL1       -0.1686
     23 O           3.2663   -2.3374   19.3902 O.3     1  UNL1       -0.4702
     24 C           4.3311   -3.3151   21.5490 C.3     1  UNL1        0.0566
     25 C           3.9815   -3.4507   20.0967 C.3     1  UNL1        0.2599
     26 C           4.3470   -4.6997   19.3507 C.3     1  UNL1        0.4340
     27 F           4.7126   -5.9487   18.6048 F       1  UNL1       -0.1664
     28 F           2.9072   -4.9002   18.9809 F       1  UNL1       -0.1664
     29 F           5.7868   -4.4991   19.7205 F       1  UNL1       -0.1664
@<TRIPOS>BOND
     1    25    24    1
     2    25    23    1
     3    23     1    1
     4     1     2   ar
     5     2     3   ar
     6     3     4   ar
     7     4    19    1
     8    19    20    1
     9    19    21    2
    10    19    22    2
    11     4     5   ar
    12     5     6   ar
    13     6     7    1
    14     7     8    2
    15     7     9   am
    16     9    10    1
    17    10    11    1
    18    11    12   ar
    19    12    13   ar
    20    13    14   ar
    21    14    15    1
    22    14    16   ar
    23    16    17   ar
    24    17    18    1
    25    25    26    1
    26    26    27    1
    27    26    28    1
    28    26    29    1
    29     6     1   ar
    30    18     9    1
    31    17    11   ar
@<TRIPOS>MOLECULE
*****
 29 31 0 0 0
SMALL
GASTEIGER

@<TRIPOS>ATOM
      1 C         -10.2378  -17.4576   23.1734 C.ar    1  UNL1        0.1432
      2 C         -10.6273  -16.1445   23.7850 C.ar    1  UNL1        0.0384
      3 C          -9.7106  -15.4713   24.7629 C.ar    1  UNL1        0.0215
      4 C          -8.4043  -16.1111   25.1292 C.ar    1  UNL1        0.1061
      5 C          -8.0147  -17.4242   24.5176 C.ar    1  UNL1        0.0259
      6 C          -8.9315  -18.0975   23.5397 C.ar    1  UNL1        0.0888
      7 C          -8.5420  -19.4105   22.9281 C.2     1  UNL1        0.2525
      8 O          -9.4025  -20.6208   23.1391 O.2     1  UNL1       -0.2698
      9 N          -7.2919  -19.5133   22.1055 N.am    1  UNL1       -0.2678
     10 C          -6.7771  -20.7524   21.4349 C.3     1  UNL1        0.1205
     11 C          -5.5041  -20.3999   20.7240 C.ar    1  UNL1       -0.0046
     12 C          -4.5575  -21.2174   19.8960 C.ar    1  UNL1       -0.0020
     13 C          -3.3389  -20.5779   19.2993 C.ar    1  UNL1        0.0111
     14 C          -3.0669  -19.1211   19.5306 C.ar    1  UNL1        0.0574
     15 CL         -1.8483  -18.4816   18.9338 Cl      1  UNL1       -0.0823
     16 C          -4.0135  -18.3036   20.3586 C.ar    1  UNL1        0.0085
     17 C          -5.2321  -18.9430   20.9553 C.ar    1  UNL1       -0.0038
     18 C          -6.3370  -18.3951   21.8091 C.3     1  UNL1        0.1205
     19 S          -7.4875  -15.4379   26.1071 S.O2    1  UNL1        0.0105
     20 C          -6.5708  -14.7646   27.0851 C.3     1  UNL1        0.1816
     21 O          -6.3639  -15.5305   25.1177 O.2     1  UNL1       -0.1686
     22 O          -8.6110  -15.3452   27.0966 O.2     1  UNL1       -0.1686
     23 O         -11.1546  -18.1308   22.1955 O.3     1  UNL1       -0.4702
     24 C         -11.1532  -16.7221   20.0125 C.3     1  UNL1        0.0566
     25 C         -10.8938  -18.0176   20.7227 C.3     1  UNL1        0.2599
     26 C         -10.3738  -19.1998   19.9600 C.3     1  UNL1        0.4340
     27 F          -9.8536  -20.3822   19.1973 F       1  UNL1       -0.1664
     28 F         -11.2896  -20.1016   20.7334 F       1  UNL1       -0.1664
     29 F          -9.4580  -18.2981   19.1866 F       1  UNL1       -0.1664
@<TRIPOS>BOND
     1    25    24    1
     2    25    23    1
     3    23     1    1
     4     1     2   ar
     5     2     3   ar
     6     3     4   ar
     7     4    19    1
     8    19    20    1
     9    19    21    2
    10    19    22    2
    11     4     5   ar
    12     5     6   ar
    13     6     7    1
    14     7     8    2
    15     7     9   am
    16     9    10    1
    17    10    11    1
    18    11    12   ar
    19    12    13   ar
    20    13    14   ar
    21    14    15    1
    22    14    16   ar
    23    16    17   ar
    24    17    18    1
    25    25    26    1
    26    26    27    1
    27    26    28    1
    28    26    29    1
    29     6     1   ar
    30    18     9    1
    31    17    11   ar
@<TRIPOS>MOLECULE
*****
 29 31 0 0 0
SMALL
GASTEIGER

@<TRIPOS>ATOM
      1 C           3.5803   -2.1721   20.4362 C.ar    1  UNL1        0.1432
      2 C           4.4270   -3.1282   21.2231 C.ar    1  UNL1        0.0384
      3 C           4.6381   -2.9090   22.6919 C.ar    1  UNL1        0.0215
      4 C           4.0025   -1.7339   23.3739 C.ar    1  UNL1        0.1061
      5 C           3.1559   -0.7778   22.5870 C.ar    1  UNL1        0.0259
      6 C           2.9448   -0.9969   21.1182 C.ar    1  UNL1        0.0888
      7 C           2.0981   -0.0409   20.3314 C.2     1  UNL1        0.2525
      8 O           0.6247   -0.2845   20.1911 O.2     1  UNL1       -0.2698
      9 N           2.7249    1.1588   19.6848 N.am    1  UNL1       -0.2678
     10 C           2.0096    2.1967   18.8718 C.3     1  UNL1        0.1205
     11 C           3.0196    3.2106   18.4223 C.ar    1  UNL1       -0.0046
     12 C           2.8927    4.4552   17.5948 C.ar    1  UNL1       -0.0020
     13 C           4.1052    5.2884   17.3025 C.ar    1  UNL1        0.0111
     14 C           5.4447    4.8771   17.8378 C.ar    1  UNL1        0.0574
     15 CL          6.6572    5.7104   17.5455 Cl      1  UNL1       -0.0823
     16 C           5.5717    3.6325   18.6653 C.ar    1  UNL1        0.0085
     17 C           4.3591    2.7993   18.9576 C.ar    1  UNL1       -0.0038
     18 C           4.1770    1.5312   19.7379 C.3     1  UNL1        0.1205
     19 S           4.2136   -1.5148   24.8427 S.O2    1  UNL1        0.0105
     20 C           4.4247   -1.2957   26.3115 C.3     1  UNL1        0.1816
     21 O           5.3550   -2.4879   24.8239 O.2     1  UNL1       -0.1686
     22 O           3.0723   -0.5417   24.8616 O.2     1  UNL1       -0.1686
     23 O           3.3692   -2.3912   18.9674 O.3     1  UNL1       -0.4702
     24 C           3.8004   -0.8449   16.9247 C.3     1  UNL1        0.0566
     25 C           4.3157   -1.7838   17.9748 C.3     1  UNL1        0.2599
     26 C           5.7774   -2.1152   18.0324 C.3     1  UNL1        0.4340
     27 F           7.2393   -2.4468   18.0900 F       1  UNL1       -0.1664
     28 F           6.1082   -0.6524   18.0576 F       1  UNL1       -0.1664
     29 F           5.4467   -3.5781   18.0073 F       1  UNL1       -0.1664
@<TRIPOS>BOND
     1    25    24    1
     2    25    23    1
     3    23     1    1
     4     1     2   ar
     5     2     3   ar
     6     3     4   ar
     7     4    19    1
     8    19    20    1
     9    19    21    2
    10    19    22    2
    11     4     5   ar
    12     5     6   ar
    13     6     7    1
    14     7     8    2
    15     7     9   am
    16     9    10    1
    17    10    11    1
    18    11    12   ar
    19    12    13   ar
    20    13    14   ar
    21    14    15    1
    22    14    16   ar
    23    16    17   ar
    24    17    18    1
    25    25    26    1
    26    26    27    1
    27    26    28    1
    28    26    29    1
    29     6     1   ar
    30    18     9    1
    31    17    11   ar
@<TRIPOS>MOLECULE
*****
 29 31 0 0 0
SMALL
GASTEIGER

@<TRIPOS>ATOM
      1 C         -17.6485   -6.8178   17.6910 C.ar    1  UNL1        0.1432
      2 C         -18.8929   -6.0642   17.3252 C.ar    1  UNL1        0.0384
      3 C         -19.1990   -4.7545   17.9892 C.ar    1  UNL1        0.0215
      4 C         -18.2608   -4.1984   19.0191 C.ar    1  UNL1        0.1061
      5 C         -17.0166   -4.9520   19.3849 C.ar    1  UNL1        0.0259
      6 C         -16.7104   -6.2618   18.7209 C.ar    1  UNL1        0.0888
      7 C         -15.4661   -7.0153   19.0867 C.2     1  UNL1        0.2525
      8 O         -15.5637   -8.2824   19.8835 O.2     1  UNL1       -0.2698
      9 N         -14.1243   -6.5019   18.6556 N.am    1  UNL1       -0.2678
     10 C         -12.7999   -7.1439   18.9453 C.3     1  UNL1        0.1205
     11 C         -11.7283   -6.2950   18.3280 C.ar    1  UNL1       -0.0046
     12 C         -10.2352   -6.4337   18.2903 C.ar    1  UNL1       -0.0020
     13 C          -9.4042   -5.4057   17.5814 C.ar    1  UNL1        0.0111
     14 C         -10.0663   -4.2391   16.9101 C.ar    1  UNL1        0.0574
     15 CL         -9.2352   -3.2110   16.2012 Cl      1  UNL1       -0.0823
     16 C         -11.5594   -4.1004   16.9478 C.ar    1  UNL1        0.0085
     17 C         -12.3904   -5.1284   17.6567 C.ar    1  UNL1       -0.0038
     18 C         -13.8711   -5.2562   17.8592 C.3     1  UNL1        0.1205
     19 S         -18.5670   -2.8887   19.6832 S.O2    1  UNL1        0.0105
     20 C         -18.8731   -1.5790   20.3472 C.3     1  UNL1        0.1816
     21 O         -19.6236   -3.5562   20.5126 O.2     1  UNL1       -0.1686
     22 O         -17.5104   -2.2212   18.8538 O.2     1  UNL1       -0.1686
     23 O         -17.3424   -8.1275   17.0269 O.3     1  UNL1       -0.4702
     24 C         -19.3433   -9.7403   16.6456 C.3     1  UNL1        0.0566
     25 C         -18.1092   -9.3591   17.4082 C.3     1  UNL1        0.2599
     26 C         -17.6418  -10.2094   18.5521 C.3     1  UNL1        0.4340
     27 F         -17.1744  -11.0597   19.6960 F       1  UNL1       -0.1664
     28 F         -16.3764  -10.5159   17.8071 F       1  UNL1       -0.1664
     29 F         -18.9071   -9.9028   19.2970 F       1  UNL1       -0.1664
@<TRIPOS>BOND
     1    25    24    1
     2    25    23    1
     3    23     1    1
     4     1     2   ar
     5     2     3   ar
     6     3     4   ar
     7     4    19    1
     8    19    20    1
     9    19    21    2
    10    19    22    2
    11     4     5   ar
    12     5     6   ar
    13     6     7    1
    14     7     8    2
    15     7     9   am
    16     9    10    1
    17    10    11    1
    18    11    12   ar
    19    12    13   ar
    20    13    14   ar
    21    14    15    1
    22    14    16   ar
    23    16    17   ar
    24    17    18    1
    25    25    26    1
    26    26    27    1
    27    26    28    1
    28    26    29    1
    29     6     1   ar
    30    18     9    1
    31    17    11   ar
@<TRIPOS>MOLECULE
*****
 29 31 0 0 0
SMALL
GASTEIGER

@<TRIPOS>ATOM
      1 C          -9.4951  -17.6048   23.1929 C.ar    1  UNL1        0.1432
      2 C          -9.9413  -16.7243   24.3225 C.ar    1  UNL1        0.0384
      3 C          -8.9266  -15.9828   25.1413 C.ar    1  UNL1        0.0215
      4 C          -7.4657  -16.1217   24.8307 C.ar    1  UNL1        0.1061
      5 C          -7.0195  -17.0021   23.7012 C.ar    1  UNL1        0.0259
      6 C          -8.0342  -17.7437   22.8823 C.ar    1  UNL1        0.0888
      7 C          -7.5879  -18.6240   21.7528 C.2     1  UNL1        0.2525
      8 O          -8.5760  -19.5166   21.0622 O.2     1  UNL1       -0.2698
      9 N          -6.1536  -18.6118   21.3139 N.am    1  UNL1       -0.2678
     10 C          -5.5637  -19.4328   20.2058 C.3     1  UNL1        0.1205
     11 C          -4.1029  -19.1049   20.1131 C.ar    1  UNL1       -0.0046
     12 C          -3.0172  -19.6061   19.2076 C.ar    1  UNL1       -0.0020
     13 C          -1.6187  -19.0837   19.3529 C.ar    1  UNL1        0.0111
     14 C          -1.3058  -18.0601   20.4038 C.ar    1  UNL1        0.0574
     15 CL          0.0928  -17.5377   20.5491 Cl      1  UNL1       -0.0823
     16 C          -2.3915  -17.5588   21.3093 C.ar    1  UNL1        0.0085
     17 C          -3.7900  -18.0812   21.1639 C.ar    1  UNL1       -0.0038
     18 C          -5.0575  -17.7765   21.9061 C.3     1  UNL1        0.1205
     19 S          -6.4510  -15.3802   25.6496 S.O2    1  UNL1        0.0105
     20 C          -5.4363  -14.6386   26.4685 C.3     1  UNL1        0.1816
     21 O          -7.1095  -15.8669   26.9064 O.2     1  UNL1       -0.1686
     22 O          -5.7925  -14.8934   24.3929 O.2     1  UNL1       -0.1686
     23 O         -10.5097  -18.3463   22.3741 O.3     1  UNL1       -0.4702
     24 C         -13.0432  -17.9484   22.7904 C.3     1  UNL1        0.0566
     25 C         -11.7996  -17.6806   21.9957 C.3     1  UNL1        0.2599
     26 C         -11.8458  -16.7471   20.8225 C.3     1  UNL1        0.4340
     27 F         -11.8920  -15.8135   19.6493 F       1  UNL1       -0.1664
     28 F         -11.7148  -17.9138   19.8890 F       1  UNL1       -0.1664
     29 F         -11.9769  -15.5804   21.7561 F       1  UNL1       -0.1664
@<TRIPOS>BOND
     1    25    24    1
     2    25    23    1
     3    23     1    1
     4     1     2   ar
     5     2     3   ar
     6     3     4   ar
     7     4    19    1
     8    19    20    1
     9    19    21    2
    10    19    22    2
    11     4     5   ar
    12     5     6   ar
    13     6     7    1
    14     7     8    2
    15     7     9   am
    16     9    10    1
    17    10    11    1
    18    11    12   ar
    19    12    13   ar
    20    13    14   ar
    21    14    15    1
    22    14    16   ar
    23    16    17   ar
    24    17    18    1
    25    25    26    1
    26    26    27    1
    27    26    28    1
    28    26    29    1
    29     6     1   ar
    30    18     9    1
    31    17    11   ar
@<TRIPOS>MOLECULE
*****
 29 31 0 0 0
SMALL
GASTEIGER

@<TRIPOS>ATOM
      1 C           3.8481   -0.8266   18.2713 C.ar    1  UNL1        0.1432
      2 C           3.3915    0.4782   17.6889 C.ar    1  UNL1        0.0384
      3 C           2.2638    1.2317   18.3296 C.ar    1  UNL1        0.0215
      4 C           1.5928    0.6806   19.5527 C.ar    1  UNL1        0.1061
      5 C           2.0494   -0.6241   20.1351 C.ar    1  UNL1        0.0259
      6 C           3.1771   -1.3778   19.4944 C.ar    1  UNL1        0.0888
      7 C           3.6337   -2.6825   20.0768 C.2     1  UNL1        0.2525
      8 O           3.2371   -3.9742   19.4255 O.2     1  UNL1       -0.2698
      9 N           4.4869   -2.6955   21.3104 N.am    1  UNL1       -0.2678
     10 C           5.0164   -3.9159   22.0034 C.3     1  UNL1        0.1205
     11 C           5.8172   -3.4650   23.1889 C.ar    1  UNL1       -0.0046
     12 C           6.5734   -4.2259   24.2374 C.ar    1  UNL1       -0.0020
     13 C           7.2949   -3.4876   25.3256 C.ar    1  UNL1        0.0111
     14 C           7.2603   -1.9885   25.3654 C.ar    1  UNL1        0.0574
     15 CL          7.9819   -1.2503   26.4537 Cl      1  UNL1       -0.0823
     16 C           6.5041   -1.2277   24.3169 C.ar    1  UNL1        0.0085
     17 C           5.7825   -1.9660   23.2287 C.ar    1  UNL1       -0.0038
     18 C           4.9604   -1.4904   22.0677 C.3     1  UNL1        0.1205
     19 S           0.4651    1.4342   20.1934 S.O2    1  UNL1        0.0105
     20 C          -0.6625    2.1878   20.8341 C.3     1  UNL1        0.1816
     21 O          -0.1609    0.1383   20.6161 O.2     1  UNL1       -0.1686
     22 O           1.0911    2.7301   19.7708 O.2     1  UNL1       -0.1686
     23 O           4.9757   -1.5802   17.6306 O.3     1  UNL1       -0.4702
     24 C           7.2764   -2.4665   18.4498 C.3     1  UNL1        0.0566
     25 C           6.3898   -1.3215   18.0592 C.3     1  UNL1        0.2599
     26 C           6.9171    0.0822   18.0970 C.3     1  UNL1        0.4340
     27 F           7.4445    1.4860   18.1349 F       1  UNL1       -0.1664
     28 F           6.8630    0.1429   16.5992 F       1  UNL1       -0.1664
     29 F           6.9712    0.0215   19.5948 F       1  UNL1       -0.1664
@<TRIPOS>BOND
     1    25    24    1
     2    25    23    1
     3    23     1    1
     4     1     2   ar
     5     2     3   ar
     6     3     4   ar
     7     4    19    1
     8    19    20    1
     9    19    21    2
    10    19    22    2
    11     4     5   ar
    12     5     6   ar
    13     6     7    1
    14     7     8    2
    15     7     9   am
    16     9    10    1
    17    10    11    1
    18    11    12   ar
    19    12    13   ar
    20    13    14   ar
    21    14    15    1
    22    14    16   ar
    23    16    17   ar
    24    17    18    1
    25    25    26    1
    26    26    27    1
    27    26    28    1
    28    26    29    1
    29     6     1   ar
    30    18     9    1
    31    17    11   ar
