@<TRIPOS>MOLECULE
*****
 41 43 0 0 0
SMALL
GASTEIGER

@<TRIPOS>ATOM
      1 C           4.2844   -3.0817   20.4826 C.3     1  UNL1        0.2120
      2 O           4.1391   -2.1043   21.6111 O.3     1  UNL1       -0.3763
      3 H           4.7909   -2.3069   22.3003 H       1  UNL1        0.2107
      4 C           4.4297   -4.0590   19.3540 C.3     1  UNL1        0.4226
      5 F           4.5751   -5.0364   18.2255 F       1  UNL1       -0.1675
      6 F           2.9369   -4.1705   19.2585 F       1  UNL1       -0.1675
      7 F           5.9225   -3.9475   19.4496 F       1  UNL1       -0.1675
      8 C           3.1639   -2.4038   19.7512 C.3     1  UNL1        0.1307
      9 N           3.2786   -0.9548   19.3803 N.am    1  UNL1       -0.2732
     10 C           2.5094    0.0790   20.1480 C.2     1  UNL1        0.2535
     11 O           1.6255   -0.3360   21.2866 O.2     1  UNL1       -0.2697
     12 C           2.6241    1.5279   19.7771 C.ar    1  UNL1        0.1083
     13 C           3.6209    2.4043   20.4759 C.ar    1  UNL1        0.1467
     14 F           4.5030    1.8318   21.5456 F       1  UNL1       -0.2039
     15 C           3.7357    3.8531   20.1049 C.ar    1  UNL1        0.0299
     16 C           2.8536    4.4257   19.0353 C.ar    1  UNL1        0.0046
     17 C           1.8568    3.5493   18.3365 C.ar    1  UNL1        0.0299
     18 C           1.7421    2.1004   18.7074 C.ar    1  UNL1        0.1467
     19 F           0.7453    1.2240   18.0086 F       1  UNL1       -0.2039
     20 C           3.7870   -0.8935   16.8331 C.3     1  UNL1        0.0233
     21 C           4.1626   -0.5398   18.2417 C.3     1  UNL1        0.0939
     22 C           5.4049   -3.7596   21.2140 C.3     1  UNL1        0.1269
     23 N           5.5496   -3.5807   22.6962 N.am    1  UNL1       -0.2982
     24 C           6.6342   -4.3055   23.4367 C.2     1  UNL1        0.2502
     25 O           7.5741   -5.2091   22.6951 O.2     1  UNL1       -0.2700
     26 H           4.9328   -2.9876   23.1830 H       1  UNL1        0.1498
     27 C           6.7790   -4.1266   24.9190 C.ar    1  UNL1        0.1053
     28 C           6.4638   -2.8801   25.6916 C.ar    1  UNL1        0.1278
     29 N           6.7543   -3.1459   27.1390 N.ar    1  UNL1       -0.1622
     30 N           7.2490   -4.5568   27.2609 N.ar    1  UNL1       -0.2163
     31 C           7.2642   -5.1629   25.8889 C.ar    1  UNL1        0.1327
     32 N           7.6899   -6.5599   25.5468 N.pl3   1  UNL1       -0.3424
     33 H           7.9947   -7.1695   26.2573 H       1  UNL1        0.1437
     34 H           7.6645   -6.8672   24.6119 H       1  UNL1        0.1437
     35 C           7.6568   -5.2414   28.5318 C.ar    1  UNL1        0.0843
     36 C           8.9416   -6.0134   28.5888 C.ar    1  UNL1        0.0215
     37 C           9.3494   -6.6980   29.8597 C.ar    1  UNL1        0.0312
     38 C           8.4724   -6.6105   31.0735 C.ar    1  UNL1        0.1402
     39 F           8.8802   -7.2951   32.3443 F       1  UNL1       -0.2042
     40 C           7.1876   -5.8385   31.0164 C.ar    1  UNL1        0.0312
     41 C           6.7798   -5.1539   29.7456 C.ar    1  UNL1        0.0215
@<TRIPOS>BOND
     1    20    21    1
     2    21     9    1
     3     9     8    1
     4     8     1    1
     5     1     2    1
     6     1    22    1
     7    22    23    1
     8    23    24   am
     9    24    25    2
    10    24    27    1
    11    27    28   ar
    12    28    29   ar
    13    29    30   ar
    14    30    35    1
    15    35    36   ar
    16    36    37   ar
    17    37    38   ar
    18    38    39    1
    19    38    40   ar
    20    40    41   ar
    21    30    31   ar
    22    31    32    1
    23     1     4    1
    24     4     5    1
    25     4     6    1
    26     4     7    1
    27     9    10   am
    28    10    11    2
    29    10    12    1
    30    12    13   ar
    31    13    14    1
    32    13    15   ar
    33    15    16   ar
    34    16    17   ar
    35    17    18   ar
    36    18    19    1
    37    31    27   ar
    38    18    12   ar
    39    41    35   ar
    40     2     3    1
    41    23    26    1
    42    32    33    1
    43    32    34    1
@<TRIPOS>MOLECULE
*****
 41 43 0 0 0
SMALL
GASTEIGER

@<TRIPOS>ATOM
      1 C           0.8068    0.5901   19.8172 C.3     1  UNL1        0.2120
      2 O          -0.2889    0.0540   20.6903 O.3     1  UNL1       -0.3763
      3 H          -0.8903    0.7750   20.9338 H       1  UNL1        0.2107
      4 C           1.9024    1.1262   18.9442 C.3     1  UNL1        0.4226
      5 F           2.9980    1.6623   18.0712 F       1  UNL1       -0.1675
      6 F           1.5001    0.1756   17.8558 F       1  UNL1       -0.1675
      7 F           2.3046    2.0768   20.0326 F       1  UNL1       -0.1675
      8 C           1.4058   -0.7820   19.7265 C.3     1  UNL1        0.1307
      9 N           2.6380   -1.1160   20.5142 N.am    1  UNL1       -0.2732
     10 C           3.8348   -1.6991   19.8231 C.2     1  UNL1        0.2535
     11 O           3.7996   -1.9482   18.3443 O.2     1  UNL1       -0.2697
     12 C           5.0669   -2.0330   20.6108 C.ar    1  UNL1        0.1083
     13 C           5.1899   -3.3700   21.2796 C.ar    1  UNL1        0.1467
     14 F           4.0809   -4.3730   21.1608 F       1  UNL1       -0.2039
     15 C           6.4220   -3.7039   22.0673 C.ar    1  UNL1        0.0299
     16 C           7.5311   -2.7010   22.1862 C.ar    1  UNL1        0.0046
     17 C           7.4080   -1.3640   21.5173 C.ar    1  UNL1        0.0299
     18 C           6.1759   -1.0300   20.7296 C.ar    1  UNL1        0.1467
     19 F           6.0529    0.3069   20.0607 F       1  UNL1       -0.2039
     20 C           3.2636    0.4053   22.5253 C.3     1  UNL1        0.0233
     21 C           2.6733   -0.8668   21.9929 C.3     1  UNL1        0.0939
     22 C           0.2077    1.9623   19.9080 C.3     1  UNL1        0.1269
     23 N          -0.9860    2.2031   20.7838 N.am    1  UNL1       -0.2982
     24 C          -2.0318    3.1957   20.3702 C.2     1  UNL1        0.2502
     25 O          -1.8838    3.9476   19.0807 O.2     1  UNL1       -0.2700
     26 H          -1.0831    1.7096   21.6302 H       1  UNL1        0.1498
     27 C          -3.2254    3.4365   21.2460 C.ar    1  UNL1        0.1053
     28 C          -4.6420    3.0576   20.9297 C.ar    1  UNL1        0.1278
     29 N          -5.5042    3.4854   22.0801 N.ar    1  UNL1       -0.1622
     30 N          -4.6206    4.1286   23.1075 N.ar    1  UNL1       -0.2163
     31 C          -3.2123    4.0984   22.5920 C.ar    1  UNL1        0.1327
     32 N          -2.0031    4.6358   23.2984 N.pl3   1  UNL1       -0.3424
     33 H          -2.0964    5.0553   24.1842 H       1  UNL1        0.1437
     34 H          -1.1162    4.5690   22.8763 H       1  UNL1        0.1437
     35 C          -5.0670    4.7016   24.4200 C.ar    1  UNL1        0.0843
     36 C          -4.4694    4.1978   25.7003 C.ar    1  UNL1        0.0215
     37 C          -4.9158    4.7707   27.0127 C.ar    1  UNL1        0.0312
     38 C          -5.9597    5.8474   27.0448 C.ar    1  UNL1        0.1402
     39 F          -6.4061    6.4203   28.3574 F       1  UNL1       -0.2042
     40 C          -6.5573    6.3511   25.7646 C.ar    1  UNL1        0.0312
     41 C          -6.1109    5.7782   24.4522 C.ar    1  UNL1        0.0215
@<TRIPOS>BOND
     1    20    21    1
     2    21     9    1
     3     9     8    1
     4     8     1    1
     5     1     2    1
     6     1    22    1
     7    22    23    1
     8    23    24   am
     9    24    25    2
    10    24    27    1
    11    27    28   ar
    12    28    29   ar
    13    29    30   ar
    14    30    35    1
    15    35    36   ar
    16    36    37   ar
    17    37    38   ar
    18    38    39    1
    19    38    40   ar
    20    40    41   ar
    21    30    31   ar
    22    31    32    1
    23     1     4    1
    24     4     5    1
    25     4     6    1
    26     4     7    1
    27     9    10   am
    28    10    11    2
    29    10    12    1
    30    12    13   ar
    31    13    14    1
    32    13    15   ar
    33    15    16   ar
    34    16    17   ar
    35    17    18   ar
    36    18    19    1
    37    31    27   ar
    38    18    12   ar
    39    41    35   ar
    40     2     3    1
    41    23    26    1
    42    32    33    1
    43    32    34    1
@<TRIPOS>MOLECULE
*****
 41 43 0 0 0
SMALL
GASTEIGER

@<TRIPOS>ATOM
      1 C           5.6426   -3.4038   20.2789 C.3     1  UNL1        0.2120
      2 O           5.0396   -3.9121   21.5548 O.3     1  UNL1       -0.3763
      3 H           5.7321   -4.3148   22.1018 H       1  UNL1        0.2107
      4 C           6.2456   -2.8955   19.0029 C.3     1  UNL1        0.4226
      5 F           6.8486   -2.3872   17.7270 F       1  UNL1       -0.1675
      6 F           7.0717   -1.9165   19.7834 F       1  UNL1       -0.1675
      7 F           5.4195   -3.8746   18.2225 F       1  UNL1       -0.1675
      8 C           4.2937   -2.9229   19.8330 C.3     1  UNL1        0.1307
      9 N           3.9921   -1.4537   19.8071 N.am    1  UNL1       -0.2732
     10 C           3.7046   -0.7698   18.5034 C.2     1  UNL1        0.2535
     11 O           3.7186   -1.5551   17.2255 O.2     1  UNL1       -0.2697
     12 C           3.4030    0.6993   18.4777 C.ar    1  UNL1        0.1083
     13 C           1.9899    1.1777   18.6337 C.ar    1  UNL1        0.1467
     14 F           0.8784    0.1869   18.8155 F       1  UNL1       -0.2039
     15 C           1.6883    2.6468   18.6079 C.ar    1  UNL1        0.0299
     16 C           2.7997    3.6376   18.4261 C.ar    1  UNL1        0.0046
     17 C           4.2128    3.1592   18.2701 C.ar    1  UNL1        0.0299
     18 C           4.5144    1.6901   18.2959 C.ar    1  UNL1        0.1467
     19 F           5.9275    1.2117   18.1398 F       1  UNL1       -0.2039
     20 C           2.9475   -0.9624   22.1348 C.3     1  UNL1        0.0233
     21 C           3.9780   -0.6683   21.0851 C.3     1  UNL1        0.0939
     22 C           6.9917   -3.8847   20.7248 C.3     1  UNL1        0.1269
     23 N           7.2955   -4.0150   22.1879 N.am    1  UNL1       -0.2982
     24 C           8.0323   -5.2185   22.6967 C.2     1  UNL1        0.2502
     25 O           8.4652   -6.2917   21.7424 O.2     1  UNL1       -0.2700
     26 H           7.0114   -3.3106   22.8143 H       1  UNL1        0.1498
     27 C           8.3361   -5.3488   24.1598 C.ar    1  UNL1        0.1053
     28 C           9.5348   -6.0267   24.7544 C.ar    1  UNL1        0.1278
     29 N           9.4342   -5.9209   26.2473 N.ar    1  UNL1       -0.1622
     30 N           8.1732   -5.1777   26.5753 N.ar    1  UNL1       -0.2163
     31 C           7.4946   -4.8241   25.2852 C.ar    1  UNL1        0.1327
     32 N           6.2015   -4.0770   25.1450 N.pl3   1  UNL1       -0.3424
     33 H           5.7199   -3.7717   25.9476 H       1  UNL1        0.1437
     34 H           5.8344   -3.8919   24.2505 H       1  UNL1        0.1437
     35 C           7.6778   -4.8462   27.9519 C.ar    1  UNL1        0.0843
     36 C           7.4266   -5.9436   28.9430 C.ar    1  UNL1        0.0215
     37 C           6.9312   -5.6121   30.3195 C.ar    1  UNL1        0.0312
     38 C           6.6871   -4.1831   30.7048 C.ar    1  UNL1        0.1402
     39 F           6.1917   -3.8516   32.0813 F       1  UNL1       -0.2042
     40 C           6.9384   -3.0857   29.7136 C.ar    1  UNL1        0.0312
     41 C           7.4337   -3.4172   28.3372 C.ar    1  UNL1        0.0215
@<TRIPOS>BOND
     1    20    21    1
     2    21     9    1
     3     9     8    1
     4     8     1    1
     5     1     2    1
     6     1    22    1
     7    22    23    1
     8    23    24   am
     9    24    25    2
    10    24    27    1
    11    27    28   ar
    12    28    29   ar
    13    29    30   ar
    14    30    35    1
    15    35    36   ar
    16    36    37   ar
    17    37    38   ar
    18    38    39    1
    19    38    40   ar
    20    40    41   ar
    21    30    31   ar
    22    31    32    1
    23     1     4    1
    24     4     5    1
    25     4     6    1
    26     4     7    1
    27     9    10   am
    28    10    11    2
    29    10    12    1
    30    12    13   ar
    31    13    14    1
    32    13    15   ar
    33    15    16   ar
    34    16    17   ar
    35    17    18   ar
    36    18    19    1
    37    31    27   ar
    38    18    12   ar
    39    41    35   ar
    40     2     3    1
    41    23    26    1
    42    32    33    1
    43    32    34    1
@<TRIPOS>MOLECULE
*****
 41 43 0 0 0
SMALL
GASTEIGER

@<TRIPOS>ATOM
      1 C           6.6036   -3.9025   23.8997 C.3     1  UNL1        0.2120
      2 O           5.1440   -3.5572   23.9181 O.3     1  UNL1       -0.3763
      3 H           4.8749   -3.3384   24.8239 H       1  UNL1        0.2107
      4 C           8.0633   -4.2477   23.8814 C.3     1  UNL1        0.4226
      5 F           9.5228   -4.5930   23.8631 F       1  UNL1       -0.1675
      6 F           8.4049   -2.8195   24.1870 F       1  UNL1       -0.1675
      7 F           7.7216   -5.6760   23.5758 F       1  UNL1       -0.1675
      8 C           6.5291   -4.1392   22.4205 C.3     1  UNL1        0.1307
      9 N           5.9695   -3.0792   21.5186 N.am    1  UNL1       -0.2732
     10 C           4.7592   -3.3691   20.6813 C.2     1  UNL1        0.2535
     11 O           4.1084   -4.7190   20.7459 O.2     1  UNL1       -0.2697
     12 C           4.1997   -2.3091   19.7794 C.ar    1  UNL1        0.1083
     13 C           3.2077   -1.3182   20.3122 C.ar    1  UNL1        0.1467
     14 F           2.7751   -1.3872   21.7468 F       1  UNL1       -0.2039
     15 C           2.6482   -0.2582   19.4103 C.ar    1  UNL1        0.0299
     16 C           3.0807   -0.1890   17.9757 C.ar    1  UNL1        0.0046
     17 C           4.0728   -1.1800   17.4429 C.ar    1  UNL1        0.0299
     18 C           4.6323   -2.2400   18.3448 C.ar    1  UNL1        0.1467
     19 F           5.6243   -3.2310   17.8120 F       1  UNL1       -0.2039
     20 C           6.2340   -0.6626   22.4354 C.3     1  UNL1        0.0233
     21 C           6.6204   -1.7293   21.4540 C.3     1  UNL1        0.0939
     22 C           6.6782   -3.6657   25.3791 C.3     1  UNL1        0.1269
     23 N           5.5905   -2.8995   26.0718 N.am    1  UNL1       -0.2982
     24 C           5.8695   -1.5320   26.6214 C.2     1  UNL1        0.2502
     25 O           7.2362   -0.9306   26.4783 O.2     1  UNL1       -0.2700
     26 H           4.6935   -3.2942   26.1657 H       1  UNL1        0.1498
     27 C           4.7818   -0.7659   27.3141 C.ar    1  UNL1        0.1053
     28 C           4.7791   -0.3452   28.7539 C.ar    1  UNL1        0.1278
     29 N           3.5014    0.3948   29.0183 N.ar    1  UNL1       -0.1622
     30 N           2.7144    0.4316   27.7419 N.ar    1  UNL1       -0.2163
     31 C           3.5058   -0.2857   26.6886 C.ar    1  UNL1        0.1327
     32 N           3.0934   -0.4875   25.2606 N.pl3   1  UNL1       -0.3424
     33 H           2.2319   -0.1331   24.9422 H       1  UNL1        0.1437
     34 H           3.6843   -0.9744   24.6417 H       1  UNL1        0.1437
     35 C           1.3718    1.0730   27.5520 C.ar    1  UNL1        0.0843
     36 C           0.1645    0.5020   28.2347 C.ar    1  UNL1        0.0215
     37 C          -1.1780    1.1435   28.0448 C.ar    1  UNL1        0.0312
     38 C          -1.3132    2.3560   27.1722 C.ar    1  UNL1        0.1402
     39 F          -2.6558    2.9975   26.9823 F       1  UNL1       -0.2042
     40 C          -0.1059    2.9270   26.4894 C.ar    1  UNL1        0.0312
     41 C           1.2367    2.2856   26.6793 C.ar    1  UNL1        0.0215
@<TRIPOS>BOND
     1    20    21    1
     2    21     9    1
     3     9     8    1
     4     8     1    1
     5     1     2    1
     6     1    22    1
     7    22    23    1
     8    23    24   am
     9    24    25    2
    10    24    27    1
    11    27    28   ar
    12    28    29   ar
    13    29    30   ar
    14    30    35    1
    15    35    36   ar
    16    36    37   ar
    17    37    38   ar
    18    38    39    1
    19    38    40   ar
    20    40    41   ar
    21    30    31   ar
    22    31    32    1
    23     1     4    1
    24     4     5    1
    25     4     6    1
    26     4     7    1
    27     9    10   am
    28    10    11    2
    29    10    12    1
    30    12    13   ar
    31    13    14    1
    32    13    15   ar
    33    15    16   ar
    34    16    17   ar
    35    17    18   ar
    36    18    19    1
    37    31    27   ar
    38    18    12   ar
    39    41    35   ar
    40     2     3    1
    41    23    26    1
    42    32    33    1
    43    32    34    1
@<TRIPOS>MOLECULE
*****
 41 43 0 0 0
SMALL
GASTEIGER

@<TRIPOS>ATOM
      1 C           5.0825   -2.9164   20.1954 C.3     1  UNL1        0.2120
      2 O           5.2822   -1.7958   21.1723 O.3     1  UNL1       -0.3763
      3 H           6.1528   -1.8831   21.5910 H       1  UNL1        0.2107
      4 C           4.8828   -4.0370   19.2185 C.3     1  UNL1        0.4226
      5 F           4.6830   -5.1576   18.2416 F       1  UNL1       -0.1675
      6 F           3.9663   -4.7203   20.1898 F       1  UNL1       -0.1675
      7 F           5.7992   -3.3537   18.2473 F       1  UNL1       -0.1675
      8 C           3.7252   -2.3770   19.8541 C.3     1  UNL1        0.1307
      9 N           3.5703   -0.9438   19.4392 N.am    1  UNL1       -0.2732
     10 C           2.7198   -0.0148   20.2539 C.2     1  UNL1        0.2535
     11 O           2.0242   -0.5191   21.4835 O.2     1  UNL1       -0.2697
     12 C           2.5650    1.4183   19.8390 C.ar    1  UNL1        0.1083
     13 C           1.6037    1.7832   18.7469 C.ar    1  UNL1        0.1467
     14 F           0.7972    0.7150   18.0697 F       1  UNL1       -0.2039
     15 C           1.4488    3.2163   18.3320 C.ar    1  UNL1        0.0299
     16 C           2.2552    4.2846   19.0092 C.ar    1  UNL1        0.0046
     17 C           3.2166    3.9196   20.1013 C.ar    1  UNL1        0.0299
     18 C           3.3714    2.4865   20.5162 C.ar    1  UNL1        0.1467
     19 F           4.3327    2.1216   21.6083 F       1  UNL1       -0.2039
     20 C           3.7930   -0.8673   16.8518 C.3     1  UNL1        0.0233
     21 C           4.2659   -0.4396   18.2096 C.3     1  UNL1        0.0939
     22 C           6.4399   -3.4559   20.5367 C.3     1  UNL1        0.1269
     23 N           6.8456   -3.6122   21.9723 N.am    1  UNL1       -0.2982
     24 C           7.7530   -4.7359   22.3771 C.2     1  UNL1        0.2502
     25 O           8.2548   -5.7033   21.3464 O.2     1  UNL1       -0.2700
     26 H           6.5162   -2.9773   22.6488 H       1  UNL1        0.1498
     27 C           8.1587   -4.8922   23.8127 C.ar    1  UNL1        0.1053
     28 C           9.4590   -5.4552   24.3053 C.ar    1  UNL1        0.1278
     29 N           9.4392   -5.4240   25.8048 N.ar    1  UNL1       -0.1622
     30 N           8.1268   -4.8417   26.2391 N.ar    1  UNL1       -0.2163
     31 C           7.3355   -4.5131   25.0079 C.ar    1  UNL1        0.1327
     32 N           5.9619   -3.9110   24.9773 N.pl3   1  UNL1       -0.3424
     33 H           5.5000   -3.6957   25.8196 H       1  UNL1        0.1437
     34 H           5.5224   -3.7312   24.1149 H       1  UNL1        0.1437
     35 C           7.6836   -4.6259   27.6558 C.ar    1  UNL1        0.0843
     36 C           7.5958   -3.2351   28.2106 C.ar    1  UNL1        0.0215
     37 C           7.1526   -3.0194   29.6273 C.ar    1  UNL1        0.0312
     38 C           6.7972   -4.1945   30.4891 C.ar    1  UNL1        0.1402
     39 F           6.3539   -3.9788   31.9059 F       1  UNL1       -0.2042
     40 C           6.8850   -5.5854   29.9343 C.ar    1  UNL1        0.0312
     41 C           7.3282   -5.8011   28.5177 C.ar    1  UNL1        0.0215
@<TRIPOS>BOND
     1    20    21    1
     2    21     9    1
     3     9     8    1
     4     8     1    1
     5     1     2    1
     6     1    22    1
     7    22    23    1
     8    23    24   am
     9    24    25    2
    10    24    27    1
    11    27    28   ar
    12    28    29   ar
    13    29    30   ar
    14    30    35    1
    15    35    36   ar
    16    36    37   ar
    17    37    38   ar
    18    38    39    1
    19    38    40   ar
    20    40    41   ar
    21    30    31   ar
    22    31    32    1
    23     1     4    1
    24     4     5    1
    25     4     6    1
    26     4     7    1
    27     9    10   am
    28    10    11    2
    29    10    12    1
    30    12    13   ar
    31    13    14    1
    32    13    15   ar
    33    15    16   ar
    34    16    17   ar
    35    17    18   ar
    36    18    19    1
    37    31    27   ar
    38    18    12   ar
    39    41    35   ar
    40     2     3    1
    41    23    26    1
    42    32    33    1
    43    32    34    1
@<TRIPOS>MOLECULE
*****
 41 43 0 0 0
SMALL
GASTEIGER

@<TRIPOS>ATOM
      1 C           5.5262   -3.0054   19.9429 C.3     1  UNL1        0.2120
      2 O           4.8283   -3.5638   21.1476 O.3     1  UNL1       -0.3763
      3 H           5.4811   -3.9644   21.7427 H       1  UNL1        0.2107
      4 C           6.2241   -2.4469   18.7383 C.3     1  UNL1        0.4226
      5 F           6.9219   -1.8885   17.5338 F       1  UNL1       -0.1675
      6 F           5.4601   -3.3912   17.8581 F       1  UNL1       -0.1675
      7 F           6.9880   -1.5027   19.6186 F       1  UNL1       -0.1675
      8 C           4.2087   -2.5458   19.3927 C.3     1  UNL1        0.1307
      9 N           3.8329   -1.0951   19.4597 N.am    1  UNL1       -0.2732
     10 C           3.5398   -0.3372   18.1989 C.2     1  UNL1        0.2535
     11 O           3.6225   -1.0300   16.8710 O.2     1  UNL1       -0.2697
     12 C           3.1641    1.1134   18.2659 C.ar    1  UNL1        0.1083
     13 C           4.2188    2.1691   18.1143 C.ar    1  UNL1        0.1467
     14 F           5.6493    1.7742   17.8956 F       1  UNL1       -0.2039
     15 C           3.8431    3.6197   18.1813 C.ar    1  UNL1        0.0299
     16 C           2.4127    4.0147   18.4000 C.ar    1  UNL1        0.0046
     17 C           1.3579    2.9590   18.5516 C.ar    1  UNL1        0.0299
     18 C           1.7336    1.5083   18.4846 C.ar    1  UNL1        0.1467
     19 F           0.6789    0.4526   18.6362 F       1  UNL1       -0.2039
     20 C           2.4955   -0.4941   21.6046 C.3     1  UNL1        0.0233
     21 C           3.7502   -0.4023   20.7876 C.3     1  UNL1        0.0939
     22 C           6.8437   -3.4650   20.4932 C.3     1  UNL1        0.1269
     23 N           6.8915   -4.2378   21.7779 N.am    1  UNL1       -0.2982
     24 C           8.1572   -4.9289   22.1908 C.2     1  UNL1        0.2502
     25 O           9.3751   -4.8471   21.3191 O.2     1  UNL1       -0.2700
     26 H           6.0921   -4.2915   22.3500 H       1  UNL1        0.1498
     27 C           8.2049   -5.7017   23.4755 C.ar    1  UNL1        0.1053
     28 C           8.4892   -7.1682   23.6123 C.ar    1  UNL1        0.1278
     29 N           8.4367   -7.5166   25.0703 N.ar    1  UNL1       -0.1622
     30 N           8.1200   -6.2654   25.8347 N.ar    1  UNL1       -0.2163
     31 C           7.9767   -5.1438   24.8491 C.ar    1  UNL1        0.1327
     32 N           7.6607   -3.7151   25.1791 N.pl3   1  UNL1       -0.3424
     33 H           7.5271   -3.4442   26.1161 H       1  UNL1        0.1437
     34 H           7.5868   -3.0482   24.4586 H       1  UNL1        0.1437
     35 C           7.9724   -6.1552   27.3234 C.ar    1  UNL1        0.0843
     36 C           6.7359   -5.5425   27.9112 C.ar    1  UNL1        0.0215
     37 C           6.5883   -5.4324   29.3998 C.ar    1  UNL1        0.0312
     38 C           7.6773   -5.9349   30.3006 C.ar    1  UNL1        0.1402
     39 F           7.5298   -5.8247   31.7893 F       1  UNL1       -0.2042
     40 C           8.9139   -6.5476   29.7129 C.ar    1  UNL1        0.0312
     41 C           9.0614   -6.6578   28.2242 C.ar    1  UNL1        0.0215
@<TRIPOS>BOND
     1    20    21    1
     2    21     9    1
     3     9     8    1
     4     8     1    1
     5     1     2    1
     6     1    22    1
     7    22    23    1
     8    23    24   am
     9    24    25    2
    10    24    27    1
    11    27    28   ar
    12    28    29   ar
    13    29    30   ar
    14    30    35    1
    15    35    36   ar
    16    36    37   ar
    17    37    38   ar
    18    38    39    1
    19    38    40   ar
    20    40    41   ar
    21    30    31   ar
    22    31    32    1
    23     1     4    1
    24     4     5    1
    25     4     6    1
    26     4     7    1
    27     9    10   am
    28    10    11    2
    29    10    12    1
    30    12    13   ar
    31    13    14    1
    32    13    15   ar
    33    15    16   ar
    34    16    17   ar
    35    17    18   ar
    36    18    19    1
    37    31    27   ar
    38    18    12   ar
    39    41    35   ar
    40     2     3    1
    41    23    26    1
    42    32    33    1
    43    32    34    1
@<TRIPOS>MOLECULE
*****
 41 43 0 0 0
SMALL
GASTEIGER

@<TRIPOS>ATOM
      1 C          -3.9188    3.5846   19.9850 C.3     1  UNL1        0.2120
      2 O          -3.1581    3.1622   21.2069 O.3     1  UNL1       -0.3763
      3 H          -2.2087    3.2939   21.0583 H       1  UNL1        0.2107
      4 C          -4.6795    4.0071   18.7631 C.3     1  UNL1        0.4226
      5 F          -5.4401    4.4295   17.5414 F       1  UNL1       -0.1675
      6 F          -5.6192    2.8528   18.9492 F       1  UNL1       -0.1675
      7 F          -3.7397    5.1614   18.5772 F       1  UNL1       -0.1675
      8 C          -5.2071    3.2193   20.6607 C.3     1  UNL1        0.1307
      9 N          -5.8795    4.2009   21.5742 N.am    1  UNL1       -0.2732
     10 C          -5.7609    4.0445   23.0613 C.2     1  UNL1        0.2535
     11 O          -4.9699    2.9064   23.6350 O.2     1  UNL1       -0.2697
     12 C          -6.4334    5.0261   23.9747 C.ar    1  UNL1        0.1083
     13 C          -7.9042    4.9120   24.2461 C.ar    1  UNL1        0.1467
     14 F          -8.7025    3.8163   23.6041 F       1  UNL1       -0.2039
     15 C          -8.5766    5.8936   25.1595 C.ar    1  UNL1        0.0299
     16 C          -7.7783    6.9893   25.8015 C.ar    1  UNL1        0.0046
     17 C          -6.3075    7.1034   25.5300 C.ar    1  UNL1        0.0299
     18 C          -5.6350    6.1218   24.6166 C.ar    1  UNL1        0.1467
     19 F          -4.1642    6.2359   24.3452 F       1  UNL1       -0.2039
     20 C          -6.0125    6.6662   20.7648 C.3     1  UNL1        0.0233
     21 C          -6.6706    5.3390   21.0005 C.3     1  UNL1        0.0939
     22 C          -2.6304    3.9500   19.3093 C.3     1  UNL1        0.1269
     23 N          -1.3581    3.2553   19.6946 N.am    1  UNL1       -0.2982
     24 C          -0.3123    2.9754   18.6563 C.2     1  UNL1        0.2502
     25 O          -0.5388    3.3902   17.2327 O.2     1  UNL1       -0.2700
     26 H          -1.2094    2.9830   20.6289 H       1  UNL1        0.1498
     27 C           0.9600    2.2806   19.0416 C.ar    1  UNL1        0.1053
     28 C           2.3489    2.7265   18.6918 C.ar    1  UNL1        0.1278
     29 N           3.3142    1.7394   19.2784 N.ar    1  UNL1       -0.1622
     30 N           2.5219    0.6836   19.9908 N.ar    1  UNL1       -0.2163
     31 C           1.0670    1.0181   19.8444 C.ar    1  UNL1        0.1327
     32 N          -0.0797    0.2286   20.4029 N.pl3   1  UNL1       -0.3424
     33 H           0.0926   -0.5915   20.9195 H       1  UNL1        0.1437
     34 H          -1.0046    0.5306   20.2527 H       1  UNL1        0.1437
     35 C           3.0855   -0.4991   20.7212 C.ar    1  UNL1        0.0843
     36 C           3.5279   -1.7116   19.9569 C.ar    1  UNL1        0.0215
     37 C           4.0915   -2.8942   20.6874 C.ar    1  UNL1        0.0312
     38 C           4.2127   -2.8644   22.1822 C.ar    1  UNL1        0.1402
     39 F           4.7764   -4.0472   22.9127 F       1  UNL1       -0.2042
     40 C           3.7704   -1.6520   22.9465 C.ar    1  UNL1        0.0312
     41 C           3.2068   -0.4693   22.2160 C.ar    1  UNL1        0.0215
@<TRIPOS>BOND
     1    20    21    1
     2    21     9    1
     3     9     8    1
     4     8     1    1
     5     1     2    1
     6     1    22    1
     7    22    23    1
     8    23    24   am
     9    24    25    2
    10    24    27    1
    11    27    28   ar
    12    28    29   ar
    13    29    30   ar
    14    30    35    1
    15    35    36   ar
    16    36    37   ar
    17    37    38   ar
    18    38    39    1
    19    38    40   ar
    20    40    41   ar
    21    30    31   ar
    22    31    32    1
    23     1     4    1
    24     4     5    1
    25     4     6    1
    26     4     7    1
    27     9    10   am
    28    10    11    2
    29    10    12    1
    30    12    13   ar
    31    13    14    1
    32    13    15   ar
    33    15    16   ar
    34    16    17   ar
    35    17    18   ar
    36    18    19    1
    37    31    27   ar
    38    18    12   ar
    39    41    35   ar
    40     2     3    1
    41    23    26    1
    42    32    33    1
    43    32    34    1
@<TRIPOS>MOLECULE
*****
 41 43 0 0 0
SMALL
GASTEIGER

@<TRIPOS>ATOM
      1 C         -12.0915   -6.0575   17.8054 C.3     1  UNL1        0.2120
      2 O         -13.2394   -5.4451   17.0589 O.3     1  UNL1       -0.3763
      3 H         -13.0642   -4.5023   16.9133 H       1  UNL1        0.2107
      4 C         -10.9435   -6.6699   18.5518 C.3     1  UNL1        0.4226
      5 F          -9.7956   -7.2823   19.2982 F       1  UNL1       -0.1675
      6 F         -10.9971   -7.8682   17.6511 F       1  UNL1       -0.1675
      7 F         -10.8900   -5.4716   19.4525 F       1  UNL1       -0.1675
      8 C         -12.7846   -7.3874   17.7803 C.3     1  UNL1        0.1307
      9 N         -14.2627   -7.4675   18.0235 N.am    1  UNL1       -0.2732
     10 C         -14.8683   -6.7630   19.2012 C.2     1  UNL1        0.2535
     11 O         -13.9958   -5.9784   20.1357 O.2     1  UNL1       -0.2697
     12 C         -16.3462   -6.8431   19.4443 C.ar    1  UNL1        0.1083
     13 C         -17.2225   -5.6665   19.1319 C.ar    1  UNL1        0.1467
     14 F         -16.6208   -4.4097   18.5764 F       1  UNL1       -0.2039
     15 C         -18.7005   -5.7466   19.3751 C.ar    1  UNL1        0.0299
     16 C         -19.3023   -7.0033   19.9306 C.ar    1  UNL1        0.0046
     17 C         -18.4259   -8.1800   20.2430 C.ar    1  UNL1        0.0299
     18 C         -16.9479   -8.0999   19.9999 C.ar    1  UNL1        0.1467
     19 F         -16.0716   -9.2765   20.3122 F       1  UNL1       -0.2039
     20 C         -15.8954   -7.5485   16.0041 C.3     1  UNL1        0.0233
     21 C         -15.1351   -8.2522   17.0890 C.3     1  UNL1        0.0939
     22 C         -11.3983   -4.7275   17.8304 C.3     1  UNL1        0.1269
     23 N         -12.1638   -3.4767   17.5152 N.am    1  UNL1       -0.2982
     24 C         -12.7761   -2.6727   18.6236 C.2     1  UNL1        0.2502
     25 O         -12.6230   -3.1195   20.0473 O.2     1  UNL1       -0.2700
     26 H         -12.2643   -3.1835   16.5808 H       1  UNL1        0.1498
     27 C         -13.5416   -1.4219   18.3084 C.ar    1  UNL1        0.1053
     28 C         -13.2402   -0.4600   17.1975 C.ar    1  UNL1        0.1278
     29 N         -14.2553    0.6430   17.2512 N.ar    1  UNL1       -0.1622
     30 N         -15.1841    0.3629   18.3952 N.ar    1  UNL1       -0.2163
     31 C         -14.7430   -0.9132   19.0486 C.ar    1  UNL1        0.1327
     32 N         -15.3897   -1.5662   20.2341 N.pl3   1  UNL1       -0.3424
     33 H         -16.1790   -1.1534   20.6537 H       1  UNL1        0.1437
     34 H         -15.0250   -2.4074   20.5926 H       1  UNL1        0.1437
     35 C         -16.3494    1.2103   18.8127 C.ar    1  UNL1        0.0843
     36 C         -16.1163    2.4938   19.5530 C.ar    1  UNL1        0.0215
     37 C         -17.2815    3.3411   19.9704 C.ar    1  UNL1        0.0312
     38 C         -18.6799    2.9048   19.6476 C.ar    1  UNL1        0.1402
     39 F         -19.8452    3.7521   20.0650 F       1  UNL1       -0.2042
     40 C         -18.9130    1.6212   18.9073 C.ar    1  UNL1        0.0312
     41 C         -17.7477    0.7739   18.4899 C.ar    1  UNL1        0.0215
@<TRIPOS>BOND
     1    20    21    1
     2    21     9    1
     3     9     8    1
     4     8     1    1
     5     1     2    1
     6     1    22    1
     7    22    23    1
     8    23    24   am
     9    24    25    2
    10    24    27    1
    11    27    28   ar
    12    28    29   ar
    13    29    30   ar
    14    30    35    1
    15    35    36   ar
    16    36    37   ar
    17    37    38   ar
    18    38    39    1
    19    38    40   ar
    20    40    41   ar
    21    30    31   ar
    22    31    32    1
    23     1     4    1
    24     4     5    1
    25     4     6    1
    26     4     7    1
    27     9    10   am
    28    10    11    2
    29    10    12    1
    30    12    13   ar
    31    13    14    1
    32    13    15   ar
    33    15    16   ar
    34    16    17   ar
    35    17    18   ar
    36    18    19    1
    37    31    27   ar
    38    18    12   ar
    39    41    35   ar
    40     2     3    1
    41    23    26    1
    42    32    33    1
    43    32    34    1
@<TRIPOS>MOLECULE
*****
 41 43 0 0 0
SMALL
GASTEIGER

@<TRIPOS>ATOM
      1 C           1.2736    3.4632   19.3107 C.3     1  UNL1        0.2120
      2 O           2.1557    3.1805   20.4906 O.3     1  UNL1       -0.3763
      3 H           1.8077    3.6387   21.2715 H       1  UNL1        0.2107
      4 C           0.3916    3.7459   18.1308 C.3     1  UNL1        0.4226
      5 F          -0.4903    4.0286   16.9509 F       1  UNL1       -0.1675
      6 F           1.4842    4.5653   17.5105 F       1  UNL1       -0.1675
      7 F          -0.7009    2.9265   18.7512 F       1  UNL1       -0.1675
      8 C           2.1562    2.6118   18.4470 C.3     1  UNL1        0.1307
      9 N           2.3792    1.1696   18.7941 N.am    1  UNL1       -0.2732
     10 C           3.7741    0.6491   18.9764 C.2     1  UNL1        0.2535
     11 O           4.9460    1.5707   18.8116 O.2     1  UNL1       -0.2697
     12 C           3.9970   -0.7931   19.3235 C.ar    1  UNL1        0.1083
     13 C           4.0249   -1.2230   20.7603 C.ar    1  UNL1        0.1467
     14 F           3.8299   -0.2108   21.8500 F       1  UNL1       -0.2039
     15 C           4.2479   -2.6652   21.1074 C.ar    1  UNL1        0.0299
     16 C           4.4429   -3.6774   20.0178 C.ar    1  UNL1        0.0046
     17 C           4.4150   -3.2475   18.5809 C.ar    1  UNL1        0.0299
     18 C           4.1921   -1.8053   18.2338 C.ar    1  UNL1        0.1467
     19 F           4.1642   -1.3754   16.7971 F       1  UNL1       -0.2039
     20 C           0.5506    0.1019   20.2997 C.3     1  UNL1        0.0233
     21 C           1.2072    0.2479   18.9589 C.3     1  UNL1        0.0939
     22 C           0.3911    4.3147   20.1744 C.3     1  UNL1        0.1269
     23 N           0.2962    4.0440   21.6467 N.am    1  UNL1       -0.2982
     24 C          -0.8971    3.3240   22.2016 C.2     1  UNL1        0.2502
     25 O          -1.9954    2.8746   21.2841 O.2     1  UNL1       -0.2700
     26 H           1.0170    4.3389   22.2489 H       1  UNL1        0.1498
     27 C          -0.9920    3.0533   23.6739 C.ar    1  UNL1        0.1053
     28 C          -2.0042    3.6373   24.6143 C.ar    1  UNL1        0.1278
     29 N          -1.7292    3.0961   25.9859 N.ar    1  UNL1       -0.1622
     30 N          -0.5469    2.1775   25.8932 N.ar    1  UNL1       -0.2163
     31 C          -0.0913    2.1511   24.4643 C.ar    1  UNL1        0.1327
     32 N           1.0624    1.3612   23.9212 N.pl3   1  UNL1       -0.3424
     33 H           1.5973    0.7943   24.5226 H       1  UNL1        0.1437
     34 H           1.2846    1.4096   22.9634 H       1  UNL1        0.1437
     35 C           0.0712    1.4186   27.0299 C.ar    1  UNL1        0.0843
     36 C           1.5460    1.5188   27.2845 C.ar    1  UNL1        0.0215
     37 C           2.1641    0.7599   28.4212 C.ar    1  UNL1        0.0312
     38 C           1.3074   -0.0992   29.3032 C.ar    1  UNL1        0.1402
     39 F           1.9255   -0.8581   30.4399 F       1  UNL1       -0.2042
     40 C          -0.1674   -0.1994   29.0486 C.ar    1  UNL1        0.0312
     41 C          -0.7855    0.5595   27.9119 C.ar    1  UNL1        0.0215
@<TRIPOS>BOND
     1    20    21    1
     2    21     9    1
     3     9     8    1
     4     8     1    1
     5     1     2    1
     6     1    22    1
     7    22    23    1
     8    23    24   am
     9    24    25    2
    10    24    27    1
    11    27    28   ar
    12    28    29   ar
    13    29    30   ar
    14    30    35    1
    15    35    36   ar
    16    36    37   ar
    17    37    38   ar
    18    38    39    1
    19    38    40   ar
    20    40    41   ar
    21    30    31   ar
    22    31    32    1
    23     1     4    1
    24     4     5    1
    25     4     6    1
    26     4     7    1
    27     9    10   am
    28    10    11    2
    29    10    12    1
    30    12    13   ar
    31    13    14    1
    32    13    15   ar
    33    15    16   ar
    34    16    17   ar
    35    17    18   ar
    36    18    19    1
    37    31    27   ar
    38    18    12   ar
    39    41    35   ar
    40     2     3    1
    41    23    26    1
    42    32    33    1
    43    32    34    1
