@<TRIPOS>MOLECULE
*****
 42 48 0 0 0
SMALL
GASTEIGER

@<TRIPOS>ATOM
      1 C           0.6419    1.7159   19.5137 C.ar    1  UNL1        0.0508
      2 C           0.2073    0.4094   20.1088 C.ar    1  UNL1        0.0147
      3 C           1.1827   -0.7245   20.2224 C.ar    1  UNL1        0.0019
      4 C           2.5927   -0.5519   19.7409 C.ar    1  UNL1        0.0090
      5 C           3.0274    0.7546   19.1458 C.ar    1  UNL1        0.0307
      6 S           4.3418    1.2165   18.5898 S.2     1  UNL1       -0.0869
      7 C           4.1787    2.6357   18.1325 C.ar    1  UNL1        0.0295
      8 C           5.1359    3.6035   17.5024 C.ar    1  UNL1        0.0065
      9 C           4.6780    4.9866   17.1458 C.ar    1  UNL1        0.0005
     10 C           3.2629    5.4020   17.4193 C.ar    1  UNL1        0.0000
     11 C           2.3056    4.4342   18.0493 C.ar    1  UNL1        0.0006
     12 C           2.7635    3.0511   18.4059 C.ar    1  UNL1        0.0077
     13 C           2.0520    1.8885   19.0322 C.ar    1  UNL1        0.0200
     14 C           3.5682   -1.6857   19.8546 C.ar    1  UNL1        0.0352
     15 C           4.0183   -2.4142   18.6229 C.ar    1  UNL1        0.0031
     16 C           4.9937   -3.5480   18.7364 C.ar    1  UNL1        0.0003
     17 C           5.5190   -3.9535   20.0817 C.ar    1  UNL1        0.0062
     18 C           5.0689   -3.2252   21.3133 C.ar    1  UNL1        0.0736
     19 C           5.5942   -3.6307   22.6585 C.ar    1  UNL1        0.2030
     20 O           6.5696   -4.7645   22.7722 O.2     1  UNL1       -0.2863
     21 C           5.1441   -2.9023   23.8901 C.ar    1  UNL1        0.0955
     22 C           4.1686   -1.7684   23.7766 C.ar    1  UNL1        0.2024
     23 O           3.6433   -1.3629   22.4313 O.2     1  UNL1       -0.4398
     24 C           4.0934   -2.0912   21.1997 C.ar    1  UNL1        0.1498
     25 N           3.7185   -1.0400   25.0082 N.pl3   1  UNL1       -0.2742
     26 C           4.1092   -1.5476   26.3645 C.3     1  UNL1        0.1257
     27 C           3.6591   -0.8192   27.5961 C.3     1  UNL1        0.1637
     28 O           2.8183    0.4167   27.4714 O.3     1  UNL1       -0.3501
     29 C           2.4276    0.9243   26.1150 C.3     1  UNL1        0.1637
     30 C           2.8777    0.1959   24.8834 C.3     1  UNL1        0.1257
     31 C          -0.6602    3.6816   20.6048 C.2     1  UNL1        0.2425
     32 O          -0.0115    3.3796   21.9231 O.2     1  UNL1       -0.2733
     33 N          -0.3336    2.8498   19.4001 N.am    1  UNL1       -0.2828
     34 H          -0.7594    3.0480   18.5348 H       1  UNL1        0.1549
     35 C          -1.6357    4.8154   20.4912 C.3     1  UNL1        0.1588
     36 C          -7.1268    4.2966   22.8530 C.3     1  UNL1        0.0897
     37 N          -5.7541    4.4263   22.2626 N.3     1  UNL1       -0.2691
     38 C          -4.9544    3.1972   21.9464 C.3     1  UNL1        0.0897
     39 C          -3.5817    3.3269   21.3559 C.3     1  UNL1        0.0900
     40 N          -3.0084    4.6857   21.0816 N.3     1  UNL1       -0.2626
     41 C          -3.8081    5.9148   21.3978 C.3     1  UNL1        0.0900
     42 C          -5.1808    5.7851   21.9883 C.3     1  UNL1        0.0897
@<TRIPOS>BOND
     1    36    37    1
     2    37    38    1
     3    38    39    1
     4    39    40    1
     5    40    35    1
     6    35    31    1
     7    31    32    2
     8    31    33   am
     9    33     1    1
    10     1     2   ar
    11     2     3   ar
    12     3     4   ar
    13     4    14    1
    14    14    15   ar
    15    15    16   ar
    16    16    17   ar
    17    17    18   ar
    18    18    19   ar
    19    19    20    2
    20    19    21   ar
    21    21    22   ar
    22    22    25    1
    23    25    26    1
    24    26    27    1
    25    27    28    1
    26    28    29    1
    27    29    30    1
    28    22    23   ar
    29    23    24   ar
    30     4     5   ar
    31     5     6   ar
    32     6     7   ar
    33     7     8   ar
    34     8     9   ar
    35     9    10   ar
    36    10    11   ar
    37    11    12   ar
    38    12    13   ar
    39    40    41    1
    40    41    42    1
    41    42    37    1
    42    13     1   ar
    43    24    14   ar
    44    13     5   ar
    45    24    18   ar
    46    12     7   ar
    47    30    25    1
    48    33    34    1
@<TRIPOS>MOLECULE
*****
 42 48 0 0 0
SMALL
GASTEIGER

@<TRIPOS>ATOM
      1 C           4.3873    0.6123   26.0684 C.ar    1  UNL1        0.0508
      2 C           5.8084    0.1541   26.2118 C.ar    1  UNL1        0.0147
      3 C           6.2196   -0.6514   27.4085 C.ar    1  UNL1        0.0019
      4 C           5.2097   -0.9986   28.4618 C.ar    1  UNL1        0.0090
      5 C           3.7886   -0.5403   28.3184 C.ar    1  UNL1        0.0307
      6 S           2.5808   -0.7283   29.1878 S.2     1  UNL1       -0.0869
      7 C           1.4231   -0.0390   28.5284 C.ar    1  UNL1        0.0295
      8 C          -0.0157    0.1089   28.9258 C.ar    1  UNL1        0.0065
      9 C          -0.9621    0.8708   28.0462 C.ar    1  UNL1        0.0005
     10 C          -0.4698    1.4847   26.7692 C.ar    1  UNL1        0.0000
     11 C           0.9690    1.3368   26.3718 C.ar    1  UNL1        0.0006
     12 C           1.9155    0.5750   27.2514 C.ar    1  UNL1        0.0077
     13 C           3.3774    0.2651   27.1217 C.ar    1  UNL1        0.0200
     14 C           5.6209   -1.8040   29.6586 C.ar    1  UNL1        0.0352
     15 C           5.3914   -1.2657   31.0398 C.ar    1  UNL1        0.0031
     16 C           5.8025   -2.0710   32.2365 C.ar    1  UNL1        0.0003
     17 C           6.4432   -3.4148   32.0522 C.ar    1  UNL1        0.0062
     18 C           6.6727   -3.9530   30.6710 C.ar    1  UNL1        0.0736
     19 C           7.3134   -5.2968   30.4866 C.ar    1  UNL1        0.2030
     20 O           7.7246   -6.1022   31.6834 O.2     1  UNL1       -0.2863
     21 C           7.5429   -5.8351   29.1055 C.ar    1  UNL1        0.0955
     22 C           7.1317   -5.0296   27.9087 C.ar    1  UNL1        0.2024
     23 O           6.4910   -3.6859   28.0931 O.2     1  UNL1       -0.4398
     24 C           6.2615   -3.1476   29.4742 C.ar    1  UNL1        0.1498
     25 N           7.3612   -5.5679   26.5275 N.pl3   1  UNL1       -0.2742
     26 C           7.2247   -4.6643   25.3381 C.3     1  UNL1        0.1257
     27 C           7.4542   -5.2026   23.9570 C.3     1  UNL1        0.1637
     28 O           7.8202   -6.6445   23.7653 O.3     1  UNL1       -0.3501
     29 C           7.9567   -7.5482   24.9547 C.3     1  UNL1        0.1637
     30 C           7.7272   -7.0099   26.3358 C.3     1  UNL1        0.1257
     31 C           3.3170    0.7441   23.7046 C.2     1  UNL1        0.2425
     32 O           3.0689   -0.7349   23.7344 O.2     1  UNL1       -0.2733
     33 N           3.9761    1.4178   24.8715 N.am    1  UNL1       -0.2828
     34 H           4.1389    2.3885   24.8519 H       1  UNL1        0.1549
     35 C           2.9059    1.5495   22.5079 C.3     1  UNL1        0.1588
     36 C           3.6568   -0.6808   16.9887 C.3     1  UNL1        0.0897
     37 N           3.4691   -0.1232   18.3684 N.3     1  UNL1       -0.2691
     38 C           2.1271    0.3971   18.7909 C.3     1  UNL1        0.0897
     39 C           1.9394    0.9547   20.1707 C.3     1  UNL1        0.0900
     40 N           3.0936    0.9920   21.1281 N.3     1  UNL1       -0.2626
     41 C           4.4355    0.4717   20.7056 C.3     1  UNL1        0.0900
     42 C           4.6233   -0.0859   19.3258 C.3     1  UNL1        0.0897
@<TRIPOS>BOND
     1    36    37    1
     2    37    38    1
     3    38    39    1
     4    39    40    1
     5    40    35    1
     6    35    31    1
     7    31    32    2
     8    31    33   am
     9    33     1    1
    10     1     2   ar
    11     2     3   ar
    12     3     4   ar
    13     4    14    1
    14    14    15   ar
    15    15    16   ar
    16    16    17   ar
    17    17    18   ar
    18    18    19   ar
    19    19    20    2
    20    19    21   ar
    21    21    22   ar
    22    22    25    1
    23    25    26    1
    24    26    27    1
    25    27    28    1
    26    28    29    1
    27    29    30    1
    28    22    23   ar
    29    23    24   ar
    30     4     5   ar
    31     5     6   ar
    32     6     7   ar
    33     7     8   ar
    34     8     9   ar
    35     9    10   ar
    36    10    11   ar
    37    11    12   ar
    38    12    13   ar
    39    40    41    1
    40    41    42    1
    41    42    37    1
    42    13     1   ar
    43    24    14   ar
    44    13     5   ar
    45    24    18   ar
    46    12     7   ar
    47    30    25    1
    48    33    34    1
@<TRIPOS>MOLECULE
*****
 42 48 0 0 0
SMALL
GASTEIGER

@<TRIPOS>ATOM
      1 C           7.2985   -2.4281   25.2341 C.ar    1  UNL1        0.0508
      2 C           7.0240   -1.0705   25.8098 C.ar    1  UNL1        0.0147
      3 C           6.8125   -0.9106   27.2862 C.ar    1  UNL1        0.0019
      4 C           6.8755   -2.1085   28.1868 C.ar    1  UNL1        0.0090
      5 C           7.1500   -3.4661   27.6111 C.ar    1  UNL1        0.0307
      6 S           7.2700   -4.8200   28.2457 S.2     1  UNL1       -0.0869
      7 C           7.5556   -5.8165   27.1616 C.ar    1  UNL1        0.0295
      8 C           7.7715   -7.3005   27.1938 C.ar    1  UNL1        0.0065
      9 C           8.0439   -8.0465   25.9214 C.ar    1  UNL1        0.0005
     10 C           8.1005   -7.3086   24.6167 C.ar    1  UNL1        0.0000
     11 C           7.8846   -5.8246   24.5844 C.ar    1  UNL1        0.0006
     12 C           7.6122   -5.0785   25.8569 C.ar    1  UNL1        0.0077
     13 C           7.3615   -3.6260   26.1347 C.ar    1  UNL1        0.0200
     14 C           6.6641   -1.9487   29.6632 C.ar    1  UNL1        0.0352
     15 C           7.7308   -2.3815   30.6249 C.ar    1  UNL1        0.0031
     16 C           7.5194   -2.2217   32.1013 C.ar    1  UNL1        0.0003
     17 C           6.2412   -1.6291   32.6160 C.ar    1  UNL1        0.0062
     18 C           5.1745   -1.1962   31.6544 C.ar    1  UNL1        0.0736
     19 C           3.8963   -0.6035   32.1692 C.ar    1  UNL1        0.2030
     20 O           3.6848   -0.4437   33.6456 O.2     1  UNL1       -0.2863
     21 C           2.8296   -0.1707   31.2076 C.ar    1  UNL1        0.0955
     22 C           3.0410   -0.3305   29.7311 C.ar    1  UNL1        0.2024
     23 O           4.3192   -0.9232   29.2163 O.2     1  UNL1       -0.4398
     24 C           5.3860   -1.3560   30.1780 C.ar    1  UNL1        0.1498
     25 N           1.9743    0.1024   28.7695 N.pl3   1  UNL1       -0.2742
     26 C           2.3523    0.7729   27.4822 C.3     1  UNL1        0.1257
     27 C           1.2856    1.2058   26.5206 C.3     1  UNL1        0.1637
     28 O          -0.1591    0.9681   26.8463 O.3     1  UNL1       -0.3501
     29 C          -0.5372    0.2974   28.1337 C.3     1  UNL1        0.1637
     30 C           0.5295   -0.1354   29.0953 C.3     1  UNL1        0.1257
     31 C           6.3901   -3.0781   22.8883 C.2     1  UNL1        0.2425
     32 O           5.0589   -3.4086   23.4953 O.2     1  UNL1       -0.2733
     33 N           7.5100   -2.5879   23.7576 N.am    1  UNL1       -0.2828
     34 H           8.3837   -2.3710   23.3591 H       1  UNL1        0.1549
     35 C           6.6017   -3.2379   21.4119 C.3     1  UNL1        0.1588
     36 C           3.2386   -0.1179   17.5447 C.3     1  UNL1        0.0897
     37 N           4.0794   -0.8979   18.5115 N.3     1  UNL1       -0.2691
     38 C           4.5575   -0.2538   19.7790 C.3     1  UNL1        0.0897
     39 C           5.3982   -1.0337   20.7458 C.3     1  UNL1        0.0900
     40 N           5.7609   -2.4579   20.4451 N.3     1  UNL1       -0.2626
     41 C           5.2828   -3.1020   19.1776 C.3     1  UNL1        0.0900
     42 C           4.4421   -2.3220   18.2108 C.3     1  UNL1        0.0897
@<TRIPOS>BOND
     1    36    37    1
     2    37    38    1
     3    38    39    1
     4    39    40    1
     5    40    35    1
     6    35    31    1
     7    31    32    2
     8    31    33   am
     9    33     1    1
    10     1     2   ar
    11     2     3   ar
    12     3     4   ar
    13     4    14    1
    14    14    15   ar
    15    15    16   ar
    16    16    17   ar
    17    17    18   ar
    18    18    19   ar
    19    19    20    2
    20    19    21   ar
    21    21    22   ar
    22    22    25    1
    23    25    26    1
    24    26    27    1
    25    27    28    1
    26    28    29    1
    27    29    30    1
    28    22    23   ar
    29    23    24   ar
    30     4     5   ar
    31     5     6   ar
    32     6     7   ar
    33     7     8   ar
    34     8     9   ar
    35     9    10   ar
    36    10    11   ar
    37    11    12   ar
    38    12    13   ar
    39    40    41    1
    40    41    42    1
    41    42    37    1
    42    13     1   ar
    43    24    14   ar
    44    13     5   ar
    45    24    18   ar
    46    12     7   ar
    47    30    25    1
    48    33    34    1
@<TRIPOS>MOLECULE
*****
 42 48 0 0 0
SMALL
GASTEIGER

@<TRIPOS>ATOM
      1 C           4.3073    1.1256   26.3137 C.ar    1  UNL1        0.0508
      2 C           5.7513    0.7541   26.4773 C.ar    1  UNL1        0.0147
      3 C           6.1745   -0.1288   27.6137 C.ar    1  UNL1        0.0019
      4 C           5.1537   -0.6401   28.5865 C.ar    1  UNL1        0.0090
      5 C           3.7096   -0.2686   28.4229 C.ar    1  UNL1        0.0307
      6 S           2.4869   -0.6182   29.2184 S.2     1  UNL1       -0.0869
      7 C           1.3081    0.0486   28.5736 C.ar    1  UNL1        0.0295
      8 C          -0.1514    0.0606   28.9195 C.ar    1  UNL1        0.0065
      9 C          -1.1168    0.8343   28.0713 C.ar    1  UNL1        0.0005
     10 C          -0.6227    1.5960   26.8773 C.ar    1  UNL1        0.0000
     11 C           0.8368    1.5840   26.5315 C.ar    1  UNL1        0.0006
     12 C           1.8022    0.8103   27.3796 C.ar    1  UNL1        0.0077
     13 C           3.2864    0.6143   27.2865 C.ar    1  UNL1        0.0200
     14 C           5.5769   -1.5230   29.7229 C.ar    1  UNL1        0.0352
     15 C           5.3777   -1.0700   31.1390 C.ar    1  UNL1        0.0031
     16 C           5.8009   -1.9527   32.2754 C.ar    1  UNL1        0.0003
     17 C           6.4232   -3.2886   31.9958 C.ar    1  UNL1        0.0062
     18 C           6.6224   -3.7416   30.5798 C.ar    1  UNL1        0.0736
     19 C           7.2448   -5.0775   30.3003 C.ar    1  UNL1        0.2030
     20 O           7.6679   -5.9604   31.4367 O.2     1  UNL1       -0.2863
     21 C           7.4439   -5.5305   28.8843 C.ar    1  UNL1        0.0955
     22 C           7.0207   -4.6476   27.7477 C.ar    1  UNL1        0.2024
     23 O           6.3984   -3.3118   28.0273 O.2     1  UNL1       -0.4398
     24 C           6.1992   -2.8588   29.4433 C.ar    1  UNL1        0.1498
     25 N           7.2199   -5.1006   26.3317 N.pl3   1  UNL1       -0.2742
     26 C           6.8964   -4.1759   25.1959 C.3     1  UNL1        0.1257
     27 C           7.0955   -4.6289   23.7799 C.3     1  UNL1        0.1637
     28 O           7.6182   -6.0067   23.4997 O.3     1  UNL1       -0.3501
     29 C           7.9418   -6.9314   24.6355 C.3     1  UNL1        0.1637
     30 C           7.7426   -6.4784   26.0515 C.3     1  UNL1        0.1257
     31 C           3.4431    1.4002   23.8789 C.2     1  UNL1        0.2425
     32 O           3.4252   -0.0909   23.7170 O.2     1  UNL1       -0.2733
     33 N           3.8841    2.0085   25.1772 N.am    1  UNL1       -0.2828
     34 H           3.8958    2.9872   25.2834 H       1  UNL1        0.1549
     35 C           3.0200    2.2831   22.7425 C.3     1  UNL1        0.1588
     36 C          -2.7275    3.9147   22.1905 C.3     1  UNL1        0.0897
     37 N          -1.2906    3.5068   22.3285 N.3     1  UNL1       -0.2691
     38 C          -0.6520    2.6439   21.2808 C.3     1  UNL1        0.0897
     39 C           0.7848    2.2360   21.4188 C.3     1  UNL1        0.0900
     40 N           1.5831    2.6910   22.6045 N.3     1  UNL1       -0.2626
     41 C           0.9445    3.5539   23.6522 C.3     1  UNL1        0.0900
     42 C          -0.4923    3.9618   23.5142 C.3     1  UNL1        0.0897
@<TRIPOS>BOND
     1    36    37    1
     2    37    38    1
     3    38    39    1
     4    39    40    1
     5    40    35    1
     6    35    31    1
     7    31    32    2
     8    31    33   am
     9    33     1    1
    10     1     2   ar
    11     2     3   ar
    12     3     4   ar
    13     4    14    1
    14    14    15   ar
    15    15    16   ar
    16    16    17   ar
    17    17    18   ar
    18    18    19   ar
    19    19    20    2
    20    19    21   ar
    21    21    22   ar
    22    22    25    1
    23    25    26    1
    24    26    27    1
    25    27    28    1
    26    28    29    1
    27    29    30    1
    28    22    23   ar
    29    23    24   ar
    30     4     5   ar
    31     5     6   ar
    32     6     7   ar
    33     7     8   ar
    34     8     9   ar
    35     9    10   ar
    36    10    11   ar
    37    11    12   ar
    38    12    13   ar
    39    40    41    1
    40    41    42    1
    41    42    37    1
    42    13     1   ar
    43    24    14   ar
    44    13     5   ar
    45    24    18   ar
    46    12     7   ar
    47    30    25    1
    48    33    34    1
@<TRIPOS>MOLECULE
*****
 42 48 0 0 0
SMALL
GASTEIGER

@<TRIPOS>ATOM
      1 C           5.8130   -0.4952   22.8550 C.ar    1  UNL1        0.0508
      2 C           5.5859    0.7831   23.6062 C.ar    1  UNL1        0.0147
      3 C           4.3427    1.5860   23.3617 C.ar    1  UNL1        0.0019
      4 C           3.3267    1.1107   22.3658 C.ar    1  UNL1        0.0090
      5 C           3.5539   -0.1676   21.6146 C.ar    1  UNL1        0.0307
      6 S           2.7366   -0.8825   20.5797 S.2     1  UNL1       -0.0869
      7 C           3.4746   -2.1272   20.1846 C.ar    1  UNL1        0.0295
      8 C           3.1516   -3.2180   19.2070 C.ar    1  UNL1        0.0065
      9 C           4.1021   -4.3632   19.0202 C.ar    1  UNL1        0.0005
     10 C           5.3755   -4.4177   19.8110 C.ar    1  UNL1        0.0000
     11 C           5.6985   -3.3269   20.7886 C.ar    1  UNL1        0.0006
     12 C           4.7481   -2.1816   20.9754 C.ar    1  UNL1        0.0077
     13 C           4.7970   -0.9706   21.8591 C.ar    1  UNL1        0.0200
     14 C           2.0835    1.9136   22.1213 C.ar    1  UNL1        0.0352
     15 C           1.8564    2.5560   20.7849 C.ar    1  UNL1        0.0031
     16 C           0.6133    3.3589   20.5403 C.ar    1  UNL1        0.0003
     17 C          -0.4028    3.5195   21.6320 C.ar    1  UNL1        0.0062
     18 C          -0.1757    2.8771   22.9683 C.ar    1  UNL1        0.0736
     19 C          -1.1917    3.0377   24.0601 C.ar    1  UNL1        0.2030
     20 O          -2.4349    3.8406   23.8155 O.2     1  UNL1       -0.2863
     21 C          -0.9646    2.3954   25.3964 C.ar    1  UNL1        0.0955
     22 C           0.2787    1.5924   25.6410 C.ar    1  UNL1        0.2024
     23 O           1.2947    1.4318   24.5493 O.2     1  UNL1       -0.4398
     24 C           1.0676    2.0741   23.2130 C.ar    1  UNL1        0.1498
     25 N           0.5058    0.9500   26.9774 N.pl3   1  UNL1       -0.2742
     26 C          -0.6584    0.6595   27.8774 C.3     1  UNL1        0.1257
     27 C          -0.4312    0.0172   29.2138 C.3     1  UNL1        0.1637
     28 O           0.9600   -0.3346   29.6500 O.3     1  UNL1       -0.3501
     29 C           2.1243   -0.0442   28.7499 C.3     1  UNL1        0.1637
     30 C           1.8972    0.5982   27.4136 C.3     1  UNL1        0.1257
     31 C           7.0202   -2.4701   24.0351 C.2     1  UNL1        0.2425
     32 O           5.7410   -2.8393   24.7259 O.2     1  UNL1       -0.2733
     33 N           7.0563   -1.2981   23.0996 N.am    1  UNL1       -0.2828
     34 H           7.8959   -1.0559   22.6462 H       1  UNL1        0.1549
     35 C           8.2634   -3.2730   24.2796 C.3     1  UNL1        0.1588
     36 C           7.9153   -8.5580   27.0989 C.3     1  UNL1        0.0897
     37 N           8.0023   -7.2367   26.3941 N.3     1  UNL1       -0.2691
     38 C           8.1469   -5.9717   27.1871 C.3     1  UNL1        0.0897
     39 C           8.2339   -4.6505   26.4823 C.3     1  UNL1        0.0900
     40 N           8.1764   -4.5942   24.9844 N.3     1  UNL1       -0.2626
     41 C           8.0318   -5.8592   24.1914 C.3     1  UNL1        0.0900
     42 C           7.9448   -7.1805   24.8962 C.3     1  UNL1        0.0897
@<TRIPOS>BOND
     1    36    37    1
     2    37    38    1
     3    38    39    1
     4    39    40    1
     5    40    35    1
     6    35    31    1
     7    31    32    2
     8    31    33   am
     9    33     1    1
    10     1     2   ar
    11     2     3   ar
    12     3     4   ar
    13     4    14    1
    14    14    15   ar
    15    15    16   ar
    16    16    17   ar
    17    17    18   ar
    18    18    19   ar
    19    19    20    2
    20    19    21   ar
    21    21    22   ar
    22    22    25    1
    23    25    26    1
    24    26    27    1
    25    27    28    1
    26    28    29    1
    27    29    30    1
    28    22    23   ar
    29    23    24   ar
    30     4     5   ar
    31     5     6   ar
    32     6     7   ar
    33     7     8   ar
    34     8     9   ar
    35     9    10   ar
    36    10    11   ar
    37    11    12   ar
    38    12    13   ar
    39    40    41    1
    40    41    42    1
    41    42    37    1
    42    13     1   ar
    43    24    14   ar
    44    13     5   ar
    45    24    18   ar
    46    12     7   ar
    47    30    25    1
    48    33    34    1
@<TRIPOS>MOLECULE
*****
 42 48 0 0 0
SMALL
GASTEIGER

@<TRIPOS>ATOM
      1 C           3.2228    1.9893   25.6245 C.ar    1  UNL1        0.0508
      2 C           4.6641    1.7740   25.2689 C.ar    1  UNL1        0.0147
      3 C           5.4530    0.6978   25.9540 C.ar    1  UNL1        0.0019
      4 C           4.8006   -0.1631   26.9947 C.ar    1  UNL1        0.0090
      5 C           3.3594    0.0521   27.3504 C.ar    1  UNL1        0.0307
      6 S           2.4535   -0.6350   28.3288 S.2     1  UNL1       -0.0869
      7 C           1.1048    0.0166   28.2484 C.ar    1  UNL1        0.0295
      8 C          -0.1798   -0.2417   28.9786 C.ar    1  UNL1        0.0065
      9 C          -1.3920    0.5899   28.6806 C.ar    1  UNL1        0.0005
     10 C          -1.3198    1.6797   27.6524 C.ar    1  UNL1        0.0000
     11 C          -0.0352    1.9379   26.9223 C.ar    1  UNL1        0.0006
     12 C           1.1771    1.1064   27.2203 C.ar    1  UNL1        0.0077
     13 C           2.5705    1.1283   26.6653 C.ar    1  UNL1        0.0200
     14 C           5.5895   -1.2393   27.6799 C.ar    1  UNL1        0.0352
     15 C           5.8508   -1.1544   29.1546 C.ar    1  UNL1        0.0031
     16 C           6.6397   -2.2305   29.8397 C.ar    1  UNL1        0.0003
     17 C           7.1673   -3.3917   29.0502 C.ar    1  UNL1        0.0062
     18 C           6.9061   -3.4767   27.5756 C.ar    1  UNL1        0.0736
     19 C           7.4337   -4.6378   26.7861 C.ar    1  UNL1        0.2030
     20 O           8.2226   -5.7141   27.4712 O.2     1  UNL1       -0.2863
     21 C           7.1725   -4.7228   25.3115 C.ar    1  UNL1        0.0955
     22 C           6.3836   -3.6466   24.6263 C.ar    1  UNL1        0.2024
     23 O           5.8559   -2.4854   25.4158 O.2     1  UNL1       -0.4398
     24 C           6.1171   -2.4004   26.8904 C.ar    1  UNL1        0.1498
     25 N           6.1223   -3.7315   23.1517 N.pl3   1  UNL1       -0.2742
     26 C           7.2623   -3.9362   22.1986 C.3     1  UNL1        0.1257
     27 C           7.0011   -4.0212   20.7240 C.3     1  UNL1        0.1637
     28 O           5.5999   -3.9014   20.2024 O.3     1  UNL1       -0.3501
     29 C           4.4598   -3.6967   21.1555 C.3     1  UNL1        0.1637
     30 C           4.7210   -3.6117   22.6301 C.3     1  UNL1        0.1257
     31 C           1.5756    2.7285   23.7563 C.2     1  UNL1        0.2425
     32 O           1.5060    1.3154   23.2583 O.2     1  UNL1       -0.2733
     33 N           2.4339    3.0656   24.9393 N.am    1  UNL1       -0.2828
     34 H           2.4795    3.9931   25.2661 H       1  UNL1        0.1549
     35 C           0.7867    3.8048   23.0712 C.3     1  UNL1        0.1588
     36 C          -5.1967    3.4387   22.8174 C.3     1  UNL1        0.0897
     37 N          -3.7009    3.5302   22.8809 N.3     1  UNL1       -0.2691
     38 C          -3.0145    3.6865   24.2055 C.3     1  UNL1        0.0897
     39 C          -1.5187    3.7780   24.2689 C.3     1  UNL1        0.0900
     40 N          -0.7091    3.7133   23.0077 N.3     1  UNL1       -0.2626
     41 C          -1.3955    3.5570   21.6831 C.3     1  UNL1        0.0900
     42 C          -2.8913    3.4655   21.6197 C.3     1  UNL1        0.0897
@<TRIPOS>BOND
     1    36    37    1
     2    37    38    1
     3    38    39    1
     4    39    40    1
     5    40    35    1
     6    35    31    1
     7    31    32    2
     8    31    33   am
     9    33     1    1
    10     1     2   ar
    11     2     3   ar
    12     3     4   ar
    13     4    14    1
    14    14    15   ar
    15    15    16   ar
    16    16    17   ar
    17    17    18   ar
    18    18    19   ar
    19    19    20    2
    20    19    21   ar
    21    21    22   ar
    22    22    25    1
    23    25    26    1
    24    26    27    1
    25    27    28    1
    26    28    29    1
    27    29    30    1
    28    22    23   ar
    29    23    24   ar
    30     4     5   ar
    31     5     6   ar
    32     6     7   ar
    33     7     8   ar
    34     8     9   ar
    35     9    10   ar
    36    10    11   ar
    37    11    12   ar
    38    12    13   ar
    39    40    41    1
    40    41    42    1
    41    42    37    1
    42    13     1   ar
    43    24    14   ar
    44    13     5   ar
    45    24    18   ar
    46    12     7   ar
    47    30    25    1
    48    33    34    1
@<TRIPOS>MOLECULE
*****
 42 48 0 0 0
SMALL
GASTEIGER

@<TRIPOS>ATOM
      1 C           2.6645   -0.2679   19.4461 C.ar    1  UNL1        0.0508
      2 C           1.4274   -0.7422   20.1494 C.ar    1  UNL1        0.0147
      3 C           0.3269    0.2265   20.4664 C.ar    1  UNL1        0.0019
      4 C           0.4635    1.6694   20.0802 C.ar    1  UNL1        0.0090
      5 C           1.7006    2.1437   19.3768 C.ar    1  UNL1        0.0307
      6 S           2.1149    3.4957   18.8765 S.2     1  UNL1       -0.0869
      7 C           3.4714    3.3627   18.2503 C.ar    1  UNL1        0.0295
      8 C           4.3752    4.3622   17.5915 C.ar    1  UNL1        0.0065
      9 C           5.7031    3.9275   17.0460 C.ar    1  UNL1        0.0005
     10 C           6.1273    2.4931   17.1593 C.ar    1  UNL1        0.0000
     11 C           5.2235    1.4936   17.8181 C.ar    1  UNL1        0.0006
     12 C           3.8955    1.9283   18.3636 C.ar    1  UNL1        0.0077
     13 C           2.8011    1.1750   19.0598 C.ar    1  UNL1        0.0200
     14 C          -0.6370    2.6381   20.3972 C.ar    1  UNL1        0.0352
     15 C          -1.3972    3.2996   19.2859 C.ar    1  UNL1        0.0031
     16 C          -2.4977    4.2682   19.6029 C.ar    1  UNL1        0.0003
     17 C          -2.8381    4.5755   21.0311 C.ar    1  UNL1        0.0062
     18 C          -2.0779    3.9142   22.1423 C.ar    1  UNL1        0.0736
     19 C          -2.4183    4.2215   23.5705 C.ar    1  UNL1        0.2030
     20 O          -3.5188    5.1902   23.8875 O.2     1  UNL1       -0.2863
     21 C          -1.6582    3.5601   24.6816 C.ar    1  UNL1        0.0955
     22 C          -0.5576    2.5914   24.3647 C.ar    1  UNL1        0.2024
     23 O          -0.2172    2.2840   22.9365 O.2     1  UNL1       -0.4398
     24 C          -0.9773    2.9454   21.8253 C.ar    1  UNL1        0.1498
     25 N           0.2025    1.9300   25.4758 N.pl3   1  UNL1       -0.2742
     26 C          -0.4857    1.6127   26.7702 C.3     1  UNL1        0.1257
     27 C           0.2744    0.9513   27.8814 C.3     1  UNL1        0.1637
     28 O           1.7228    0.6072   27.6982 O.3     1  UNL1       -0.3501
     29 C           2.4112    0.9245   26.4038 C.3     1  UNL1        0.1637
     30 C           1.6510    1.5859   25.2926 C.3     1  UNL1        0.1257
     31 C           5.0119   -1.2544   19.9628 C.2     1  UNL1        0.2425
     32 O           5.1583   -0.3034   21.1135 O.2     1  UNL1       -0.2733
     33 N           3.7651   -1.2367   19.1291 N.am    1  UNL1       -0.2828
     34 H           3.6690   -1.8609   18.3739 H       1  UNL1        0.1549
     35 C           6.1124   -2.2231   19.6458 C.3     1  UNL1        0.1588
     36 C           8.1345   -5.9581   23.8839 C.3     1  UNL1        0.0897
     37 N           7.6290   -5.0243   22.8244 N.3     1  UNL1       -0.2691
     38 C           8.4147   -4.8265   21.5620 C.3     1  UNL1        0.0897
     39 C           7.9092   -3.8928   20.5025 C.3     1  UNL1        0.0900
     40 N           6.6179   -3.1568   20.7053 N.3     1  UNL1       -0.2626
     41 C           5.8321   -3.3547   21.9677 C.3     1  UNL1        0.0900
     42 C           6.3377   -4.2884   23.0272 C.3     1  UNL1        0.0897
@<TRIPOS>BOND
     1    36    37    1
     2    37    38    1
     3    38    39    1
     4    39    40    1
     5    40    35    1
     6    35    31    1
     7    31    32    2
     8    31    33   am
     9    33     1    1
    10     1     2   ar
    11     2     3   ar
    12     3     4   ar
    13     4    14    1
    14    14    15   ar
    15    15    16   ar
    16    16    17   ar
    17    17    18   ar
    18    18    19   ar
    19    19    20    2
    20    19    21   ar
    21    21    22   ar
    22    22    25    1
    23    25    26    1
    24    26    27    1
    25    27    28    1
    26    28    29    1
    27    29    30    1
    28    22    23   ar
    29    23    24   ar
    30     4     5   ar
    31     5     6   ar
    32     6     7   ar
    33     7     8   ar
    34     8     9   ar
    35     9    10   ar
    36    10    11   ar
    37    11    12   ar
    38    12    13   ar
    39    40    41    1
    40    41    42    1
    41    42    37    1
    42    13     1   ar
    43    24    14   ar
    44    13     5   ar
    45    24    18   ar
    46    12     7   ar
    47    30    25    1
    48    33    34    1
@<TRIPOS>MOLECULE
*****
 42 48 0 0 0
SMALL
GASTEIGER

@<TRIPOS>ATOM
      1 C           0.4000    2.5238   21.9944 C.ar    1  UNL1        0.0508
      2 C           1.8347    2.2682   22.3499 C.ar    1  UNL1        0.0147
      3 C           2.9048    2.4284   21.3111 C.ar    1  UNL1        0.0019
      4 C           2.5403    2.8441   19.9168 C.ar    1  UNL1        0.0090
      5 C           1.1056    3.0996   19.5612 C.ar    1  UNL1        0.0307
      6 S           0.4483    3.5177   18.2794 S.2     1  UNL1       -0.0869
      7 C          -1.0280    3.6160   18.5259 C.ar    1  UNL1        0.0295
      8 C          -2.1729    3.9847   17.6298 C.ar    1  UNL1        0.0065
      9 C          -3.5730    3.9960   18.1679 C.ar    1  UNL1        0.0005
     10 C          -3.8282    3.6387   19.6022 C.ar    1  UNL1        0.0000
     11 C          -2.6833    3.2700   20.4983 C.ar    1  UNL1        0.0006
     12 C          -1.2832    3.2586   19.9602 C.ar    1  UNL1        0.0077
     13 C           0.0355    2.9395   20.6000 C.ar    1  UNL1        0.0200
     14 C           3.6104    3.0042   18.8779 C.ar    1  UNL1        0.0352
     15 C           3.8498    4.3444   18.2482 C.ar    1  UNL1        0.0031
     16 C           4.9199    4.5046   17.2094 C.ar    1  UNL1        0.0003
     17 C           5.7507    3.3246   16.8003 C.ar    1  UNL1        0.0062
     18 C           5.5113    1.9844   17.4300 C.ar    1  UNL1        0.0736
     19 C           6.3421    0.8043   17.0209 C.ar    1  UNL1        0.2030
     20 O           7.4122    0.9645   15.9821 O.2     1  UNL1       -0.2863
     21 C           6.1027   -0.5358   17.6506 C.ar    1  UNL1        0.0955
     22 C           5.0325   -0.6960   18.6895 C.ar    1  UNL1        0.2024
     23 O           4.2017    0.4840   19.0986 O.2     1  UNL1       -0.4398
     24 C           4.4411    1.8242   18.4689 C.ar    1  UNL1        0.1498
     25 N           4.7931   -2.0362   19.3192 N.pl3   1  UNL1       -0.2742
     26 C           4.6867   -3.2607   18.4594 C.3     1  UNL1        0.1257
     27 C           4.4474   -4.6008   19.0891 C.3     1  UNL1        0.1637
     28 O           4.3143   -4.7166   20.5786 O.3     1  UNL1       -0.3501
     29 C           4.4207   -3.4922   21.4385 C.3     1  UNL1        0.1637
     30 C           4.6601   -2.1520   20.8088 C.3     1  UNL1        0.1257
     31 C          -1.1284    3.5510   23.8272 C.2     1  UNL1        0.2425
     32 O          -0.5167    4.8985   23.5822 O.2     1  UNL1       -0.2733
     33 N          -0.6701    2.3637   23.0333 N.am    1  UNL1       -0.2828
     34 H          -1.0717    1.4793   23.1941 H       1  UNL1        0.1549
     35 C          -2.1985    3.3908   24.8660 C.3     1  UNL1        0.1588
     36 C          -7.6807    5.6276   23.8953 C.3     1  UNL1        0.0897
     37 N          -6.3102    5.0685   24.1380 N.3     1  UNL1       -0.2691
     38 C          -5.3338    5.8207   24.9929 C.3     1  UNL1        0.0897
     39 C          -3.9632    5.2615   25.2355 C.3     1  UNL1        0.0900
     40 N          -3.5690    3.9500   24.6233 N.3     1  UNL1       -0.2626
     41 C          -4.5454    3.1978   23.7685 C.3     1  UNL1        0.0900
     42 C          -5.9160    3.7570   23.5258 C.3     1  UNL1        0.0897
@<TRIPOS>BOND
     1    36    37    1
     2    37    38    1
     3    38    39    1
     4    39    40    1
     5    40    35    1
     6    35    31    1
     7    31    32    2
     8    31    33   am
     9    33     1    1
    10     1     2   ar
    11     2     3   ar
    12     3     4   ar
    13     4    14    1
    14    14    15   ar
    15    15    16   ar
    16    16    17   ar
    17    17    18   ar
    18    18    19   ar
    19    19    20    2
    20    19    21   ar
    21    21    22   ar
    22    22    25    1
    23    25    26    1
    24    26    27    1
    25    27    28    1
    26    28    29    1
    27    29    30    1
    28    22    23   ar
    29    23    24   ar
    30     4     5   ar
    31     5     6   ar
    32     6     7   ar
    33     7     8   ar
    34     8     9   ar
    35     9    10   ar
    36    10    11   ar
    37    11    12   ar
    38    12    13   ar
    39    40    41    1
    40    41    42    1
    41    42    37    1
    42    13     1   ar
    43    24    14   ar
    44    13     5   ar
    45    24    18   ar
    46    12     7   ar
    47    30    25    1
    48    33    34    1
@<TRIPOS>MOLECULE
*****
 42 48 0 0 0
SMALL
GASTEIGER

@<TRIPOS>ATOM
      1 C           3.1488    0.1008   19.1267 C.ar    1  UNL1        0.0508
      2 C           1.7597   -0.3321   19.4911 C.ar    1  UNL1        0.0147
      3 C           0.6282    0.6510   19.4331 C.ar    1  UNL1        0.0019
      4 C           0.8860    2.0669   19.0105 C.ar    1  UNL1        0.0090
      5 C           2.2752    2.4998   18.6460 C.ar    1  UNL1        0.0307
      6 S           2.8299    3.8188   18.1959 S.2     1  UNL1       -0.0869
      7 C           4.3041    3.6509   17.9758 C.ar    1  UNL1        0.0295
      8 C           5.3680    4.6097   17.5300 C.ar    1  UNL1        0.0065
      9 C           6.7883    4.1457   17.3983 C.ar    1  UNL1        0.0005
     10 C           7.1447    2.7229   17.7124 C.ar    1  UNL1        0.0000
     11 C           6.0809    1.7641   18.1582 C.ar    1  UNL1        0.0006
     12 C           4.6606    2.2281   18.2899 C.ar    1  UNL1        0.0077
     13 C           3.4066    1.5167   18.7041 C.ar    1  UNL1        0.0200
     14 C          -0.2454    3.0500   18.9524 C.ar    1  UNL1        0.0352
     15 C          -0.6898    3.6050   17.6315 C.ar    1  UNL1        0.0031
     16 C          -1.8212    4.5880   17.5734 C.ar    1  UNL1        0.0003
     17 C          -2.5083    5.0162   18.8361 C.ar    1  UNL1        0.0062
     18 C          -2.0640    4.4614   20.1570 C.ar    1  UNL1        0.0736
     19 C          -2.7511    4.8896   21.4197 C.ar    1  UNL1        0.2030
     20 O          -3.8825    5.8727   21.3617 O.2     1  UNL1       -0.2863
     21 C          -2.3068    4.3347   22.7406 C.ar    1  UNL1        0.0955
     22 C          -1.1753    3.3515   22.7987 C.ar    1  UNL1        0.2024
     23 O          -0.4882    2.9233   21.5360 O.2     1  UNL1       -0.4398
     24 C          -0.9325    3.4782   20.2151 C.ar    1  UNL1        0.1498
     25 N          -0.7310    2.7966   24.1196 N.pl3   1  UNL1       -0.2742
     26 C           0.5295    1.9884   24.2077 C.3     1  UNL1        0.1257
     27 C           0.9738    1.4336   25.5286 C.3     1  UNL1        0.1637
     28 O           0.1577    1.6869   26.7612 O.3     1  UNL1       -0.3501
     29 C          -1.1029    2.4951   26.6731 C.3     1  UNL1        0.1637
     30 C          -1.5472    3.0500   25.3523 C.3     1  UNL1        0.1257
     31 C           4.7647   -1.5435   17.9284 C.2     1  UNL1        0.2425
     32 O           4.1177   -1.2214   16.6140 O.2     1  UNL1       -0.2733
     33 N           4.2803   -0.8824   19.1848 N.am    1  UNL1       -0.2828
     34 H           4.7050   -1.0938   20.0474 H       1  UNL1        0.1549
     35 C           5.8961   -2.5266   17.9865 C.3     1  UNL1        0.1588
     36 C           9.0919   -3.1275   23.0289 C.3     1  UNL1        0.0897
     37 N           8.2930   -2.9773   21.7683 N.3     1  UNL1       -0.2691
     38 C           8.7168   -1.9859   20.7254 C.3     1  UNL1        0.0897
     39 C           7.9178   -1.8357   19.4648 C.3     1  UNL1        0.0900
     40 N           6.6950   -2.6768   19.2471 N.3     1  UNL1       -0.2626
     41 C           6.2712   -3.6682   20.2900 C.3     1  UNL1        0.0900
     42 C           7.0702   -3.8184   21.5506 C.3     1  UNL1        0.0897
@<TRIPOS>BOND
     1    36    37    1
     2    37    38    1
     3    38    39    1
     4    39    40    1
     5    40    35    1
     6    35    31    1
     7    31    32    2
     8    31    33   am
     9    33     1    1
    10     1     2   ar
    11     2     3   ar
    12     3     4   ar
    13     4    14    1
    14    14    15   ar
    15    15    16   ar
    16    16    17   ar
    17    17    18   ar
    18    18    19   ar
    19    19    20    2
    20    19    21   ar
    21    21    22   ar
    22    22    25    1
    23    25    26    1
    24    26    27    1
    25    27    28    1
    26    28    29    1
    27    29    30    1
    28    22    23   ar
    29    23    24   ar
    30     4     5   ar
    31     5     6   ar
    32     6     7   ar
    33     7     8   ar
    34     8     9   ar
    35     9    10   ar
    36    10    11   ar
    37    11    12   ar
    38    12    13   ar
    39    40    41    1
    40    41    42    1
    41    42    37    1
    42    13     1   ar
    43    24    14   ar
    44    13     5   ar
    45    24    18   ar
    46    12     7   ar
    47    30    25    1
    48    33    34    1
