@<TRIPOS>MOLECULE
*****
 17 18 0 0 0
SMALL
GASTEIGER

@<TRIPOS>ATOM
      1 C          -3.4480  -19.7043   20.9970 C.2     1  UNL1        0.1223
      2 C          -4.1687  -20.7419   20.1885 C.2     1  UNL1        0.0343
      3 C          -5.6680  -20.7878   20.1923 C.2     1  UNL1        0.0232
      4 C          -6.4466  -19.7960   21.0047 C.2     1  UNL1        0.0975
      5 N          -7.9200  -19.5972   21.2031 N.2     1  UNL1       -0.2200
      6 C          -8.1100  -18.4366   22.1342 C.2     1  UNL1        0.1898
      7 N          -6.7540  -17.9181   22.5114 N.2     1  UNL1       -0.2236
      8 C          -5.7259  -18.7583   21.8133 C.2     1  UNL1        0.0863
      9 C          -4.2266  -18.7125   21.8094 C.3     1  UNL1        0.1112
     10 C          -1.2342  -18.5456   20.2853 C.3     1  UNL1        0.2520
     11 O          -1.9487  -19.6584   20.9932 O.2     1  UNL1       -0.4753
     12 S          -9.4252  -17.8905   22.6055 S.3     1  UNL1       -0.0757
     13 C         -10.7073  -18.5008   22.1220 C.3     1  UNL1        0.0651
     14 C         -11.9948  -18.2009   22.8307 C.3     1  UNL1        0.0104
     15 C         -11.4025  -18.6964   24.1165 C.3     1  UNL1        0.0009
     16 C         -12.5872  -17.7053   21.5447 C.3     1  UNL1        0.0009
     17 C         -13.2824  -17.9009   23.5393 C.3     1  UNL1        0.0009
@<TRIPOS>BOND
     1    10    11    1
     2    11     1    1
     3     1     2    2
     4     2     3    1
     5     3     4    2
     6     4     5    1
     7     5     6    2
     8     6    12    1
     9    12    13    1
    10    13    14    1
    11    14    15    1
    12    14    16    1
    13    14    17    1
    14     6     7    1
    15     7     8    2
    16     8     9    1
    17     9     1    1
    18     8     4    1
@<TRIPOS>MOLECULE
*****
 17 18 0 0 0
SMALL
GASTEIGER

@<TRIPOS>ATOM
      1 C          -2.5064  -18.9602   20.3343 C.2     1  UNL1        0.1223
      2 C          -2.5235  -19.1226   21.8253 C.2     1  UNL1        0.0343
      3 C          -3.8307  -19.1759   22.5590 C.2     1  UNL1        0.0232
      4 C          -5.1208  -19.0667   21.8017 C.2     1  UNL1        0.0975
      5 N          -6.5523  -19.0862   22.2494 N.2     1  UNL1       -0.2200
      6 C          -7.4199  -18.9359   21.0350 C.2     1  UNL1        0.1898
      7 N          -6.5247  -18.8235   19.8368 N.2     1  UNL1       -0.2236
      8 C          -5.1037  -18.9043   20.3106 C.2     1  UNL1        0.0863
      9 C          -3.7965  -18.8511   19.5769 C.3     1  UNL1        0.1112
     10 C          -0.2302  -17.7952   19.8743 C.3     1  UNL1        0.2520
     11 O          -1.1991  -18.9070   19.6006 O.2     1  UNL1       -0.4753
     12 S          -8.9196  -18.9036   21.0214 S.3     1  UNL1       -0.0757
     13 C          -9.6657  -18.2423   22.1421 C.3     1  UNL1        0.0651
     14 C         -10.1169  -19.0505   23.3224 C.3     1  UNL1        0.0104
     15 C          -9.4785  -18.0566   24.2469 C.3     1  UNL1        0.0009
     16 C         -10.7553  -20.0443   22.3978 C.3     1  UNL1        0.0009
     17 C         -10.5681  -19.8586   24.5028 C.3     1  UNL1        0.0009
@<TRIPOS>BOND
     1    10    11    1
     2    11     1    1
     3     1     2    2
     4     2     3    1
     5     3     4    2
     6     4     5    1
     7     5     6    2
     8     6    12    1
     9    12    13    1
    10    13    14    1
    11    14    15    1
    12    14    16    1
    13    14    17    1
    14     6     7    1
    15     7     8    2
    16     8     9    1
    17     9     1    1
    18     8     4    1
@<TRIPOS>MOLECULE
*****
 17 18 0 0 0
SMALL
GASTEIGER

@<TRIPOS>ATOM
      1 C          -3.8722  -18.8693   22.3549 C.2     1  UNL1        0.1223
      2 C          -3.6152  -17.6768   23.2276 C.2     1  UNL1        0.0343
      3 C          -4.7580  -16.8140   23.6743 C.2     1  UNL1        0.0232
      4 C          -6.1579  -17.1438   23.2483 C.2     1  UNL1        0.0975
      5 N          -7.4747  -16.4827   23.5293 N.2     1  UNL1       -0.2200
      6 C          -8.5455  -17.2667   22.8302 C.2     1  UNL1        0.1898
      7 N          -7.8906  -18.4124   22.1172 N.2     1  UNL1       -0.2236
      8 C          -6.4149  -18.3364   22.3756 C.2     1  UNL1        0.0863
      9 C          -5.2720  -19.1991   21.9288 C.3     1  UNL1        0.1112
     10 C          -1.9165  -19.3391   20.7103 C.3     1  UNL1        0.2520
     11 O          -2.7293  -19.7321   21.9082 O.2     1  UNL1       -0.4753
     12 S         -10.0136  -16.9590   22.8422 S.3     1  UNL1       -0.0757
     13 C         -11.0096  -18.0438   22.5570 C.3     1  UNL1        0.0651
     14 C         -12.3572  -18.0165   23.2151 C.3     1  UNL1        0.0104
     15 C         -11.7813  -18.6948   24.4226 C.3     1  UNL1        0.0009
     16 C         -12.9332  -17.3383   22.0074 C.3     1  UNL1        0.0009
     17 C         -13.7049  -17.9893   23.8732 C.3     1  UNL1        0.0009
@<TRIPOS>BOND
     1    10    11    1
     2    11     1    1
     3     1     2    2
     4     2     3    1
     5     3     4    2
     6     4     5    1
     7     5     6    2
     8     6    12    1
     9    12    13    1
    10    13    14    1
    11    14    15    1
    12    14    16    1
    13    14    17    1
    14     6     7    1
    15     7     8    2
    16     8     9    1
    17     9     1    1
    18     8     4    1
@<TRIPOS>MOLECULE
*****
 17 18 0 0 0
SMALL
GASTEIGER

@<TRIPOS>ATOM
      1 C          -4.1868  -17.6835   23.0589 C.2     1  UNL1        0.1223
      2 C          -4.8272  -16.4973   23.7167 C.2     1  UNL1        0.0343
      3 C          -6.3170  -16.3288   23.6726 C.2     1  UNL1        0.0232
      4 C          -7.1665  -17.3464   22.9706 C.2     1  UNL1        0.0975
      5 N          -8.6488  -17.4461   22.7642 N.2     1  UNL1       -0.2200
      6 C          -8.9246  -18.6940   21.9788 C.2     1  UNL1        0.1898
      7 N          -7.6127  -19.3655   21.6998 N.2     1  UNL1       -0.2236
      8 C          -6.5261  -18.5326   22.3128 C.2     1  UNL1        0.0863
      9 C          -5.0362  -18.7012   22.3569 C.3     1  UNL1        0.1112
     10 C          -1.9985  -18.6342   22.0304 C.3     1  UNL1        0.2520
     11 O          -2.6969  -17.8521   23.1030 O.2     1  UNL1       -0.4753
     12 S         -10.2753  -19.1842   21.5480 S.3     1  UNL1       -0.0757
     13 C         -11.2369  -18.2448   20.8826 C.3     1  UNL1        0.0651
     14 C         -11.8523  -17.1229   21.6652 C.3     1  UNL1        0.0104
     15 C         -11.3464  -16.1389   20.6524 C.3     1  UNL1        0.0009
     16 C         -12.3582  -18.1069   22.6781 C.3     1  UNL1        0.0009
     17 C         -12.4677  -16.0009   22.4478 C.3     1  UNL1        0.0009
@<TRIPOS>BOND
     1    10    11    1
     2    11     1    1
     3     1     2    2
     4     2     3    1
     5     3     4    2
     6     4     5    1
     7     5     6    2
     8     6    12    1
     9    12    13    1
    10    13    14    1
    11    14    15    1
    12    14    16    1
    13    14    17    1
    14     6     7    1
    15     7     8    2
    16     8     9    1
    17     9     1    1
    18     8     4    1
@<TRIPOS>MOLECULE
*****
 17 18 0 0 0
SMALL
GASTEIGER

@<TRIPOS>ATOM
      1 C          -5.5954  -16.1990   23.5669 C.2     1  UNL1        0.1223
      2 C          -6.2535  -15.1795   24.4485 C.2     1  UNL1        0.0343
      3 C          -7.7380  -15.2176   24.6604 C.2     1  UNL1        0.0232
      4 C          -8.5643  -16.2752   23.9907 C.2     1  UNL1        0.0975
      5 N         -10.0365  -16.5618   24.0118 N.2     1  UNL1       -0.2200
      6 C         -10.2882  -17.7585   23.1432 C.2     1  UNL1        0.1898
      7 N          -8.9716  -18.2115   22.5853 N.2     1  UNL1       -0.2236
      8 C          -7.9062  -17.2947   23.1091 C.2     1  UNL1        0.0863
      9 C          -6.4217  -17.2567   22.8972 C.3     1  UNL1        0.1112
     10 C          -3.3851  -17.3954   22.9084 C.3     1  UNL1        0.2520
     11 O          -4.1109  -16.1610   23.3549 O.2     1  UNL1       -0.4753
     12 S         -11.6224  -18.3912   22.8789 S.3     1  UNL1       -0.0757
     13 C         -12.2285  -18.3188   21.5087 C.3     1  UNL1        0.0651
     14 C         -11.8357  -17.2150   20.5721 C.3     1  UNL1        0.0104
     15 C         -11.0236  -18.1863   19.7679 C.3     1  UNL1        0.0009
     16 C         -12.6479  -16.2436   21.3765 C.3     1  UNL1        0.0009
     17 C         -11.4429  -16.1111   19.6356 C.3     1  UNL1        0.0009
@<TRIPOS>BOND
     1    10    11    1
     2    11     1    1
     3     1     2    2
     4     2     3    1
     5     3     4    2
     6     4     5    1
     7     5     6    2
     8     6    12    1
     9    12    13    1
    10    13    14    1
    11    14    15    1
    12    14    16    1
    13    14    17    1
    14     6     7    1
    15     7     8    2
    16     8     9    1
    17     9     1    1
    18     8     4    1
@<TRIPOS>MOLECULE
*****
 17 18 0 0 0
SMALL
GASTEIGER

@<TRIPOS>ATOM
      1 C          -4.4603  -17.4819   23.2927 C.2     1  UNL1        0.1223
      2 C          -4.8577  -16.2777   24.0939 C.2     1  UNL1        0.0343
      3 C          -6.2615  -15.7551   24.0162 C.2     1  UNL1        0.0232
      4 C          -7.2680  -16.4365   23.1373 C.2     1  UNL1        0.0975
      5 N          -8.7142  -16.1517   22.8596 N.2     1  UNL1       -0.2200
      6 C          -9.2107  -17.1798   21.8867 C.2     1  UNL1        0.1898
      7 N          -8.0713  -18.1001   21.5631 N.2     1  UNL1       -0.2236
      8 C          -6.8706  -17.6407   22.3361 C.2     1  UNL1        0.0863
      9 C          -5.4668  -18.1634   22.4138 C.3     1  UNL1        0.1112
     10 C          -2.3726  -18.5042   22.1324 C.3     1  UNL1        0.2520
     11 O          -3.0565  -18.0046   23.3704 O.2     1  UNL1       -0.4753
     12 S         -10.6024  -17.2715   21.3344 S.3     1  UNL1       -0.0757
     13 C         -11.6244  -18.1325   22.0156 C.3     1  UNL1        0.0651
     14 C         -11.1859  -19.2156   22.9561 C.3     1  UNL1        0.0104
     15 C         -11.4278  -18.3021   24.1209 C.3     1  UNL1        0.0009
     16 C         -10.9439  -20.1291   21.7911 C.3     1  UNL1        0.0009
     17 C         -10.7473  -20.2986   23.8966 C.3     1  UNL1        0.0009
@<TRIPOS>BOND
     1    10    11    1
     2    11     1    1
     3     1     2    2
     4     2     3    1
     5     3     4    2
     6     4     5    1
     7     5     6    2
     8     6    12    1
     9    12    13    1
    10    13    14    1
    11    14    15    1
    12    14    16    1
    13    14    17    1
    14     6     7    1
    15     7     8    2
    16     8     9    1
    17     9     1    1
    18     8     4    1
@<TRIPOS>MOLECULE
*****
 17 18 0 0 0
SMALL
GASTEIGER

@<TRIPOS>ATOM
      1 C         -17.9388   -9.2226   19.3508 C.2     1  UNL1        0.1223
      2 C         -17.1687  -10.2275   18.5464 C.2     1  UNL1        0.0343
      3 C         -15.7494   -9.9440   18.1525 C.2     1  UNL1        0.0232
      4 C         -15.1002   -8.6556   18.5629 C.2     1  UNL1        0.0975
      5 N         -13.7264   -8.1029   18.3234 N.2     1  UNL1       -0.2200
      6 C         -13.6475   -6.7564   18.9798 C.2     1  UNL1        0.1898
      7 N         -14.9725   -6.4769   19.6250 N.2     1  UNL1       -0.2236
      8 C         -15.8703   -7.6507   19.3673 C.2     1  UNL1        0.0863
      9 C         -17.2896   -7.9342   19.7612 C.3     1  UNL1        0.1112
     10 C         -20.1067   -8.5315   20.6047 C.3     1  UNL1        0.2520
     11 O         -19.3581   -9.5061   19.7447 O.2     1  UNL1       -0.4753
     12 S         -12.4532   -5.8488   18.9893 S.3     1  UNL1       -0.0757
     13 C         -11.1281   -6.3478   18.4940 C.3     1  UNL1        0.0651
     14 C         -10.2079   -5.4233   17.7535 C.3     1  UNL1        0.0104
     15 C          -9.5616   -5.0292   19.0484 C.3     1  UNL1        0.0009
     16 C         -10.8542   -5.8175   16.4584 C.3     1  UNL1        0.0009
     17 C          -9.2876   -4.4989   17.0129 C.3     1  UNL1        0.0009
@<TRIPOS>BOND
     1    10    11    1
     2    11     1    1
     3     1     2    2
     4     2     3    1
     5     3     4    2
     6     4     5    1
     7     5     6    2
     8     6    12    1
     9    12    13    1
    10    13    14    1
    11    14    15    1
    12    14    16    1
    13    14    17    1
    14     6     7    1
    15     7     8    2
    16     8     9    1
    17     9     1    1
    18     8     4    1
@<TRIPOS>MOLECULE
*****
 17 18 0 0 0
SMALL
GASTEIGER

@<TRIPOS>ATOM
      1 C          -6.5066  -15.5088   25.0803 C.2     1  UNL1        0.1223
      2 C          -7.6634  -15.7760   25.9970 C.2     1  UNL1        0.0343
      3 C          -9.0286  -16.0269   25.4283 C.2     1  UNL1        0.0232
      4 C          -9.2369  -16.0107   23.9429 C.2     1  UNL1        0.0975
      5 N         -10.4583  -16.2222   23.0983 N.2     1  UNL1       -0.2200
      6 C         -10.0563  -16.0857   21.6596 C.2     1  UNL1        0.1898
      7 N          -8.5865  -15.7899   21.6151 N.2     1  UNL1       -0.2236
      8 C          -8.0800  -15.7436   23.0263 C.2     1  UNL1        0.0863
      9 C          -6.7149  -15.4926   23.5950 C.3     1  UNL1        0.1112
     10 C          -4.3241  -16.4025   26.1703 C.3     1  UNL1        0.2520
     11 O          -5.1414  -15.2579   25.6490 O.2     1  UNL1       -0.4753
     12 S         -10.9648  -16.2212   20.4737 S.3     1  UNL1       -0.0757
     13 C         -11.1868  -17.5667   19.8489 C.3     1  UNL1        0.0651
     14 C         -11.1156  -18.8057   20.6913 C.3     1  UNL1        0.0104
     15 C          -9.8564  -19.2133   19.9854 C.3     1  UNL1        0.0009
     16 C         -12.3749  -18.3981   21.3971 C.3     1  UNL1        0.0009
     17 C         -11.0445  -20.0448   21.5336 C.3     1  UNL1        0.0009
@<TRIPOS>BOND
     1    10    11    1
     2    11     1    1
     3     1     2    2
     4     2     3    1
     5     3     4    2
     6     4     5    1
     7     5     6    2
     8     6    12    1
     9    12    13    1
    10    13    14    1
    11    14    15    1
    12    14    16    1
    13    14    17    1
    14     6     7    1
    15     7     8    2
    16     8     9    1
    17     9     1    1
    18     8     4    1
@<TRIPOS>MOLECULE
*****
 17 18 0 0 0
SMALL
GASTEIGER

@<TRIPOS>ATOM
      1 C         -16.5025   -7.5200   18.7504 C.2     1  UNL1        0.1223
      2 C         -16.0682   -8.5774   17.7793 C.2     1  UNL1        0.0343
      3 C         -14.6211   -8.7036   17.4053 C.2     1  UNL1        0.0232
      4 C         -13.6082   -7.7723   18.0025 C.2     1  UNL1        0.0975
      5 N         -12.1232   -7.6570   17.8250 N.2     1  UNL1       -0.2200
      6 C         -11.6396   -6.5282   18.6865 C.2     1  UNL1        0.1898
      7 N         -12.8258   -5.9459   19.3964 N.2     1  UNL1       -0.2236
      8 C         -14.0424   -6.7148   18.9737 C.2     1  UNL1        0.0863
      9 C         -15.4896   -6.5887   19.3476 C.3     1  UNL1        0.1112
     10 C         -18.4803   -8.1207   20.3243 C.3     1  UNL1        0.2520
     11 O         -17.9496   -7.3938   19.1244 O.2     1  UNL1       -0.4753
     12 S         -10.2193   -6.0634   18.8154 S.3     1  UNL1       -0.0757
     13 C          -9.9179   -4.5995   18.9430 C.3     1  UNL1        0.0651
     14 C         -10.0171   -3.7059   17.7424 C.3     1  UNL1        0.0104
     15 C          -9.1039   -4.6230   16.9843 C.3     1  UNL1        0.0009
     16 C         -10.9304   -2.7887   18.5006 C.3     1  UNL1        0.0009
     17 C         -10.1163   -2.8122   16.5418 C.3     1  UNL1        0.0009
@<TRIPOS>BOND
     1    10    11    1
     2    11     1    1
     3     1     2    2
     4     2     3    1
     5     3     4    2
     6     4     5    1
     7     5     6    2
     8     6    12    1
     9    12    13    1
    10    13    14    1
    11    14    15    1
    12    14    16    1
    13    14    17    1
    14     6     7    1
    15     7     8    2
    16     8     9    1
    17     9     1    1
    18     8     4    1
