@<TRIPOS>MOLECULE
*****
 41 45 0 0 0
SMALL
GASTEIGER

@<TRIPOS>ATOM
      1 C           6.3500   -5.0852   28.5013 C.ar    1  UNL1        0.2218
      2 N           6.7650   -5.5953   29.8495 N.ar    1  UNL1       -0.2119
      3 C           6.8917   -4.6462   31.0041 C.ar    1  UNL1        0.1066
      4 C           6.6034   -3.1869   30.8104 C.ar    1  UNL1        0.0744
      5 C           6.1885   -2.6768   29.4623 C.ar    1  UNL1        0.1348
      6 N           6.0618   -3.6259   28.3077 N.ar    1  UNL1       -0.1987
      7 C           6.7301   -2.2378   31.9650 C.ar    1  UNL1        0.1149
      8 N           5.5962   -1.6492   32.7511 N.ar    1  UNL1       -0.2382
      9 C           6.1783   -0.7582   33.8082 C.ar    1  UNL1        0.0883
     10 C           7.6719   -0.7961   33.6754 C.ar    1  UNL1        0.0560
     11 S           8.0129   -1.7105   32.5363 S.2     1  UNL1       -0.0658
     12 C           5.4028    0.0319   34.8203 C.ar    1  UNL1        0.0182
     13 C           5.6930   -0.1330   36.2827 C.ar    1  UNL1        0.0015
     14 C           4.9176    0.6571   37.2948 C.ar    1  UNL1        0.0000
     15 C           3.8520    1.6120   36.8446 C.ar    1  UNL1        0.0000
     16 C           3.5618    1.7768   35.3822 C.ar    1  UNL1        0.0000
     17 C           4.3373    0.9867   34.3700 C.ar    1  UNL1        0.0015
     18 N           6.2233   -6.0343   27.3467 N.pl3   1  UNL1       -0.2824
     19 H           5.6446   -6.8272   27.4224 H       1  UNL1        0.1551
     20 C           7.4424   -2.8834   23.3988 C.3     1  UNL1        0.0521
     21 C           7.5879   -4.2000   24.1027 C.ar    1  UNL1        0.0602
     22 C           6.8329   -4.4589   25.3727 C.ar    1  UNL1        0.0294
     23 C           6.9784   -5.7754   26.0766 C.ar    1  UNL1        0.0528
     24 C           7.8788   -6.8331   25.5106 C.ar    1  UNL1        0.0294
     25 C           8.6339   -6.5742   24.2406 C.ar    1  UNL1        0.0602
     26 C           9.5344   -7.6318   23.6745 C.3     1  UNL1        0.0521
     27 N           8.4884   -5.2576   23.5367 N.ar    1  UNL1       -0.2539
     28 N           5.9002   -1.2175   29.2687 N.pl3   1  UNL1       -0.3172
     29 H           6.6384   -0.5878   29.1020 H       1  UNL1        0.1482
     30 C           4.4873   -0.7177   29.3290 C.3     1  UNL1        0.0998
     31 C           3.9384    0.2560   30.3293 C.3     1  UNL1        0.0271
     32 C           2.4870    0.4717   30.0181 C.3     1  UNL1        0.0604
     33 C           2.1388   -0.3687   28.8254 C.3     1  UNL1        0.1412
     34 O           0.7911   -0.4583   28.1731 O.3     1  UNL1       -0.3818
     35 C           3.3751   -1.1037   28.3995 C.3     1  UNL1        0.1549
     36 O           3.4806   -2.0574   27.2465 O.3     1  UNL1       -0.3803
     37 H           0.1659    0.1160   28.6424 H       1  UNL1        0.2104
     38 H           2.6184   -2.1315   26.8082 H       1  UNL1        0.2105
     39 C           1.5485    1.3700   30.7679 C.3     1  UNL1        0.1396
     40 O           1.4517    1.2744   32.2618 O.3     1  UNL1       -0.3819
     41 H           1.0818    0.4120   32.5073 H       1  UNL1        0.2104
@<TRIPOS>BOND
     1    20    21    1
     2    21    22   ar
     3    22    23   ar
     4    23    18    1
     5    18     1    1
     6     1     2   ar
     7     2     3   ar
     8     3     4   ar
     9     4     7    1
    10     7     8   ar
    11     8     9   ar
    12     9    12    1
    13    12    13   ar
    14    13    14   ar
    15    14    15   ar
    16    15    16   ar
    17    16    17   ar
    18     9    10   ar
    19    10    11   ar
    20     4     5   ar
    21     5    28    1
    22    30    28    1
    23    30    31    1
    24    31    32    1
    25    32    39    1
    26    39    40    1
    27    32    33    1
    28    33    34    1
    29    33    35    1
    30    35    36    1
    31     5     6   ar
    32    23    24   ar
    33    24    25   ar
    34    25    26    1
    35    25    27   ar
    36    27    21   ar
    37     6     1   ar
    38    11     7   ar
    39    35    30    1
    40    17    12   ar
    41    18    19    1
    42    28    29    1
    43    40    41    1
    44    34    37    1
    45    36    38    1
@<TRIPOS>MOLECULE
*****
 41 45 0 0 0
SMALL
GASTEIGER

@<TRIPOS>ATOM
      1 C           5.6536   -1.3951   18.2238 C.ar    1  UNL1        0.2218
      2 N           7.1037   -1.7328   18.0414 N.ar    1  UNL1       -0.2119
      3 C           7.7936   -2.6324   19.0236 C.ar    1  UNL1        0.1066
      4 C           7.0333   -3.1943   20.1882 C.ar    1  UNL1        0.0744
      5 C           5.5833   -2.8566   20.3706 C.ar    1  UNL1        0.1348
      6 N           4.8934   -1.9570   19.3884 N.ar    1  UNL1       -0.1987
      7 C           7.7232   -4.0939   21.1705 C.ar    1  UNL1        0.1149
      8 N           7.1525   -4.5854   22.4677 N.ar    1  UNL1       -0.2382
      9 C           8.1815   -5.4552   23.1269 C.ar    1  UNL1        0.0883
     10 C           9.3881   -5.5014   22.2371 C.ar    1  UNL1        0.0560
     11 S           9.1049   -4.6601   21.0279 S.2     1  UNL1       -0.0658
     12 C           8.0303   -6.1559   24.4445 C.ar    1  UNL1        0.0182
     13 C           8.7438   -7.4522   24.6908 C.ar    1  UNL1        0.0015
     14 C           8.5926   -8.1528   26.0084 C.ar    1  UNL1        0.0000
     15 C           7.7280   -7.5572   27.0798 C.ar    1  UNL1        0.0000
     16 C           7.0145   -6.2610   26.8334 C.ar    1  UNL1        0.0000
     17 C           7.1657   -5.5603   25.5158 C.ar    1  UNL1        0.0015
     18 N           4.9637   -0.4955   17.2416 N.pl3   1  UNL1       -0.2824
     19 H           4.9894   -0.7049   16.2799 H       1  UNL1        0.1551
     20 C           0.5820    1.7801   18.8610 C.3     1  UNL1        0.0521
     21 C           2.0437    1.8610   18.5342 C.ar    1  UNL1        0.0602
     22 C           2.7728    0.6424   18.0513 C.ar    1  UNL1        0.0294
     23 C           4.2346    0.7233   17.7245 C.ar    1  UNL1        0.0528
     24 C           4.9672    2.0228   17.8808 C.ar    1  UNL1        0.0294
     25 C           4.2381    3.2414   18.3637 C.ar    1  UNL1        0.0602
     26 C           4.9707    4.5410   18.5200 C.3     1  UNL1        0.0521
     27 N           2.7763    3.1605   18.6904 N.ar    1  UNL1       -0.2539
     28 N           4.8230   -3.4185   21.5353 N.pl3   1  UNL1       -0.3172
     29 H           4.6549   -4.3869   21.5923 H       1  UNL1        0.1482
     30 C           4.3190   -2.5051   22.6130 C.3     1  UNL1        0.0998
     31 C           4.7417   -2.5218   24.0521 C.3     1  UNL1        0.0271
     32 C           3.9877   -1.4416   24.7693 C.3     1  UNL1        0.0604
     33 C           3.0990   -0.7571   23.7734 C.3     1  UNL1        0.1412
     34 O           2.1688    0.3843   24.0600 O.3     1  UNL1       -0.3818
     35 C           3.3038   -1.4144   22.4408 C.3     1  UNL1        0.1549
     36 O           2.6143   -1.0457   21.1607 O.3     1  UNL1       -0.3803
     37 H           2.2260    0.6201   24.9991 H       1  UNL1        0.2104
     38 H           2.0060   -0.3076   21.3220 H       1  UNL1        0.2105
     39 C           4.1023   -1.1048   26.2266 C.3     1  UNL1        0.1396
     40 O           3.3289   -1.8933   27.2416 O.3     1  UNL1       -0.3819
     41 H           2.3794   -1.7412   27.1140 H       1  UNL1        0.2104
@<TRIPOS>BOND
     1    20    21    1
     2    21    22   ar
     3    22    23   ar
     4    23    18    1
     5    18     1    1
     6     1     2   ar
     7     2     3   ar
     8     3     4   ar
     9     4     7    1
    10     7     8   ar
    11     8     9   ar
    12     9    12    1
    13    12    13   ar
    14    13    14   ar
    15    14    15   ar
    16    15    16   ar
    17    16    17   ar
    18     9    10   ar
    19    10    11   ar
    20     4     5   ar
    21     5    28    1
    22    30    28    1
    23    30    31    1
    24    31    32    1
    25    32    39    1
    26    39    40    1
    27    32    33    1
    28    33    34    1
    29    33    35    1
    30    35    36    1
    31     5     6   ar
    32    23    24   ar
    33    24    25   ar
    34    25    26    1
    35    25    27   ar
    36    27    21   ar
    37     6     1   ar
    38    11     7   ar
    39    35    30    1
    40    17    12   ar
    41    18    19    1
    42    28    29    1
    43    40    41    1
    44    34    37    1
    45    36    38    1
@<TRIPOS>MOLECULE
*****
 41 45 0 0 0
SMALL
GASTEIGER

@<TRIPOS>ATOM
      1 C           3.1868    0.5199   19.3285 C.ar    1  UNL1        0.2218
      2 N           2.1484    0.4753   18.2469 N.ar    1  UNL1       -0.2119
      3 C           0.8770    1.2575   18.3952 C.ar    1  UNL1        0.1066
      4 C           0.6442    2.0841   19.6250 C.ar    1  UNL1        0.0744
      5 C           1.6826    2.1287   20.7065 C.ar    1  UNL1        0.1348
      6 N           2.9539    1.3465   20.5582 N.ar    1  UNL1       -0.1987
      7 C          -0.6272    2.8663   19.7733 C.ar    1  UNL1        0.1149
      8 N          -1.6765    2.6524   20.8236 N.ar    1  UNL1       -0.2382
      9 C          -2.7703    3.6535   20.5968 C.ar    1  UNL1        0.0883
     10 C          -2.3969    4.4862   19.4063 C.ar    1  UNL1        0.0560
     11 S          -1.0724    3.9996   18.8974 S.2     1  UNL1       -0.0658
     12 C          -4.0182    3.7969   21.4165 C.ar    1  UNL1        0.0182
     13 C          -5.2945    4.2442   20.7676 C.ar    1  UNL1        0.0015
     14 C          -6.5425    4.3876   21.5873 C.ar    1  UNL1        0.0000
     15 C          -6.5142    4.0836   23.0560 C.ar    1  UNL1        0.0000
     16 C          -5.2379    3.6362   23.7048 C.ar    1  UNL1        0.0000
     17 C          -3.9900    3.4929   22.8851 C.ar    1  UNL1        0.0015
     18 N           4.4582   -0.2622   19.1802 N.pl3   1  UNL1       -0.2824
     19 H           5.2141    0.1179   18.6770 H       1  UNL1        0.1551
     20 C           4.5727   -5.4338   18.6884 C.3     1  UNL1        0.0521
     21 C           4.6349   -4.2094   19.5527 C.ar    1  UNL1        0.0602
     22 C           4.5154   -2.8481   18.9343 C.ar    1  UNL1        0.0294
     23 C           4.5776   -1.6237   19.7986 C.ar    1  UNL1        0.0528
     24 C           4.7593   -1.7606   21.2812 C.ar    1  UNL1        0.0294
     25 C           4.8788   -3.1220   21.8995 C.ar    1  UNL1        0.0602
     26 C           5.0605   -3.2590   23.3822 C.3     1  UNL1        0.0521
     27 N           4.8166   -4.3464   21.0353 N.ar    1  UNL1       -0.2539
     28 N           1.4497    2.9553   21.9364 N.pl3   1  UNL1       -0.3172
     29 H           1.4010    3.9363   21.8682 H       1  UNL1        0.1482
     30 C           1.2911    2.2875   23.2700 C.3     1  UNL1        0.0998
     31 C           0.0900    2.3777   24.1640 C.3     1  UNL1        0.0271
     32 C           0.3622    1.5581   25.3904 C.3     1  UNL1        0.0604
     33 C           1.7317    0.9612   25.2544 C.3     1  UNL1        0.1412
     34 O           2.4083    0.0701   26.2534 O.3     1  UNL1       -0.3818
     35 C           2.3057    1.4120   23.9439 C.3     1  UNL1        0.1549
     36 O           3.6571    1.0508   23.4024 O.3     1  UNL1       -0.3803
     37 H           1.8219   -0.0670   27.0138 H       1  UNL1        0.2104
     38 H           4.1144    0.4732   24.0334 H       1  UNL1        0.2105
     39 C          -0.5710    1.3686   26.5493 C.3     1  UNL1        0.1396
     40 O          -0.3796    0.2119   27.4851 O.3     1  UNL1       -0.3819
     41 H          -0.5401   -0.6184   27.0099 H       1  UNL1        0.2104
@<TRIPOS>BOND
     1    20    21    1
     2    21    22   ar
     3    22    23   ar
     4    23    18    1
     5    18     1    1
     6     1     2   ar
     7     2     3   ar
     8     3     4   ar
     9     4     7    1
    10     7     8   ar
    11     8     9   ar
    12     9    12    1
    13    12    13   ar
    14    13    14   ar
    15    14    15   ar
    16    15    16   ar
    17    16    17   ar
    18     9    10   ar
    19    10    11   ar
    20     4     5   ar
    21     5    28    1
    22    30    28    1
    23    30    31    1
    24    31    32    1
    25    32    39    1
    26    39    40    1
    27    32    33    1
    28    33    34    1
    29    33    35    1
    30    35    36    1
    31     5     6   ar
    32    23    24   ar
    33    24    25   ar
    34    25    26    1
    35    25    27   ar
    36    27    21   ar
    37     6     1   ar
    38    11     7   ar
    39    35    30    1
    40    17    12   ar
    41    18    19    1
    42    28    29    1
    43    40    41    1
    44    34    37    1
    45    36    38    1
@<TRIPOS>MOLECULE
*****
 41 45 0 0 0
SMALL
GASTEIGER

@<TRIPOS>ATOM
      1 C           3.1883    0.5295   19.3321 C.ar    1  UNL1        0.2218
      2 N           2.1568    0.4861   18.2439 N.ar    1  UNL1       -0.2119
      3 C           0.8838    1.2667   18.3855 C.ar    1  UNL1        0.1066
      4 C           0.6423    2.0908   19.6155 C.ar    1  UNL1        0.0744
      5 C           1.6738    2.1342   20.7036 C.ar    1  UNL1        0.1348
      6 N           2.9468    1.3535   20.5620 N.ar    1  UNL1       -0.1987
      7 C          -0.6306    2.8715   19.7571 C.ar    1  UNL1        0.1149
      8 N          -1.6855    2.6561   20.8016 N.ar    1  UNL1       -0.2382
      9 C          -2.7791    3.6561   20.5692 C.ar    1  UNL1        0.0883
     10 C          -2.4001    4.4896   19.3811 C.ar    1  UNL1        0.0560
     11 S          -1.0723    4.0047   18.8792 S.2     1  UNL1       -0.0658
     12 C          -4.0316    3.7977   21.3822 C.ar    1  UNL1        0.0182
     13 C          -5.3008    4.2602   20.7299 C.ar    1  UNL1        0.0015
     14 C          -6.5533    4.4019   21.5429 C.ar    1  UNL1        0.0000
     15 C          -6.5368    4.0810   23.0081 C.ar    1  UNL1        0.0000
     16 C          -5.2677    3.6185   23.6603 C.ar    1  UNL1        0.0000
     17 C          -4.0151    3.4769   22.8473 C.ar    1  UNL1        0.0015
     18 N           4.4613   -0.2512   19.1905 N.pl3   1  UNL1       -0.2824
     19 H           5.2202    0.1307   18.6930 H       1  UNL1        0.1551
     20 C           5.0501   -3.2558   23.3887 C.3     1  UNL1        0.0521
     21 C           4.8724   -3.1161   21.9059 C.ar    1  UNL1        0.0602
     22 C           4.7557   -1.7536   21.2896 C.ar    1  UNL1        0.0294
     23 C           4.5780   -1.6138   19.8067 C.ar    1  UNL1        0.0528
     24 C           4.5169   -2.8366   18.9402 C.ar    1  UNL1        0.0294
     25 C           4.6336   -4.1991   19.5564 C.ar    1  UNL1        0.0602
     26 C           4.5725   -5.4220   18.6898 C.3     1  UNL1        0.0521
     27 N           4.8113   -4.3389   21.0393 N.ar    1  UNL1       -0.2539
     28 N           1.4323    2.9583   21.9336 N.pl3   1  UNL1       -0.3172
     29 H           1.3778    3.9390   21.8661 H       1  UNL1        0.1482
     30 C           1.2739    2.2882   23.2661 C.3     1  UNL1        0.0998
     31 C           0.0696    2.3702   24.1567 C.3     1  UNL1        0.0271
     32 C           0.3434    1.5512   25.3831 C.3     1  UNL1        0.0604
     33 C           1.7169    0.9629   25.2505 C.3     1  UNL1        0.1412
     34 O           2.3961    0.0751   26.2508 O.3     1  UNL1       -0.3818
     35 C           2.2920    1.4185   23.9422 C.3     1  UNL1        0.1549
     36 O           3.6472    1.0661   23.4044 O.3     1  UNL1       -0.3803
     37 H           1.8083   -0.0663   27.0093 H       1  UNL1        0.2104
     38 H           4.1062    0.4908   24.0362 H       1  UNL1        0.2105
     39 C          -0.5920    1.3548   26.5391 C.3     1  UNL1        0.1396
     40 O          -0.3527    0.2429   27.5171 O.3     1  UNL1       -0.3819
     41 H          -0.4654   -0.6106   27.0703 H       1  UNL1        0.2104
@<TRIPOS>BOND
     1    20    21    1
     2    21    22   ar
     3    22    23   ar
     4    23    18    1
     5    18     1    1
     6     1     2   ar
     7     2     3   ar
     8     3     4   ar
     9     4     7    1
    10     7     8   ar
    11     8     9   ar
    12     9    12    1
    13    12    13   ar
    14    13    14   ar
    15    14    15   ar
    16    15    16   ar
    17    16    17   ar
    18     9    10   ar
    19    10    11   ar
    20     4     5   ar
    21     5    28    1
    22    30    28    1
    23    30    31    1
    24    31    32    1
    25    32    39    1
    26    39    40    1
    27    32    33    1
    28    33    34    1
    29    33    35    1
    30    35    36    1
    31     5     6   ar
    32    23    24   ar
    33    24    25   ar
    34    25    26    1
    35    25    27   ar
    36    27    21   ar
    37     6     1   ar
    38    11     7   ar
    39    35    30    1
    40    17    12   ar
    41    18    19    1
    42    28    29    1
    43    40    41    1
    44    34    37    1
    45    36    38    1
@<TRIPOS>MOLECULE
*****
 41 45 0 0 0
SMALL
GASTEIGER

@<TRIPOS>ATOM
      1 C           6.8138   -4.7857   29.8715 C.ar    1  UNL1        0.2218
      2 N           7.1305   -6.0522   29.1325 N.ar    1  UNL1       -0.2119
      3 C           7.2591   -6.0364   27.6381 C.ar    1  UNL1        0.1066
      4 C           7.0710   -4.7542   26.8827 C.ar    1  UNL1        0.0744
      5 C           6.7543   -3.4879   27.6216 C.ar    1  UNL1        0.1348
      6 N           6.6258   -3.5036   29.1160 N.ar    1  UNL1       -0.1987
      7 C           7.1996   -4.7385   25.3883 C.ar    1  UNL1        0.1149
      8 N           6.2869   -4.0293   24.4322 N.ar    1  UNL1       -0.2382
      9 C           6.7866   -4.2817   23.0406 C.ar    1  UNL1        0.0883
     10 C           8.0083   -5.1468   23.1366 C.ar    1  UNL1        0.0560
     11 S           8.2635   -5.4290   24.5875 S.2     1  UNL1       -0.0658
     12 C           6.1726   -3.7604   21.7752 C.ar    1  UNL1        0.0182
     13 C           4.6806   -3.7291   21.6232 C.ar    1  UNL1        0.0015
     14 C           4.0665   -3.2079   20.3578 C.ar    1  UNL1        0.0000
     15 C           4.9444   -2.7180   19.2445 C.ar    1  UNL1        0.0000
     16 C           6.4363   -2.7493   19.3966 C.ar    1  UNL1        0.0000
     17 C           7.0504   -3.2706   20.6620 C.ar    1  UNL1        0.0015
     18 N           6.6853   -4.8015   31.3658 N.pl3   1  UNL1       -0.2824
     19 H           6.5617   -5.6552   31.8403 H       1  UNL1        0.1551
     20 C           9.4432   -0.8814   33.3725 C.3     1  UNL1        0.0521
     21 C           8.1239   -1.5564   33.1406 C.ar    1  UNL1        0.0602
     22 C           8.0642   -2.8414   32.3692 C.ar    1  UNL1        0.0294
     23 C           6.7449   -3.5164   32.1373 C.ar    1  UNL1        0.0528
     24 C           5.4853   -2.9064   32.6769 C.ar    1  UNL1        0.0294
     25 C           5.5449   -1.6214   33.4484 C.ar    1  UNL1        0.0602
     26 C           4.2853   -1.0114   33.9880 C.3     1  UNL1        0.0521
     27 N           6.8643   -0.9464   33.6802 N.ar    1  UNL1       -0.2539
     28 N           6.5662   -2.2057   26.8661 N.pl3   1  UNL1       -0.3172
     29 H           7.3281   -1.7940   26.3977 H       1  UNL1        0.1482
     30 C           5.2174   -1.5508   26.8242 C.3     1  UNL1        0.0998
     31 C           4.3681   -1.2047   28.0112 C.3     1  UNL1        0.0271
     32 C           3.1069   -0.5670   27.5086 C.3     1  UNL1        0.0604
     33 C           3.1767   -0.5190   26.0110 C.3     1  UNL1        0.1412
     34 O           2.1265    0.0390   25.0968 O.3     1  UNL1       -0.3818
     35 C           4.4811   -1.1270   25.5880 C.3     1  UNL1        0.1549
     36 O           4.9643   -1.2838   24.1767 O.3     1  UNL1       -0.3803
     37 H           1.3823    0.3703   25.6234 H       1  UNL1        0.2104
     38 H           4.2994   -0.9288   23.5660 H       1  UNL1        0.2105
     39 C           1.9746   -0.0654   28.3550 C.3     1  UNL1        0.1396
     40 O           0.6393    0.2148   27.7318 O.3     1  UNL1       -0.3819
     41 H           0.7207    0.9573   27.1129 H       1  UNL1        0.2104
@<TRIPOS>BOND
     1    20    21    1
     2    21    22   ar
     3    22    23   ar
     4    23    18    1
     5    18     1    1
     6     1     2   ar
     7     2     3   ar
     8     3     4   ar
     9     4     7    1
    10     7     8   ar
    11     8     9   ar
    12     9    12    1
    13    12    13   ar
    14    13    14   ar
    15    14    15   ar
    16    15    16   ar
    17    16    17   ar
    18     9    10   ar
    19    10    11   ar
    20     4     5   ar
    21     5    28    1
    22    30    28    1
    23    30    31    1
    24    31    32    1
    25    32    39    1
    26    39    40    1
    27    32    33    1
    28    33    34    1
    29    33    35    1
    30    35    36    1
    31     5     6   ar
    32    23    24   ar
    33    24    25   ar
    34    25    26    1
    35    25    27   ar
    36    27    21   ar
    37     6     1   ar
    38    11     7   ar
    39    35    30    1
    40    17    12   ar
    41    18    19    1
    42    28    29    1
    43    40    41    1
    44    34    37    1
    45    36    38    1
@<TRIPOS>MOLECULE
*****
 41 45 0 0 0
SMALL
GASTEIGER

@<TRIPOS>ATOM
      1 C           2.6064    1.4831   24.1409 C.ar    1  UNL1        0.2218
      2 N           3.8351    1.7487   24.9594 N.ar    1  UNL1       -0.2119
      3 C           4.9551    0.7511   24.9764 C.ar    1  UNL1        0.1066
      4 C           4.8464   -0.5122   24.1749 C.ar    1  UNL1        0.0744
      5 C           3.6178   -0.7778   23.3564 C.ar    1  UNL1        0.1348
      6 N           2.4978    0.2199   23.3394 N.ar    1  UNL1       -0.1987
      7 C           5.9664   -1.5099   24.1918 C.ar    1  UNL1        0.1149
      8 N           5.8409   -2.9710   24.5072 N.ar    1  UNL1       -0.2382
      9 C           7.2055   -3.5858   24.4067 C.ar    1  UNL1        0.0883
     10 C           8.1743   -2.5046   24.0292 C.ar    1  UNL1        0.0560
     11 S           7.4085   -1.2217   23.8964 S.2     1  UNL1       -0.0658
     12 C           7.5421   -5.0284   24.6424 C.ar    1  UNL1        0.0182
     13 C           7.1771   -5.6809   25.9428 C.ar    1  UNL1        0.0015
     14 C           7.5137   -7.1235   26.1784 C.ar    1  UNL1        0.0000
     15 C           8.2152   -7.9136   25.1137 C.ar    1  UNL1        0.0000
     16 C           8.5801   -7.2610   23.8133 C.ar    1  UNL1        0.0000
     17 C           8.2435   -5.8184   23.5777 C.ar    1  UNL1        0.0015
     18 N           1.4865    2.4808   24.1239 N.pl3   1  UNL1       -0.2824
     19 H           1.4639    3.1838   23.4350 H       1  UNL1        0.1551
     20 C          -2.9928    4.2471   26.0776 C.3     1  UNL1        0.0521
     21 C          -1.8387    3.2906   26.1333 C.ar    1  UNL1        0.0602
     22 C          -0.7532    3.3640   25.1008 C.ar    1  UNL1        0.0294
     23 C           0.4009    2.4074   25.1565 C.ar    1  UNL1        0.0528
     24 C           0.4694    1.3774   26.2448 C.ar    1  UNL1        0.0294
     25 C          -0.6161    1.3040   27.2773 C.ar    1  UNL1        0.0602
     26 C          -0.5476    0.2740   28.3657 C.3     1  UNL1        0.0521
     27 N          -1.7702    2.2606   27.2216 N.ar    1  UNL1       -0.2539
     28 N           3.5091   -2.0410   22.5548 N.pl3   1  UNL1       -0.3172
     29 H           3.2680   -2.8862   22.9984 H       1  UNL1        0.1482
     30 C           3.7678   -2.0165   21.0775 C.3     1  UNL1        0.0998
     31 C           3.2501   -0.9952   20.1086 C.3     1  UNL1        0.0271
     32 C           3.7520   -1.3565   18.7420 C.3     1  UNL1        0.0604
     33 C           4.5799   -2.6011   18.8664 C.3     1  UNL1        0.1412
     34 O           5.2758   -3.3129   17.7443 O.3     1  UNL1       -0.3818
     35 C           4.5896   -3.0090   20.3098 C.3     1  UNL1        0.1549
     36 O           5.2971   -4.2003   20.8846 O.3     1  UNL1       -0.3803
     37 H           5.1102   -2.8437   16.9117 H       1  UNL1        0.2104
     38 H           5.7555   -4.6774   20.1752 H       1  UNL1        0.2105
     39 C           3.4747   -0.6051   17.4738 C.3     1  UNL1        0.1396
     40 O           3.7541   -1.2453   16.1463 O.3     1  UNL1       -0.3819
     41 H           4.7093   -1.3824   16.0481 H       1  UNL1        0.2104
@<TRIPOS>BOND
     1    20    21    1
     2    21    22   ar
     3    22    23   ar
     4    23    18    1
     5    18     1    1
     6     1     2   ar
     7     2     3   ar
     8     3     4   ar
     9     4     7    1
    10     7     8   ar
    11     8     9   ar
    12     9    12    1
    13    12    13   ar
    14    13    14   ar
    15    14    15   ar
    16    15    16   ar
    17    16    17   ar
    18     9    10   ar
    19    10    11   ar
    20     4     5   ar
    21     5    28    1
    22    30    28    1
    23    30    31    1
    24    31    32    1
    25    32    39    1
    26    39    40    1
    27    32    33    1
    28    33    34    1
    29    33    35    1
    30    35    36    1
    31     5     6   ar
    32    23    24   ar
    33    24    25   ar
    34    25    26    1
    35    25    27   ar
    36    27    21   ar
    37     6     1   ar
    38    11     7   ar
    39    35    30    1
    40    17    12   ar
    41    18    19    1
    42    28    29    1
    43    40    41    1
    44    34    37    1
    45    36    38    1
@<TRIPOS>MOLECULE
*****
 41 45 0 0 0
SMALL
GASTEIGER

@<TRIPOS>ATOM
      1 C           5.6596   -1.9045   23.9815 C.ar    1  UNL1        0.2218
      2 N           4.2383   -1.4328   24.0690 N.ar    1  UNL1       -0.2119
      3 C           3.6315   -1.1242   25.4056 C.ar    1  UNL1        0.1066
      4 C           4.4459   -1.2874   26.6547 C.ar    1  UNL1        0.0744
      5 C           5.8671   -1.7590   26.5671 C.ar    1  UNL1        0.1348
      6 N           6.4739   -2.0676   25.2305 N.ar    1  UNL1       -0.1987
      7 C           3.8391   -0.9788   27.9913 C.ar    1  UNL1        0.1149
      8 N           4.5464   -1.0276   29.3132 N.ar    1  UNL1       -0.2382
      9 C           3.5629   -0.6463   30.3796 C.ar    1  UNL1        0.0883
     10 C           2.2476   -0.3618   29.7168 C.ar    1  UNL1        0.0560
     11 S           2.4184   -0.5674   28.2408 S.2     1  UNL1       -0.0658
     12 C           3.8450   -0.5639   31.8505 C.ar    1  UNL1        0.0182
     13 C           4.4003   -1.7539   32.5754 C.ar    1  UNL1        0.0015
     14 C           4.6824   -1.6715   34.0463 C.ar    1  UNL1        0.0000
     15 C           4.4094   -0.3991   34.7923 C.ar    1  UNL1        0.0000
     16 C           3.8541    0.7909   34.0673 C.ar    1  UNL1        0.0000
     17 C           3.5719    0.7085   32.5964 C.ar    1  UNL1        0.0015
     18 N           6.2664   -2.2130   22.6448 N.pl3   1  UNL1       -0.2824
     19 H           7.2216   -2.4421   22.5790 H       1  UNL1        0.1551
     20 C           3.2645   -4.6390   19.1659 C.3     1  UNL1        0.0521
     21 C           3.9169   -3.3856   19.6691 C.ar    1  UNL1        0.0602
     22 C           4.7654   -3.4260   20.9053 C.ar    1  UNL1        0.0294
     23 C           5.4178   -2.1725   21.4086 C.ar    1  UNL1        0.0528
     24 C           5.2216   -0.8786   20.6756 C.ar    1  UNL1        0.0294
     25 C           4.3731   -0.8382   19.4394 C.ar    1  UNL1        0.0602
     26 C           4.1768    0.4557   18.7063 C.3     1  UNL1        0.0521
     27 N           3.7207   -2.0917   18.9361 N.ar    1  UNL1       -0.2539
     28 N           6.6815   -1.9222   27.8162 N.pl3   1  UNL1       -0.3172
     29 H           7.1054   -1.1377   28.2335 H       1  UNL1        0.1482
     30 C           6.8501   -3.2806   28.4295 C.3     1  UNL1        0.0998
     31 C           6.8345   -3.5939   29.8964 C.3     1  UNL1        0.0271
     32 C           7.0387   -5.0712   30.0571 C.3     1  UNL1        0.0604
     33 C           7.1805   -5.6710   28.6896 C.3     1  UNL1        0.1412
     34 O           7.4002   -7.1226   28.3819 O.3     1  UNL1       -0.3818
     35 C           7.0640   -4.5643   27.6837 C.3     1  UNL1        0.1549
     36 O           7.1467   -4.7150   26.1936 O.3     1  UNL1       -0.3803
     37 H           7.4381   -7.6264   29.2099 H       1  UNL1        0.2104
     38 H           7.2890   -5.6482   25.9704 H       1  UNL1        0.2105
     39 C           7.0918   -5.8176   31.3571 C.3     1  UNL1        0.1396
     40 O           6.3661   -5.2859   32.5575 O.3     1  UNL1       -0.3819
     41 H           6.7697   -4.4485   32.8345 H       1  UNL1        0.2104
@<TRIPOS>BOND
     1    20    21    1
     2    21    22   ar
     3    22    23   ar
     4    23    18    1
     5    18     1    1
     6     1     2   ar
     7     2     3   ar
     8     3     4   ar
     9     4     7    1
    10     7     8   ar
    11     8     9   ar
    12     9    12    1
    13    12    13   ar
    14    13    14   ar
    15    14    15   ar
    16    15    16   ar
    17    16    17   ar
    18     9    10   ar
    19    10    11   ar
    20     4     5   ar
    21     5    28    1
    22    30    28    1
    23    30    31    1
    24    31    32    1
    25    32    39    1
    26    39    40    1
    27    32    33    1
    28    33    34    1
    29    33    35    1
    30    35    36    1
    31     5     6   ar
    32    23    24   ar
    33    24    25   ar
    34    25    26    1
    35    25    27   ar
    36    27    21   ar
    37     6     1   ar
    38    11     7   ar
    39    35    30    1
    40    17    12   ar
    41    18    19    1
    42    28    29    1
    43    40    41    1
    44    34    37    1
    45    36    38    1
@<TRIPOS>MOLECULE
*****
 41 45 0 0 0
SMALL
GASTEIGER

@<TRIPOS>ATOM
      1 C           6.7538   -4.5871   29.4850 C.ar    1  UNL1        0.2218
      2 N           6.9482   -5.8161   28.6472 N.ar    1  UNL1       -0.2119
      3 C           7.0046   -5.7036   27.1525 C.ar    1  UNL1        0.1066
      4 C           6.8665   -4.3621   26.4956 C.ar    1  UNL1        0.0744
      5 C           6.6722   -3.1332   27.3334 C.ar    1  UNL1        0.1348
      6 N           6.6158   -3.2457   28.8281 N.ar    1  UNL1       -0.1987
      7 C           6.9229   -4.2496   25.0009 C.ar    1  UNL1        0.1149
      8 N           5.8180   -3.7623   24.1110 N.ar    1  UNL1       -0.2382
      9 C           6.3063   -3.8162   22.6938 C.ar    1  UNL1        0.0883
     10 C           7.7130   -4.3367   22.7076 C.ar    1  UNL1        0.0560
     11 S           8.0941   -4.6046   24.1335 S.2     1  UNL1       -0.0658
     12 C           5.5251   -3.4192   21.4764 C.ar    1  UNL1        0.0182
     13 C           5.9191   -3.9451   20.1280 C.ar    1  UNL1        0.0015
     14 C           5.1379   -3.5481   18.9106 C.ar    1  UNL1        0.0000
     15 C           3.9626   -2.6253   19.0416 C.ar    1  UNL1        0.0000
     16 C           3.5686   -2.0994   20.3900 C.ar    1  UNL1        0.0000
     17 C           4.3499   -2.4964   21.6074 C.ar    1  UNL1        0.0015
     18 N           6.6974   -4.6996   30.9797 N.pl3   1  UNL1       -0.2824
     19 H           6.6063   -5.5834   31.4038 H       1  UNL1        0.1551
     20 C           4.3533   -0.9487   33.7067 C.3     1  UNL1        0.0521
     21 C           5.6078   -1.5900   33.1918 C.ar    1  UNL1        0.0602
     22 C           5.5254   -2.8241   32.3432 C.ar    1  UNL1        0.0294
     23 C           6.7799   -3.4654   31.8284 C.ar    1  UNL1        0.0528
     24 C           8.1167   -2.8726   32.1621 C.ar    1  UNL1        0.0294
     25 C           8.1990   -1.6385   33.0107 C.ar    1  UNL1        0.0602
     26 C           9.5359   -1.0456   33.3445 C.3     1  UNL1        0.0521
     27 N           6.9446   -0.9972   33.5256 N.ar    1  UNL1       -0.2539
     28 N           6.5341   -1.7917   26.6765 N.pl3   1  UNL1       -0.3172
     29 H           7.3363   -1.3038   26.3802 H       1  UNL1        0.1482
     30 C           5.1740   -1.1936   26.4711 C.3     1  UNL1        0.0998
     31 C           4.5809   -0.7827   25.1560 C.3     1  UNL1        0.0271
     32 C           3.2085   -0.2365   25.4168 C.3     1  UNL1        0.0604
     33 C           2.9533   -0.3098   26.8932 C.3     1  UNL1        0.1412
     34 O           1.7029    0.1310   27.5948 O.3     1  UNL1       -0.3818
     35 C           4.1681   -0.9013   27.5447 C.3     1  UNL1        0.1549
     36 O           4.3457   -1.1558   29.0122 O.3     1  UNL1       -0.3803
     37 H           1.0718    0.4765   26.9442 H       1  UNL1        0.2104
     38 H           3.5472   -0.8777   29.4876 H       1  UNL1        0.2105
     39 C           2.2581    0.2905   24.3829 C.3     1  UNL1        0.1396
     40 O           0.8460    0.6246   24.7631 O.3     1  UNL1       -0.3819
     41 H           0.3783   -0.1870   25.0149 H       1  UNL1        0.2104
@<TRIPOS>BOND
     1    20    21    1
     2    21    22   ar
     3    22    23   ar
     4    23    18    1
     5    18     1    1
     6     1     2   ar
     7     2     3   ar
     8     3     4   ar
     9     4     7    1
    10     7     8   ar
    11     8     9   ar
    12     9    12    1
    13    12    13   ar
    14    13    14   ar
    15    14    15   ar
    16    15    16   ar
    17    16    17   ar
    18     9    10   ar
    19    10    11   ar
    20     4     5   ar
    21     5    28    1
    22    30    28    1
    23    30    31    1
    24    31    32    1
    25    32    39    1
    26    39    40    1
    27    32    33    1
    28    33    34    1
    29    33    35    1
    30    35    36    1
    31     5     6   ar
    32    23    24   ar
    33    24    25   ar
    34    25    26    1
    35    25    27   ar
    36    27    21   ar
    37     6     1   ar
    38    11     7   ar
    39    35    30    1
    40    17    12   ar
    41    18    19    1
    42    28    29    1
    43    40    41    1
    44    34    37    1
    45    36    38    1
@<TRIPOS>MOLECULE
*****
 41 45 0 0 0
SMALL
GASTEIGER

@<TRIPOS>ATOM
      1 C           4.4698    0.0621   35.4858 C.ar    1  UNL1        0.2218
      2 N           4.3587   -1.2582   34.7825 N.ar    1  UNL1       -0.2119
      3 C           4.0602   -1.3024   33.3131 C.ar    1  UNL1        0.1066
      4 C           3.8727   -0.0263   32.5472 C.ar    1  UNL1        0.0744
      5 C           3.9838    1.2939   33.2506 C.ar    1  UNL1        0.1348
      6 N           4.2823    1.3381   34.7199 N.ar    1  UNL1       -0.1987
      7 C           3.5742   -0.0705   31.0778 C.ar    1  UNL1        0.1149
      8 N           2.4140    0.5896   30.3936 N.ar    1  UNL1       -0.2382
      9 C           2.5062    0.2855   28.9276 C.ar    1  UNL1        0.0883
     10 C           3.7235   -0.5625   28.7058 C.ar    1  UNL1        0.0560
     11 S           4.3835   -0.7825   30.0347 S.2     1  UNL1       -0.0658
     12 C           1.5492    0.7482   27.8693 C.ar    1  UNL1        0.0182
     13 C           1.9948    0.8301   26.4393 C.ar    1  UNL1        0.0015
     14 C           1.0378    1.2928   25.3810 C.ar    1  UNL1        0.0000
     15 C          -0.3647    1.6736   25.7527 C.ar    1  UNL1        0.0000
     16 C          -0.8102    1.5916   27.1826 C.ar    1  UNL1        0.0000
     17 C           0.1468    1.1289   28.2409 C.ar    1  UNL1        0.0015
     18 N           4.7683    0.1063   36.9552 N.pl3   1  UNL1       -0.2824
     19 H           5.4107   -0.5290   37.3463 H       1  UNL1        0.1551
     20 C           4.9495    4.4761   39.7609 C.3     1  UNL1        0.0521
     21 C           4.1786    3.3033   39.2314 C.ar    1  UNL1        0.0602
     22 C           4.8589    2.2912   38.3580 C.ar    1  UNL1        0.0294
     23 C           4.0880    1.1184   37.8286 C.ar    1  UNL1        0.0528
     24 C           2.6368    0.9578   38.1725 C.ar    1  UNL1        0.0294
     25 C           1.9566    1.9699   39.0459 C.ar    1  UNL1        0.0602
     26 C           0.5054    1.8093   39.3899 C.3     1  UNL1        0.0521
     27 N           2.7275    3.1427   39.5754 N.ar    1  UNL1       -0.2539
     28 N           3.7964    2.5699   32.4846 N.pl3   1  UNL1       -0.3172
     29 H           4.4102    2.7973   31.7491 H       1  UNL1        0.1482
     30 C           2.6740    3.4996   32.8392 C.3     1  UNL1        0.0998
     31 C           2.8175    4.8653   33.4426 C.3     1  UNL1        0.0271
     32 C           1.4431    5.4366   33.6290 C.3     1  UNL1        0.0604
     33 C           0.4501    4.4237   33.1408 C.3     1  UNL1        0.1412
     34 O          -1.0417    4.5806   33.1407 O.3     1  UNL1       -0.3818
     35 C           1.2109    3.2267   32.6527 C.3     1  UNL1        0.1549
     36 O           0.6133    1.9762   32.0788 O.3     1  UNL1       -0.3803
     37 H          -1.2757    5.4470   33.5086 H       1  UNL1        0.2104
     38 H          -0.3534    2.0549   32.0688 H       1  UNL1        0.2105
     39 C           1.1186    6.7839   34.2028 C.3     1  UNL1        0.1396
     40 O          -0.3025    7.1392   34.5255 O.3     1  UNL1       -0.3819
     41 H          -0.8189    7.1834   33.7056 H       1  UNL1        0.2104
@<TRIPOS>BOND
     1    20    21    1
     2    21    22   ar
     3    22    23   ar
     4    23    18    1
     5    18     1    1
     6     1     2   ar
     7     2     3   ar
     8     3     4   ar
     9     4     7    1
    10     7     8   ar
    11     8     9   ar
    12     9    12    1
    13    12    13   ar
    14    13    14   ar
    15    14    15   ar
    16    15    16   ar
    17    16    17   ar
    18     9    10   ar
    19    10    11   ar
    20     4     5   ar
    21     5    28    1
    22    30    28    1
    23    30    31    1
    24    31    32    1
    25    32    39    1
    26    39    40    1
    27    32    33    1
    28    33    34    1
    29    33    35    1
    30    35    36    1
    31     5     6   ar
    32    23    24   ar
    33    24    25   ar
    34    25    26    1
    35    25    27   ar
    36    27    21   ar
    37     6     1   ar
    38    11     7   ar
    39    35    30    1
    40    17    12   ar
    41    18    19    1
    42    28    29    1
    43    40    41    1
    44    34    37    1
    45    36    38    1
