@<TRIPOS>MOLECULE
*****
 45 48 0 0 0
SMALL
GASTEIGER

@<TRIPOS>ATOM
      1 C          -0.4848    3.1331   21.1986 C.ar    1  UNL1        0.1485
      2 C          -0.1385    1.9677   20.3200 C.ar    1  UNL1        0.0749
      3 C           0.4509    0.7255   20.9196 C.ar    1  UNL1        0.1485
      4 C           0.6940    0.6487   22.3978 C.ar    1  UNL1        0.0422
      5 C           0.3477    1.8141   23.2764 C.ar    1  UNL1        0.0594
      6 C          -0.2417    3.0563   22.6768 C.ar    1  UNL1        0.0422
      7 C           0.5908    1.7373   24.7545 C.2     1  UNL1        0.2460
      8 O           1.9498    1.3705   25.2731 O.2     1  UNL1       -0.2701
      9 N          -0.5250    2.0272   25.7142 N.am    1  UNL1       -0.3025
     10 H          -1.4169    2.2679   25.3738 H       1  UNL1        0.1497
     11 C          -0.2819    1.9504   27.1923 C.3     1  UNL1        0.0719
     12 C           0.4450    3.0607   27.8916 C.3     1  UNL1        0.0209
     13 C           0.6881    2.9839   29.3697 C.3     1  UNL1        0.0172
     14 C           0.2043    1.7968   30.1487 C.3     1  UNL1        0.0509
     15 N           0.4474    1.7200   31.6269 N.3     1  UNL1       -0.3222
     16 C          -0.5226    0.6865   29.4495 C.3     1  UNL1        0.0172
     17 C          -0.7657    0.7633   27.9713 C.3     1  UNL1        0.0209
     18 H           0.9506    2.5529   31.9324 H       1  UNL1        0.1188
     19 H           1.0029    0.8908   31.8375 H       1  UNL1        0.1188
     20 O          -1.0742    4.3753   20.5990 O.3     1  UNL1       -0.4534
     21 C          -5.5239    4.6967   20.0100 C.ar    1  UNL1        0.0815
     22 C          -4.6304    5.8334   19.6105 C.ar    1  UNL1        0.0105
     23 C          -3.1472    5.7263   19.8068 C.ar    1  UNL1        0.0377
     24 C          -2.5574    4.4825   20.4027 C.ar    1  UNL1        0.1453
     25 C          -3.4509    3.3458   20.8021 C.ar    1  UNL1        0.0377
     26 C          -4.9341    3.4529   20.6058 C.ar    1  UNL1        0.0105
     27 N          -7.8401    5.5729   20.7958 N.2     1  UNL1       -0.0994
     28 C          -7.0071    4.8039   19.8136 C.2     1  UNL1        0.3093
     29 N          -7.6574    4.1420   18.6351 N.pl3   1  UNL1       -0.2466
     30 H          -8.8136    5.6432   20.6670 H       1  UNL1        0.3633
     31 H          -8.6309    4.2123   18.5062 H       1  UNL1        0.2884
     32 H          -7.1107    3.6372   17.9904 H       1  UNL1        0.2884
     33 O           0.7972   -0.4400   20.0410 O.3     1  UNL1       -0.4534
     34 C           2.1637   -0.5388   19.4303 C.ar    1  UNL1        0.1453
     35 C           3.0611   -1.6882   19.7820 C.ar    1  UNL1        0.0377
     36 C           4.4275   -1.7870   19.1713 C.ar    1  UNL1        0.0105
     37 C           4.8966   -0.7364   18.2088 C.ar    1  UNL1        0.0815
     38 C           3.9992    0.4129   17.8571 C.ar    1  UNL1        0.0105
     39 C           2.6328    0.5117   18.4678 C.ar    1  UNL1        0.0377
     40 C           6.2631   -0.8353   17.5981 C.2     1  UNL1        0.3093
     41 N           6.9702   -2.1573   17.5521 N.2     1  UNL1       -0.0994
     42 N           6.9224    0.3880   17.0332 N.pl3   1  UNL1       -0.2466
     43 H           6.5375   -2.9601   17.9228 H       1  UNL1        0.3633
     44 H           6.4582    1.2557   17.0634 H       1  UNL1        0.2884
     45 H           7.8192    0.3232   16.6324 H       1  UNL1        0.2884
@<TRIPOS>BOND
     1    27    28    2
     2    28    29    1
     3    28    21    1
     4    21    22   ar
     5    22    23   ar
     6    23    24   ar
     7    24    20    1
     8    20     1    1
     9     1     2   ar
    10     2     3   ar
    11     3    33    1
    12    33    34    1
    13    34    35   ar
    14    35    36   ar
    15    36    37   ar
    16    37    40    1
    17    40    41    2
    18    40    42    1
    19    37    38   ar
    20    38    39   ar
    21     3     4   ar
    22     4     5   ar
    23     5     7    1
    24     7     8    2
    25     7     9   am
    26    11     9    1
    27    11    12    1
    28    12    13    1
    29    13    14    1
    30    14    15    1
    31    14    16    1
    32    16    17    1
    33     5     6   ar
    34    24    25   ar
    35    25    26   ar
    36    26    21   ar
    37     6     1   ar
    38    39    34   ar
    39    17    11    1
    40    27    30    1
    41    29    31    1
    42    29    32    1
    43    41    43    1
    44    42    44    1
    45    42    45    1
    46     9    10    1
    47    15    18    1
    48    15    19    1
@<TRIPOS>MOLECULE
*****
 45 48 0 0 0
SMALL
GASTEIGER

@<TRIPOS>ATOM
      1 C           0.1943    1.3073   20.3825 C.ar    1  UNL1        0.1485
      2 C          -0.6771    2.5160   20.2100 C.ar    1  UNL1        0.0749
      3 C          -1.0699    3.3340   21.4044 C.ar    1  UNL1        0.1485
      4 C          -0.5914    2.9433   22.7713 C.ar    1  UNL1        0.0422
      5 C           0.2799    1.7346   22.9438 C.ar    1  UNL1        0.0594
      6 C           0.6728    0.9166   21.7494 C.ar    1  UNL1        0.0422
      7 C           0.7583    1.3439   24.3107 C.2     1  UNL1        0.2460
      8 O           1.9295    0.4184   24.4592 O.2     1  UNL1       -0.2701
      9 N           0.0658    1.8787   25.5290 N.am    1  UNL1       -0.3025
     10 H          -0.7028    2.4861   25.4315 H       1  UNL1        0.1497
     11 C           0.5442    1.4879   26.8959 C.3     1  UNL1        0.0719
     12 C          -0.2953    0.5907   27.7563 C.3     1  UNL1        0.0209
     13 C           0.1832    0.2000   29.1232 C.3     1  UNL1        0.0172
     14 C           1.5012    0.7065   29.6297 C.3     1  UNL1        0.0509
     15 N           1.9796    0.3158   30.9966 N.3     1  UNL1       -0.3222
     16 C           2.3406    1.6037   28.7693 C.3     1  UNL1        0.0172
     17 C           1.8622    1.9944   27.4024 C.3     1  UNL1        0.0209
     18 H           1.2895   -0.2923   31.4374 H       1  UNL1        0.1188
     19 H           2.1069    1.1534   31.5646 H       1  UNL1        0.1188
     20 O           0.5871    0.4893   19.1882 O.3     1  UNL1       -0.4534
     21 C           4.7323   -1.2399   18.9100 C.ar    1  UNL1        0.0815
     22 C           4.3809   -0.0056   18.1334 C.ar    1  UNL1        0.0105
     23 C           2.9991    0.5707   18.2261 C.ar    1  UNL1        0.0377
     24 C           1.9689   -0.0871   19.0954 C.ar    1  UNL1        0.1453
     25 C           2.3203   -1.3213   19.8720 C.ar    1  UNL1        0.0377
     26 C           3.7020   -1.8977   19.7793 C.ar    1  UNL1        0.0105
     27 N           6.7151   -2.1114   17.4751 N.2     1  UNL1       -0.0994
     28 C           6.1141   -1.8163   18.8173 C.2     1  UNL1        0.3093
     29 N           6.8948   -2.0975   20.0668 N.pl3   1  UNL1       -0.2466
     30 H           7.6219   -2.4897   17.4142 H       1  UNL1        0.3633
     31 H           7.8017   -2.4758   20.0059 H       1  UNL1        0.2884
     32 H           6.5003   -1.9038   20.9478 H       1  UNL1        0.2884
     33 O          -1.9412    4.5428   21.2318 O.3     1  UNL1       -0.4534
     34 C          -3.2834    4.6012   21.8991 C.ar    1  UNL1        0.1453
     35 C          -3.6438    5.7777   22.7571 C.ar    1  UNL1        0.0377
     36 C          -4.9860    5.8362   23.4243 C.ar    1  UNL1        0.0105
     37 C          -5.9677    4.7181   23.2336 C.ar    1  UNL1        0.0815
     38 C          -5.6072    3.5417   22.3757 C.ar    1  UNL1        0.0105
     39 C          -4.2651    3.4833   21.7084 C.ar    1  UNL1        0.0377
     40 C          -7.3098    4.7765   23.9009 C.2     1  UNL1        0.3093
     41 N          -8.4066    3.8524   23.4616 N.2     1  UNL1       -0.0994
     42 N          -7.5551    5.7592   25.0074 N.pl3   1  UNL1       -0.2466
     43 H          -8.2456    3.2075   22.7354 H       1  UNL1        0.3633
     44 H          -6.8352    6.3657   25.2957 H       1  UNL1        0.2884
     45 H          -8.4360    5.7975   25.4454 H       1  UNL1        0.2884
@<TRIPOS>BOND
     1    27    28    2
     2    28    29    1
     3    28    21    1
     4    21    22   ar
     5    22    23   ar
     6    23    24   ar
     7    24    20    1
     8    20     1    1
     9     1     2   ar
    10     2     3   ar
    11     3    33    1
    12    33    34    1
    13    34    35   ar
    14    35    36   ar
    15    36    37   ar
    16    37    40    1
    17    40    41    2
    18    40    42    1
    19    37    38   ar
    20    38    39   ar
    21     3     4   ar
    22     4     5   ar
    23     5     7    1
    24     7     8    2
    25     7     9   am
    26    11     9    1
    27    11    12    1
    28    12    13    1
    29    13    14    1
    30    14    15    1
    31    14    16    1
    32    16    17    1
    33     5     6   ar
    34    24    25   ar
    35    25    26   ar
    36    26    21   ar
    37     6     1   ar
    38    39    34   ar
    39    17    11    1
    40    27    30    1
    41    29    31    1
    42    29    32    1
    43    41    43    1
    44    42    44    1
    45    42    45    1
    46     9    10    1
    47    15    18    1
    48    15    19    1
@<TRIPOS>MOLECULE
*****
 45 48 0 0 0
SMALL
GASTEIGER

@<TRIPOS>ATOM
      1 C           0.4185    0.6146   20.7680 C.ar    1  UNL1        0.1485
      2 C           1.1057    1.0946   22.0120 C.ar    1  UNL1        0.0749
      3 C           0.6255    2.3367   22.7023 C.ar    1  UNL1        0.1485
      4 C          -0.5419    3.0988   22.1487 C.ar    1  UNL1        0.0422
      5 C          -1.2290    2.6188   20.9048 C.ar    1  UNL1        0.0594
      6 C          -0.7488    1.3767   20.2144 C.ar    1  UNL1        0.0422
      7 C          -2.3963    3.3810   20.3512 C.2     1  UNL1        0.2460
      8 O          -2.1716    4.6754   19.6272 O.2     1  UNL1       -0.2701
      9 N          -3.7883    2.8487   20.5215 N.am    1  UNL1       -0.3025
     10 H          -3.9358    1.9992   20.9967 H       1  UNL1        0.1497
     11 C          -4.9557    3.6109   19.9679 C.3     1  UNL1        0.0719
     12 C          -5.9173    4.2896   20.8979 C.3     1  UNL1        0.0209
     13 C          -7.0847    5.0517   20.3443 C.3     1  UNL1        0.0172
     14 C          -7.2903    5.1351   18.8607 C.3     1  UNL1        0.0509
     15 N          -8.4577    5.8973   18.3071 N.3     1  UNL1       -0.3222
     16 C          -6.3287    4.4565   17.9309 C.3     1  UNL1        0.0172
     17 C          -5.1614    3.6943   18.4845 C.3     1  UNL1        0.0209
     18 H          -9.0021    6.2903   19.0749 H       1  UNL1        0.1188
     19 H          -9.0459    5.2684   17.7604 H       1  UNL1        0.1188
     20 O           0.8988   -0.6275   20.0776 O.3     1  UNL1       -0.4534
     21 C           4.9916   -0.7242   18.2098 C.ar    1  UNL1        0.0815
     22 C           4.5431   -1.8512   19.0921 C.ar    1  UNL1        0.0105
     23 C           3.1788   -1.8190   19.7147 C.ar    1  UNL1        0.0377
     24 C           2.2630   -0.6597   19.4550 C.ar    1  UNL1        0.1453
     25 C           2.7116    0.4673   18.5727 C.ar    1  UNL1        0.0377
     26 C           4.0759    0.4351   17.9501 C.ar    1  UNL1        0.0105
     27 N           7.1087   -2.0507   17.4967 N.2     1  UNL1       -0.0994
     28 C           6.3559   -0.7564   17.5872 C.2     1  UNL1        0.3093
     29 N           6.9675    0.5056   17.0550 N.pl3   1  UNL1       -0.2466
     30 H           8.0041   -2.0718   17.0880 H       1  UNL1        0.3633
     31 H           7.8629    0.4844   16.6464 H       1  UNL1        0.2884
     32 H           6.4735    1.3551   17.1144 H       1  UNL1        0.2884
     33 O           1.3126    2.8167   23.9463 O.3     1  UNL1       -0.4534
     34 C           1.1504    2.0610   25.2319 C.ar    1  UNL1        0.1453
     35 C          -0.2222    1.7646   25.7595 C.ar    1  UNL1        0.0377
     36 C          -0.3845    1.0090   27.0451 C.ar    1  UNL1        0.0105
     37 C           0.8258    0.5497   27.8030 C.ar    1  UNL1        0.0815
     38 C           2.1982    0.8460   27.2753 C.ar    1  UNL1        0.0105
     39 C           2.3605    1.6017   25.9898 C.ar    1  UNL1        0.0377
     40 C           0.6635   -0.2060   29.0885 C.2     1  UNL1        0.3093
     41 N          -0.7047   -0.6047   29.5566 N.2     1  UNL1       -0.0994
     42 N           1.8695   -0.5630   29.9060 N.pl3   1  UNL1       -0.2466
     43 H          -1.4962   -0.3703   29.0201 H       1  UNL1        0.3633
     44 H           2.7675   -0.3014   29.5988 H       1  UNL1        0.2884
     45 H           1.7630   -1.0590   30.7498 H       1  UNL1        0.2884
@<TRIPOS>BOND
     1    27    28    2
     2    28    29    1
     3    28    21    1
     4    21    22   ar
     5    22    23   ar
     6    23    24   ar
     7    24    20    1
     8    20     1    1
     9     1     2   ar
    10     2     3   ar
    11     3    33    1
    12    33    34    1
    13    34    35   ar
    14    35    36   ar
    15    36    37   ar
    16    37    40    1
    17    40    41    2
    18    40    42    1
    19    37    38   ar
    20    38    39   ar
    21     3     4   ar
    22     4     5   ar
    23     5     7    1
    24     7     8    2
    25     7     9   am
    26    11     9    1
    27    11    12    1
    28    12    13    1
    29    13    14    1
    30    14    15    1
    31    14    16    1
    32    16    17    1
    33     5     6   ar
    34    24    25   ar
    35    25    26   ar
    36    26    21   ar
    37     6     1   ar
    38    39    34   ar
    39    17    11    1
    40    27    30    1
    41    29    31    1
    42    29    32    1
    43    41    43    1
    44    42    44    1
    45    42    45    1
    46     9    10    1
    47    15    18    1
    48    15    19    1
@<TRIPOS>MOLECULE
*****
 45 48 0 0 0
SMALL
GASTEIGER

@<TRIPOS>ATOM
      1 C          -0.7052    3.3255   24.9115 C.ar    1  UNL1        0.1485
      2 C          -0.1611    2.6829   26.1530 C.ar    1  UNL1        0.0749
      3 C           0.7573    1.5019   26.0455 C.ar    1  UNL1        0.1485
      4 C           1.1318    0.9634   24.6965 C.ar    1  UNL1        0.0422
      5 C           0.5878    1.6059   23.4550 C.ar    1  UNL1        0.0594
      6 C          -0.3307    2.7870   23.5625 C.ar    1  UNL1        0.0422
      7 C           0.9623    1.0674   22.1060 C.2     1  UNL1        0.2460
      8 O          -0.1002    0.8166   21.0773 O.2     1  UNL1       -0.2701
      9 N           2.3992    0.7797   21.7858 N.am    1  UNL1       -0.3025
     10 H           3.0965    0.9443   22.4610 H       1  UNL1        0.1497
     11 C           2.7736    0.2412   20.4368 C.3     1  UNL1        0.0719
     12 C           2.8032    1.1539   19.2467 C.3     1  UNL1        0.0209
     13 C           3.1776    0.6154   17.8977 C.3     1  UNL1        0.0172
     14 C           3.5226   -0.8358   17.7388 C.3     1  UNL1        0.0509
     15 N           3.8971   -1.3743   16.3898 N.3     1  UNL1       -0.3222
     16 C           3.4930   -1.7484   18.9289 C.3     1  UNL1        0.0172
     17 C           3.1186   -1.2099   20.2779 C.3     1  UNL1        0.0209
     18 H           3.8652   -0.6215   15.7024 H       1  UNL1        0.1188
     19 H           3.2402   -2.1073   16.1220 H       1  UNL1        0.1188
     20 O          -1.6236    4.5065   25.0191 O.3     1  UNL1       -0.4534
     21 C          -5.7151    4.3523   23.1519 C.ar    1  UNL1        0.0815
     22 C          -5.4582    3.6538   24.4542 C.ar    1  UNL1        0.0105
     23 C          -4.0944    3.7052   25.0766 C.ar    1  UNL1        0.0377
     24 C          -2.9875    4.4551   24.3967 C.ar    1  UNL1        0.1453
     25 C          -3.2444    5.1536   23.0944 C.ar    1  UNL1        0.0377
     26 C          -4.6082    5.1022   22.4720 C.ar    1  UNL1        0.0105
     27 N          -8.2650    3.8972   23.3543 N.2     1  UNL1       -0.0994
     28 C          -7.0789    4.3009   22.5296 C.2     1  UNL1        0.3093
     29 N          -7.2567    4.6533   21.0824 N.pl3   1  UNL1       -0.2466
     30 H          -9.1601    3.8635   22.9458 H       1  UNL1        0.3633
     31 H          -8.1518    4.6195   20.6740 H       1  UNL1        0.2884
     32 H          -6.4783    4.9183   20.5411 H       1  UNL1        0.2884
     33 O           1.3014    0.8594   27.2869 O.3     1  UNL1       -0.4534
     34 C           1.1968    1.5672   28.6053 C.ar    1  UNL1        0.1453
     35 C           2.1293    2.6976   28.9257 C.ar    1  UNL1        0.0377
     36 C           2.0247    3.4054   30.2441 C.ar    1  UNL1        0.0105
     37 C           0.9875    2.9828   31.2420 C.ar    1  UNL1        0.0815
     38 C           0.0551    1.8524   30.9216 C.ar    1  UNL1        0.0105
     39 C           0.1597    1.1446   29.6032 C.ar    1  UNL1        0.0377
     40 C           0.8829    3.6906   32.5604 C.2     1  UNL1        0.3093
     41 N          -0.3768    4.4201   32.9221 N.2     1  UNL1       -0.0994
     42 N           2.0381    3.6689   33.5171 N.pl3   1  UNL1       -0.2466
     43 H          -1.1350    4.4343   32.2942 H       1  UNL1        0.3633
     44 H           2.8649    3.1901   33.2797 H       1  UNL1        0.2884
     45 H           1.9694    4.1334   34.3823 H       1  UNL1        0.2884
@<TRIPOS>BOND
     1    27    28    2
     2    28    29    1
     3    28    21    1
     4    21    22   ar
     5    22    23   ar
     6    23    24   ar
     7    24    20    1
     8    20     1    1
     9     1     2   ar
    10     2     3   ar
    11     3    33    1
    12    33    34    1
    13    34    35   ar
    14    35    36   ar
    15    36    37   ar
    16    37    40    1
    17    40    41    2
    18    40    42    1
    19    37    38   ar
    20    38    39   ar
    21     3     4   ar
    22     4     5   ar
    23     5     7    1
    24     7     8    2
    25     7     9   am
    26    11     9    1
    27    11    12    1
    28    12    13    1
    29    13    14    1
    30    14    15    1
    31    14    16    1
    32    16    17    1
    33     5     6   ar
    34    24    25   ar
    35    25    26   ar
    36    26    21   ar
    37     6     1   ar
    38    39    34   ar
    39    17    11    1
    40    27    30    1
    41    29    31    1
    42    29    32    1
    43    41    43    1
    44    42    44    1
    45    42    45    1
    46     9    10    1
    47    15    18    1
    48    15    19    1
@<TRIPOS>MOLECULE
*****
 45 48 0 0 0
SMALL
GASTEIGER

@<TRIPOS>ATOM
      1 C           0.4175    0.8002   20.8653 C.ar    1  UNL1        0.1485
      2 C          -0.1820    2.0404   20.2713 C.ar    1  UNL1        0.0749
      3 C          -0.5268    3.2034   21.1535 C.ar    1  UNL1        0.1485
      4 C          -0.2720    3.1265   22.6297 C.ar    1  UNL1        0.0422
      5 C           0.3276    1.8865   23.2237 C.ar    1  UNL1        0.0594
      6 C           0.6723    0.7233   22.3415 C.ar    1  UNL1        0.0422
      7 C           0.5824    1.8096   24.6999 C.2     1  UNL1        0.2460
      8 O           1.9628    1.5166   25.2084 O.2     1  UNL1       -0.2701
      9 N          -0.5432    2.0256   25.6675 N.am    1  UNL1       -0.3025
     10 H          -1.4492    2.2179   25.3337 H       1  UNL1        0.1497
     11 C          -0.2884    1.9487   27.1437 C.3     1  UNL1        0.0719
     12 C           0.3935    3.0846   27.8473 C.3     1  UNL1        0.0209
     13 C           0.6483    3.0076   29.3235 C.3     1  UNL1        0.0172
     14 C           0.2212    1.7949   30.0961 C.3     1  UNL1        0.0509
     15 N           0.4760    1.7180   31.5723 N.3     1  UNL1       -0.3222
     16 C          -0.4607    0.6591   29.3925 C.3     1  UNL1        0.0172
     17 C          -0.7155    0.7360   27.9163 C.3     1  UNL1        0.0209
     18 H           0.9442    2.5698   31.8814 H       1  UNL1        0.1188
     19 H           1.0682    0.9123   31.7736 H       1  UNL1        0.1188
     20 O           0.7623   -0.3628   19.9831 O.3     1  UNL1       -0.4534
     21 C           4.9089   -0.7412   18.2767 C.ar    1  UNL1        0.0815
     22 C           4.4422   -1.6988   19.3327 C.ar    1  UNL1        0.0105
     23 C           3.0600   -1.5727   19.9015 C.ar    1  UNL1        0.0377
     24 C           2.1445   -0.4890   19.4143 C.ar    1  UNL1        0.1453
     25 C           2.6112    0.4686   18.3583 C.ar    1  UNL1        0.0377
     26 C           3.9934    0.3424   17.7894 C.ar    1  UNL1        0.0105
     27 N           6.9024   -2.2237   17.5160 N.2     1  UNL1       -0.0994
     28 C           6.2912   -0.8674   17.7079 C.2     1  UNL1        0.3093
     29 N           7.0622    0.3628   17.3309 N.pl3   1  UNL1       -0.2466
     30 H           7.8096   -2.3064   17.1427 H       1  UNL1        0.3633
     31 H           7.9694    0.2800   16.9575 H       1  UNL1        0.2884
     32 H           6.6611    1.2530   17.4568 H       1  UNL1        0.2884
     33 O          -1.1263    4.4436   20.5595 O.3     1  UNL1       -0.4534
     34 C          -2.6064    4.5252   20.3299 C.ar    1  UNL1        0.1453
     35 C          -3.1967    4.0076   19.0516 C.ar    1  UNL1        0.0377
     36 C          -4.6768    4.0892   18.8220 C.ar    1  UNL1        0.0105
     37 C          -5.5665    4.6884   19.8706 C.ar    1  UNL1        0.0815
     38 C          -4.9762    5.2059   21.1487 C.ar    1  UNL1        0.0105
     39 C          -3.4961    5.1243   21.3783 C.ar    1  UNL1        0.0377
     40 C          -7.0466    4.7700   19.6409 C.2     1  UNL1        0.3093
     41 N          -7.8900    5.6677   20.4968 N.2     1  UNL1       -0.0994
     42 N          -7.6832    3.9538   18.5552 N.pl3   1  UNL1       -0.2466
     43 H          -7.4722    6.2034   21.2094 H       1  UNL1        0.3633
     44 H          -7.1297    3.3645   17.9934 H       1  UNL1        0.2884
     45 H          -8.6547    4.0073   18.4045 H       1  UNL1        0.2884
@<TRIPOS>BOND
     1    27    28    2
     2    28    29    1
     3    28    21    1
     4    21    22   ar
     5    22    23   ar
     6    23    24   ar
     7    24    20    1
     8    20     1    1
     9     1     2   ar
    10     2     3   ar
    11     3    33    1
    12    33    34    1
    13    34    35   ar
    14    35    36   ar
    15    36    37   ar
    16    37    40    1
    17    40    41    2
    18    40    42    1
    19    37    38   ar
    20    38    39   ar
    21     3     4   ar
    22     4     5   ar
    23     5     7    1
    24     7     8    2
    25     7     9   am
    26    11     9    1
    27    11    12    1
    28    12    13    1
    29    13    14    1
    30    14    15    1
    31    14    16    1
    32    16    17    1
    33     5     6   ar
    34    24    25   ar
    35    25    26   ar
    36    26    21   ar
    37     6     1   ar
    38    39    34   ar
    39    17    11    1
    40    27    30    1
    41    29    31    1
    42    29    32    1
    43    41    43    1
    44    42    44    1
    45    42    45    1
    46     9    10    1
    47    15    18    1
    48    15    19    1
@<TRIPOS>MOLECULE
*****
 45 48 0 0 0
SMALL
GASTEIGER

@<TRIPOS>ATOM
      1 C           0.8719    1.3956   26.0970 C.ar    1  UNL1        0.1485
      2 C          -0.0556    2.5663   26.2357 C.ar    1  UNL1        0.0749
      3 C          -0.6243    3.2217   25.0122 C.ar    1  UNL1        0.1485
      4 C          -0.2656    2.7064   23.6500 C.ar    1  UNL1        0.0422
      5 C           0.6618    1.5357   23.5112 C.ar    1  UNL1        0.0594
      6 C           1.2306    0.8802   24.7347 C.ar    1  UNL1        0.0422
      7 C           1.0205    1.0204   22.1489 C.2     1  UNL1        0.2460
      8 O          -0.0533    0.7922   21.1267 O.2     1  UNL1       -0.2701
      9 N           2.4529    0.7332   21.8089 N.am    1  UNL1       -0.3025
     10 H           3.1576    0.8830   22.4798 H       1  UNL1        0.1497
     11 C           2.8116    0.2179   20.4466 C.3     1  UNL1        0.0719
     12 C           3.1454   -1.2322   20.2573 C.3     1  UNL1        0.0209
     13 C           3.5041   -1.7476   18.8950 C.3     1  UNL1        0.0172
     14 C           3.5290   -0.8128   17.7221 C.3     1  UNL1        0.0509
     15 N           3.8877   -1.3281   16.3598 N.3     1  UNL1       -0.3222
     16 C           3.1951    0.6372   17.9115 C.3     1  UNL1        0.0172
     17 C           2.8364    1.1526   19.2737 C.3     1  UNL1        0.0209
     18 H           4.0833   -2.3276   16.4151 H       1  UNL1        0.1188
     19 H           4.7144   -0.8382   16.0178 H       1  UNL1        0.1188
     20 O           1.4406    0.7402   27.3205 O.3     1  UNL1       -0.4534
     21 C           1.1700    2.8039   31.3102 C.ar    1  UNL1        0.0815
     22 C           0.1307    1.7974   30.9144 C.ar    1  UNL1        0.0105
     23 C           0.2209    1.1095   29.5845 C.ar    1  UNL1        0.0377
     24 C           1.3504    1.4281   28.6504 C.ar    1  UNL1        0.1453
     25 C           2.3898    2.4346   29.0462 C.ar    1  UNL1        0.0377
     26 C           2.2996    3.1225   30.3761 C.ar    1  UNL1        0.0105
     27 N           0.5879    4.9065   32.7209 N.2     1  UNL1       -0.0994
     28 C           1.0798    3.4918   32.6401 C.2     1  UNL1        0.3093
     29 N           1.4815    2.7650   33.8892 N.pl3   1  UNL1       -0.2466
     30 H           0.5287    5.3580   33.5938 H       1  UNL1        0.3633
     31 H           1.4223    3.2165   34.7621 H       1  UNL1        0.2884
     32 H           1.8044    1.8365   33.8362 H       1  UNL1        0.2884
     33 O          -1.5518    4.3925   25.1510 O.3     1  UNL1       -0.4534
     34 C          -2.9073    4.3555   24.5097 C.ar    1  UNL1        0.1453
     35 C          -4.0345    3.6272   25.1800 C.ar    1  UNL1        0.0377
     36 C          -5.3900    3.5902   24.5388 C.ar    1  UNL1        0.0105
     37 C          -5.6184    4.2816   23.2273 C.ar    1  UNL1        0.0815
     38 C          -4.4913    5.0100   22.5571 C.ar    1  UNL1        0.0105
     39 C          -3.1357    5.0469   23.1984 C.ar    1  UNL1        0.0377
     40 C          -6.9739    4.2447   22.5861 C.2     1  UNL1        0.3093
     41 N          -8.1870    3.9395   23.4137 N.2     1  UNL1       -0.0994
     42 N          -7.1163    4.5130   21.1171 N.pl3   1  UNL1       -0.2466
     43 H          -8.0936    3.7634   24.3778 H       1  UNL1        0.3633
     44 H          -6.3200    4.7133   20.5738 H       1  UNL1        0.2884
     45 H          -8.0059    4.4888   20.6962 H       1  UNL1        0.2884
@<TRIPOS>BOND
     1    27    28    2
     2    28    29    1
     3    28    21    1
     4    21    22   ar
     5    22    23   ar
     6    23    24   ar
     7    24    20    1
     8    20     1    1
     9     1     2   ar
    10     2     3   ar
    11     3    33    1
    12    33    34    1
    13    34    35   ar
    14    35    36   ar
    15    36    37   ar
    16    37    40    1
    17    40    41    2
    18    40    42    1
    19    37    38   ar
    20    38    39   ar
    21     3     4   ar
    22     4     5   ar
    23     5     7    1
    24     7     8    2
    25     7     9   am
    26    11     9    1
    27    11    12    1
    28    12    13    1
    29    13    14    1
    30    14    15    1
    31    14    16    1
    32    16    17    1
    33     5     6   ar
    34    24    25   ar
    35    25    26   ar
    36    26    21   ar
    37     6     1   ar
    38    39    34   ar
    39    17    11    1
    40    27    30    1
    41    29    31    1
    42    29    32    1
    43    41    43    1
    44    42    44    1
    45    42    45    1
    46     9    10    1
    47    15    18    1
    48    15    19    1
@<TRIPOS>MOLECULE
*****
 45 48 0 0 0
SMALL
GASTEIGER

@<TRIPOS>ATOM
      1 C          -1.1707    3.3577   21.3595 C.ar    1  UNL1        0.1485
      2 C          -0.7559    2.5042   20.1978 C.ar    1  UNL1        0.0749
      3 C           0.1139    1.3030   20.4225 C.ar    1  UNL1        0.1485
      4 C           0.5689    0.9553   21.8089 C.ar    1  UNL1        0.0422
      5 C           0.1541    1.8087   22.9705 C.ar    1  UNL1        0.0594
      6 C          -0.7157    3.0100   22.7458 C.ar    1  UNL1        0.0422
      7 C           0.6091    1.4610   24.3569 C.2     1  UNL1        0.2460
      8 O           1.8157    0.5920   24.5544 O.2     1  UNL1       -0.2701
      9 N          -0.1425    1.9823   25.5458 N.am    1  UNL1       -0.3025
     10 H          -0.9344    2.5527   25.4161 H       1  UNL1        0.1497
     11 C           0.3125    1.6346   26.9322 C.3     1  UNL1        0.0719
     12 C           1.4953    2.3360   27.5314 C.3     1  UNL1        0.0209
     13 C           1.9503    1.9883   28.9178 C.3     1  UNL1        0.0172
     14 C           1.2225    0.9391   29.7049 C.3     1  UNL1        0.0509
     15 N           1.6775    0.5914   31.0913 N.3     1  UNL1       -0.3222
     16 C           0.0398    0.2377   29.1057 C.3     1  UNL1        0.0172
     17 C          -0.4152    0.5854   27.7193 C.3     1  UNL1        0.0209
     18 H           2.4878    1.1605   31.3360 H       1  UNL1        0.1188
     19 H           1.9317   -0.3957   31.1282 H       1  UNL1        0.1188
     20 O          -2.0405    4.5589   21.1347 O.3     1  UNL1       -0.4534
     21 C          -6.0797    4.8120   23.1023 C.ar    1  UNL1        0.0815
     22 C          -5.6733    3.5605   22.3821 C.ar    1  UNL1        0.0105
     23 C          -4.3269    3.4762   21.7262 C.ar    1  UNL1        0.0377
     24 C          -3.3869    4.6433   21.7906 C.ar    1  UNL1        0.1453
     25 C          -3.7933    5.8947   22.5108 C.ar    1  UNL1        0.0377
     26 C          -5.1396    5.9791   23.1666 C.ar    1  UNL1        0.0105
     27 N          -8.4618    3.8471   23.4822 N.2     1  UNL1       -0.0994
     28 C          -7.4261    4.8963   23.7581 C.2     1  UNL1        0.3093
     29 N          -7.7367    6.0300   24.6900 N.pl3   1  UNL1       -0.2466
     30 H          -9.3455    3.9024   23.9126 H       1  UNL1        0.3633
     31 H          -8.6204    6.0853   25.1204 H       1  UNL1        0.2884
     32 H          -7.0569    6.7187   24.8711 H       1  UNL1        0.2884
     33 O           0.5288    0.4495   19.2608 O.3     1  UNL1       -0.4534
     34 C           1.9581    0.0166   19.1209 C.ar    1  UNL1        0.1453
     35 C           2.4124   -1.2782   19.7269 C.ar    1  UNL1        0.0377
     36 C           3.8418   -1.7110   19.5870 C.ar    1  UNL1        0.0105
     37 C           4.8168   -0.8491   18.8410 C.ar    1  UNL1        0.0815
     38 C           4.3625    0.4456   18.2350 C.ar    1  UNL1        0.0105
     39 C           2.9331    0.8785   18.3749 C.ar    1  UNL1        0.0377
     40 C           6.2462   -1.2819   18.7010 C.2     1  UNL1        0.3093
     41 N           6.6844   -2.0403   17.4833 N.2     1  UNL1       -0.0994
     42 N           7.2374   -0.9564   19.7789 N.pl3   1  UNL1       -0.2466
     43 H           6.0338   -2.2540   16.7760 H       1  UNL1        0.3633
     44 H           6.9497   -0.4586   20.5781 H       1  UNL1        0.2884
     45 H           8.1755   -1.2405   19.6870 H       1  UNL1        0.2884
@<TRIPOS>BOND
     1    27    28    2
     2    28    29    1
     3    28    21    1
     4    21    22   ar
     5    22    23   ar
     6    23    24   ar
     7    24    20    1
     8    20     1    1
     9     1     2   ar
    10     2     3   ar
    11     3    33    1
    12    33    34    1
    13    34    35   ar
    14    35    36   ar
    15    36    37   ar
    16    37    40    1
    17    40    41    2
    18    40    42    1
    19    37    38   ar
    20    38    39   ar
    21     3     4   ar
    22     4     5   ar
    23     5     7    1
    24     7     8    2
    25     7     9   am
    26    11     9    1
    27    11    12    1
    28    12    13    1
    29    13    14    1
    30    14    15    1
    31    14    16    1
    32    16    17    1
    33     5     6   ar
    34    24    25   ar
    35    25    26   ar
    36    26    21   ar
    37     6     1   ar
    38    39    34   ar
    39    17    11    1
    40    27    30    1
    41    29    31    1
    42    29    32    1
    43    41    43    1
    44    42    44    1
    45    42    45    1
    46     9    10    1
    47    15    18    1
    48    15    19    1
@<TRIPOS>MOLECULE
*****
 45 48 0 0 0
SMALL
GASTEIGER

@<TRIPOS>ATOM
      1 C           0.7591    3.2266   22.6790 C.ar    1  UNL1        0.1485
      2 C           1.6256    2.6826   21.5821 C.ar    1  UNL1        0.0749
      3 C           1.0369    2.3994   20.2318 C.ar    1  UNL1        0.1485
      4 C          -0.4184    2.6602   19.9785 C.ar    1  UNL1        0.0422
      5 C          -1.2849    3.2042   21.0754 C.ar    1  UNL1        0.0594
      6 C          -0.6962    3.4874   22.4257 C.ar    1  UNL1        0.0422
      7 C          -2.7401    3.4650   20.8220 C.2     1  UNL1        0.2460
      8 O          -3.7717    2.9603   21.7871 O.2     1  UNL1       -0.2701
      9 N          -3.1639    4.2304   19.6036 N.am    1  UNL1       -0.3025
     10 H          -2.4869    4.5616   18.9702 H       1  UNL1        0.1497
     11 C          -4.6192    4.4912   19.3503 C.3     1  UNL1        0.0719
     12 C          -5.5137    3.3750   18.8987 C.3     1  UNL1        0.0209
     13 C          -6.9689    3.6358   18.6454 C.3     1  UNL1        0.0172
     14 C          -7.5297    5.0129   18.8436 C.3     1  UNL1        0.0509
     15 N          -8.9850    5.2737   18.5903 N.3     1  UNL1       -0.3222
     16 C          -6.6352    6.1291   19.2952 C.3     1  UNL1        0.0172
     17 C          -5.1800    5.8683   19.5485 C.3     1  UNL1        0.0209
     18 H          -9.4384    4.4099   18.2923 H       1  UNL1        0.1188
     19 H          -9.0819    5.9783   17.8591 H       1  UNL1        0.1188
     20 O           1.3479    3.5097   24.0292 O.3     1  UNL1       -0.4534
     21 C           0.2355    0.9409   27.5526 C.ar    1  UNL1        0.0815
     22 C          -0.8000    1.8076   26.8997 C.ar    1  UNL1        0.0105
     23 C          -0.4293    2.6639   25.7252 C.ar    1  UNL1        0.0377
     24 C           0.9771    2.6535   25.2037 C.ar    1  UNL1        0.1453
     25 C           2.0127    1.7867   25.8566 C.ar    1  UNL1        0.0377
     26 C           1.6419    0.9305   27.0311 C.ar    1  UNL1        0.0105
     27 N           0.9349   -0.4579   29.6272 N.2     1  UNL1       -0.0994
     28 C          -0.1352    0.0846   28.7270 C.2     1  UNL1        0.3093
     29 N          -1.5762   -0.2291   29.0013 N.pl3   1  UNL1       -0.2466
     30 H           0.6915   -1.0199   30.3981 H       1  UNL1        0.3633
     31 H          -1.8195   -0.7911   29.7721 H       1  UNL1        0.2884
     32 H          -2.2786    0.1269   28.4104 H       1  UNL1        0.2884
     33 O           1.9034    1.8554   19.1349 O.3     1  UNL1       -0.4534
     34 C           2.4942    0.4821   19.2571 C.ar    1  UNL1        0.1453
     35 C           2.1452   -0.3827   20.4320 C.ar    1  UNL1        0.0377
     36 C           2.7360   -1.7561   20.5542 C.ar    1  UNL1        0.0105
     37 C           3.6759   -2.2646   19.5015 C.ar    1  UNL1        0.0815
     38 C           4.0249   -1.3998   18.3267 C.ar    1  UNL1        0.0105
     39 C           3.4341   -0.0265   18.2045 C.ar    1  UNL1        0.0377
     40 C           4.2667   -3.6379   19.6237 C.2     1  UNL1        0.3093
     41 N           4.8207   -4.1018   20.9382 N.2     1  UNL1       -0.0994
     42 N           4.3034   -4.5474   18.4314 N.pl3   1  UNL1       -0.2466
     43 H           4.7966   -3.5049   21.7207 H       1  UNL1        0.3633
     44 H           3.9398   -4.2429   17.5686 H       1  UNL1        0.2884
     45 H           4.6912   -5.4487   18.5116 H       1  UNL1        0.2884
@<TRIPOS>BOND
     1    27    28    2
     2    28    29    1
     3    28    21    1
     4    21    22   ar
     5    22    23   ar
     6    23    24   ar
     7    24    20    1
     8    20     1    1
     9     1     2   ar
    10     2     3   ar
    11     3    33    1
    12    33    34    1
    13    34    35   ar
    14    35    36   ar
    15    36    37   ar
    16    37    40    1
    17    40    41    2
    18    40    42    1
    19    37    38   ar
    20    38    39   ar
    21     3     4   ar
    22     4     5   ar
    23     5     7    1
    24     7     8    2
    25     7     9   am
    26    11     9    1
    27    11    12    1
    28    12    13    1
    29    13    14    1
    30    14    15    1
    31    14    16    1
    32    16    17    1
    33     5     6   ar
    34    24    25   ar
    35    25    26   ar
    36    26    21   ar
    37     6     1   ar
    38    39    34   ar
    39    17    11    1
    40    27    30    1
    41    29    31    1
    42    29    32    1
    43    41    43    1
    44    42    44    1
    45    42    45    1
    46     9    10    1
    47    15    18    1
    48    15    19    1
@<TRIPOS>MOLECULE
*****
 45 48 0 0 0
SMALL
GASTEIGER

@<TRIPOS>ATOM
      1 C           1.0162    2.5088   20.3879 C.ar    1  UNL1        0.1485
      2 C           1.5671    2.7951   21.7535 C.ar    1  UNL1        0.0749
      3 C           0.6635    3.3117   22.8336 C.ar    1  UNL1        0.1485
      4 C          -0.7910    3.5419   22.5482 C.ar    1  UNL1        0.0422
      5 C          -1.3419    3.2556   21.1828 C.ar    1  UNL1        0.0594
      6 C          -0.4383    2.7390   20.1026 C.ar    1  UNL1        0.0422
      7 C          -2.7964    3.4859   20.8974 C.2     1  UNL1        0.2460
      8 O          -3.8402    2.8926   21.7967 O.2     1  UNL1       -0.2701
      9 N          -3.2071    4.3094   19.7130 N.am    1  UNL1       -0.3025
     10 H          -2.5220    4.6988   19.1228 H       1  UNL1        0.1497
     11 C          -4.6616    4.5397   19.4276 C.3     1  UNL1        0.0719
     12 C          -5.5202    3.4072   18.9476 C.3     1  UNL1        0.0209
     13 C          -6.9747    3.6375   18.6622 C.3     1  UNL1        0.0172
     14 C          -7.5706    5.0002   18.8570 C.3     1  UNL1        0.0509
     15 N          -9.0251    5.2305   18.5716 N.3     1  UNL1       -0.3222
     16 C          -6.7120    6.1326   19.3370 C.3     1  UNL1        0.0172
     17 C          -5.2575    5.9024   19.6223 C.3     1  UNL1        0.0209
     18 H          -9.4520    4.3591   18.2572 H       1  UNL1        0.1188
     19 H          -9.1208    5.9382   17.8433 H       1  UNL1        0.1188
     20 O           1.9198    1.9922   19.3078 O.3     1  UNL1       -0.4534
     21 C           3.6052   -2.1710   19.5842 C.ar    1  UNL1        0.0815
     22 C           2.5794   -1.7098   20.5765 C.ar    1  UNL1        0.0105
     23 C           2.0175   -0.3221   20.4844 C.ar    1  UNL1        0.0377
     24 C           2.4816    0.6045   19.3999 C.ar    1  UNL1        0.1453
     25 C           3.5075    0.1432   18.4076 C.ar    1  UNL1        0.0377
     26 C           4.0693   -1.2445   18.4997 C.ar    1  UNL1        0.0105
     27 N           4.7087   -4.0636   20.9808 N.2     1  UNL1       -0.0994
     28 C           4.1671   -3.5588   19.6763 C.2     1  UNL1        0.3093
     29 N           4.1872   -4.4418   18.4639 N.pl3   1  UNL1       -0.2466
     30 H           5.0775   -4.9744   21.0413 H       1  UNL1        0.3633
     31 H           4.5560   -5.3526   18.5244 H       1  UNL1        0.2884
     32 H           3.8317   -4.1105   17.6077 H       1  UNL1        0.2884
     33 O           1.2144    3.5980   24.1991 O.3     1  UNL1       -0.4534
     34 C           0.8485    2.7156   25.3556 C.ar    1  UNL1        0.1453
     35 C           1.8499    1.7416   25.9021 C.ar    1  UNL1        0.0377
     36 C           1.4840    0.8593   27.0586 C.ar    1  UNL1        0.0105
     37 C           0.1167    0.9508   27.6686 C.ar    1  UNL1        0.0815
     38 C          -0.8847    1.9248   27.1221 C.ar    1  UNL1        0.0105
     39 C          -0.5188    2.8072   25.9656 C.ar    1  UNL1        0.0377
     40 C          -0.2493    0.0685   28.8251 C.2     1  UNL1        0.3093
     41 N           0.8236   -0.4826   29.7169 N.2     1  UNL1       -0.0994
     42 N          -1.6881   -0.2628   29.0898 N.pl3   1  UNL1       -0.2466
     43 H           1.7679   -0.2651   29.5431 H       1  UNL1        0.3633
     44 H          -2.3923    0.0988   28.5045 H       1  UNL1        0.2884
     45 H          -1.9283   -0.8420   29.8488 H       1  UNL1        0.2884
@<TRIPOS>BOND
     1    27    28    2
     2    28    29    1
     3    28    21    1
     4    21    22   ar
     5    22    23   ar
     6    23    24   ar
     7    24    20    1
     8    20     1    1
     9     1     2   ar
    10     2     3   ar
    11     3    33    1
    12    33    34    1
    13    34    35   ar
    14    35    36   ar
    15    36    37   ar
    16    37    40    1
    17    40    41    2
    18    40    42    1
    19    37    38   ar
    20    38    39   ar
    21     3     4   ar
    22     4     5   ar
    23     5     7    1
    24     7     8    2
    25     7     9   am
    26    11     9    1
    27    11    12    1
    28    12    13    1
    29    13    14    1
    30    14    15    1
    31    14    16    1
    32    16    17    1
    33     5     6   ar
    34    24    25   ar
    35    25    26   ar
    36    26    21   ar
    37     6     1   ar
    38    39    34   ar
    39    17    11    1
    40    27    30    1
    41    29    31    1
    42    29    32    1
    43    41    43    1
    44    42    44    1
    45    42    45    1
    46     9    10    1
    47    15    18    1
    48    15    19    1
