@<TRIPOS>MOLECULE
*****
 33 35 0 0 0
SMALL
GASTEIGER

@<TRIPOS>ATOM
      1 N         -11.0987  -19.5410   21.0265 N.3     1  UNL1       -0.2655
      2 C         -11.0859  -20.6767   22.0063 C.3     1  UNL1        0.0900
      3 C         -10.6761  -19.7713   19.6058 C.3     1  UNL1        0.1059
      4 C          -9.2291  -19.9966   19.2809 C.3     1  UNL1        0.1700
      5 O          -8.8457  -20.9411   18.1806 O.3     1  UNL1       -0.3793
      6 H          -9.6468  -21.3187   17.7848 H       1  UNL1        0.2106
      7 C          -8.1655  -19.2772   20.0564 C.3     1  UNL1        0.2358
      8 O          -7.3431  -20.0194   21.0676 O.3     1  UNL1       -0.4728
      9 C          -2.8781  -19.4698   21.1773 C.ar    1  UNL1        0.1388
     10 C          -3.7514  -18.7056   22.1277 C.ar    1  UNL1        0.0400
     11 C          -5.2397  -18.8888   22.0912 C.ar    1  UNL1        0.0400
     12 C          -5.8548  -19.8362   21.1042 C.ar    1  UNL1        0.1389
     13 C          -4.9815  -20.6004   20.1537 C.ar    1  UNL1        0.0400
     14 C          -3.4932  -20.4172   20.1903 C.ar    1  UNL1        0.0400
     15 O          -1.3898  -19.2866   21.2138 O.3     1  UNL1       -0.4755
     16 C          -1.4981  -17.7336   19.1338 C.3     1  UNL1        0.0512
     17 C          -0.7321  -18.3047   20.2902 C.3     1  UNL1        0.2055
     18 C         -11.5340  -18.1749   21.4674 C.3     1  UNL1        0.1016
     19 C         -10.5462  -17.0465   21.4983 C.ar    1  UNL1        0.0223
     20 C         -10.5505  -15.8460   20.5990 C.ar    1  UNL1        0.0774
     21 C         -11.5436  -15.5631   19.5109 C.3     1  UNL1        0.0537
     22 N          -9.3876  -14.9781   20.9787 N.ar    1  UNL1       -0.1740
     23 N          -8.6644  -15.6422   22.1127 N.ar    1  UNL1       -0.2510
     24 C          -9.3804  -16.9206   22.4339 C.ar    1  UNL1        0.0548
     25 C          -8.9979  -17.9008   23.5028 C.3     1  UNL1        0.0515
     26 C          -7.4402  -15.1197   22.8043 C.3     1  UNL1        0.1542
     27 C          -7.2871  -15.2874   24.2870 C.ar    1  UNL1        0.0127
     28 C          -8.4830  -15.1602   25.1835 C.ar    1  UNL1       -0.0015
     29 C          -8.3300  -15.3280   26.6663 C.ar    1  UNL1       -0.0002
     30 C          -6.9811  -15.6229   27.2525 C.ar    1  UNL1        0.0008
     31 C          -5.7853  -15.7501   26.3560 C.ar    1  UNL1        0.0111
     32 C          -5.9383  -15.5824   24.8732 C.ar    1  UNL1        0.0556
     33 CL         -4.7425  -15.7096   23.9767 Cl      1  UNL1       -0.0825
@<TRIPOS>BOND
     1    16    17    1
     2    17    15    1
     3    15     9    1
     4     9    10   ar
     5    10    11   ar
     6    11    12   ar
     7    12     8    1
     8     8     7    1
     9     7     4    1
    10     4     5    1
    11     4     3    1
    12     3     1    1
    13     1     2    1
    14     1    18    1
    15    18    19    1
    16    19    20   ar
    17    20    21    1
    18    20    22   ar
    19    22    23   ar
    20    23    26    1
    21    26    27    1
    22    27    28   ar
    23    28    29   ar
    24    29    30   ar
    25    30    31   ar
    26    31    32   ar
    27    32    33    1
    28    23    24   ar
    29    24    25    1
    30    12    13   ar
    31    13    14   ar
    32    14     9   ar
    33    24    19   ar
    34    32    27   ar
    35     5     6    1
@<TRIPOS>MOLECULE
*****
 33 35 0 0 0
SMALL
GASTEIGER

@<TRIPOS>ATOM
      1 N          -4.6847  -20.4880   20.6939 N.3     1  UNL1       -0.2655
      2 C          -3.5719  -20.5755   19.6920 C.3     1  UNL1        0.0900
      3 C          -6.0948  -20.7834   20.2763 C.3     1  UNL1        0.1059
      4 C          -6.9722  -19.6797   19.7643 C.3     1  UNL1        0.1700
      5 O          -6.4119  -18.3006   19.5797 O.3     1  UNL1       -0.3793
      6 H          -5.4762  -18.2949   19.8354 H       1  UNL1        0.2106
      7 C          -8.4099  -19.9551   19.4370 C.3     1  UNL1        0.2358
      8 O          -9.3508  -18.8168   19.1746 O.3     1  UNL1       -0.4728
      9 C         -12.2884  -17.5503   22.3395 C.ar    1  UNL1        0.1388
     10 C         -11.3642  -18.7043   22.5926 C.ar    1  UNL1        0.0400
     11 C         -10.3850  -19.1265   21.5377 C.ar    1  UNL1        0.0400
     12 C         -10.3300  -18.3946   20.2295 C.ar    1  UNL1        0.1389
     13 C         -11.2541  -17.2406   19.9763 C.ar    1  UNL1        0.0400
     14 C         -12.2333  -16.8185   21.0313 C.ar    1  UNL1        0.0400
     15 O         -13.2676  -17.1282   23.3944 O.3     1  UNL1       -0.4755
     16 C         -14.0668  -18.4900   25.4576 C.3     1  UNL1        0.0512
     17 C         -14.1938  -18.1377   24.0051 C.3     1  UNL1        0.2055
     18 C          -4.3876  -20.1052   22.1135 C.3     1  UNL1        0.1016
     19 C          -4.3681  -18.6592   22.5120 C.ar    1  UNL1        0.0223
     20 C          -3.1525  -17.7846   22.5980 C.ar    1  UNL1        0.0774
     21 C          -1.7429  -18.2025   22.3007 C.3     1  UNL1        0.0537
     22 N          -3.5939  -16.4188   23.0336 N.ar    1  UNL1       -0.1740
     23 N          -5.0824  -16.4493   23.2167 N.ar    1  UNL1       -0.2510
     24 C          -5.5609  -17.8339   22.8944 C.ar    1  UNL1        0.0548
     25 C          -6.9825  -18.3097   22.9454 C.3     1  UNL1        0.0515
     26 C          -5.9416  -15.2974   23.6467 C.3     1  UNL1        0.1542
     27 C          -6.6777  -15.3571   24.9523 C.ar    1  UNL1        0.0127
     28 C          -5.9243  -15.2405   26.2441 C.ar    1  UNL1       -0.0015
     29 C          -6.6604  -15.3002   27.5497 C.ar    1  UNL1       -0.0002
     30 C          -8.1499  -15.4766   27.5636 C.ar    1  UNL1        0.0008
     31 C          -8.9033  -15.5932   26.2718 C.ar    1  UNL1        0.0111
     32 C          -8.1672  -15.5335   24.9662 C.ar    1  UNL1        0.0556
     33 CL         -8.9206  -15.6501   23.6744 Cl      1  UNL1       -0.0825
@<TRIPOS>BOND
     1    16    17    1
     2    17    15    1
     3    15     9    1
     4     9    10   ar
     5    10    11   ar
     6    11    12   ar
     7    12     8    1
     8     8     7    1
     9     7     4    1
    10     4     5    1
    11     4     3    1
    12     3     1    1
    13     1     2    1
    14     1    18    1
    15    18    19    1
    16    19    20   ar
    17    20    21    1
    18    20    22   ar
    19    22    23   ar
    20    23    26    1
    21    26    27    1
    22    27    28   ar
    23    28    29   ar
    24    29    30   ar
    25    30    31   ar
    26    31    32   ar
    27    32    33    1
    28    23    24   ar
    29    24    25    1
    30    12    13   ar
    31    13    14   ar
    32    14     9   ar
    33    24    19   ar
    34    32    27   ar
    35     5     6    1
@<TRIPOS>MOLECULE
*****
 33 35 0 0 0
SMALL
GASTEIGER

@<TRIPOS>ATOM
      1 N         -11.3133  -18.5228   20.1142 N.3     1  UNL1       -0.2655
      2 C         -11.4852  -17.2250   19.3820 C.3     1  UNL1        0.0900
      3 C         -10.6103  -19.6703   19.4517 C.3     1  UNL1        0.1059
      4 C          -9.1145  -19.7677   19.5095 C.3     1  UNL1        0.1700
      5 O          -8.3767  -20.5890   18.4941 O.3     1  UNL1       -0.3793
      6 H          -9.0109  -20.9866   17.8772 H       1  UNL1        0.2106
      7 C          -8.3567  -19.0438   20.5826 C.3     1  UNL1        0.2358
      8 O          -7.4607  -19.8066   21.5128 O.3     1  UNL1       -0.4728
      9 C          -2.9915  -19.5156   21.0751 C.ar    1  UNL1        0.1388
     10 C          -3.6993  -18.6899   22.1082 C.ar    1  UNL1        0.0400
     11 C          -5.1890  -18.7869   22.2541 C.ar    1  UNL1        0.0400
     12 C          -5.9710  -19.7096   21.3669 C.ar    1  UNL1        0.1389
     13 C          -5.2633  -20.5353   20.3339 C.ar    1  UNL1        0.0400
     14 C          -3.7735  -20.4383   20.1880 C.ar    1  UNL1        0.0400
     15 O          -1.5018  -19.4186   20.9292 O.3     1  UNL1       -0.4755
     16 C          -1.7218  -17.8352   18.8813 C.3     1  UNL1        0.0512
     17 C          -0.9035  -18.4008   20.0040 C.3     1  UNL1        0.2055
     18 C         -11.8443  -18.6730   21.5091 C.3     1  UNL1        0.1016
     19 C         -11.0194  -18.2229   22.6782 C.ar    1  UNL1        0.0223
     20 C         -10.3870  -19.1137   23.7062 C.ar    1  UNL1        0.0774
     21 C         -10.4687  -20.6109   23.7455 C.3     1  UNL1        0.0537
     22 N          -9.6588  -18.2443   24.6879 N.ar    1  UNL1       -0.1740
     23 N          -9.8410  -16.8163   24.2667 N.ar    1  UNL1       -0.2510
     24 C         -10.6819  -16.8030   23.0246 C.ar    1  UNL1        0.0548
     25 C         -11.1101  -15.5839   22.2628 C.3     1  UNL1        0.0515
     26 C          -9.2807  -15.6127   24.9650 C.3     1  UNL1        0.1542
     27 C          -7.8085  -15.5217   25.2379 C.ar    1  UNL1        0.0127
     28 C          -6.8452  -15.3382   24.1029 C.ar    1  UNL1       -0.0015
     29 C          -5.3731  -15.2471   24.3759 C.ar    1  UNL1       -0.0002
     30 C          -4.8642  -15.3395   25.7839 C.ar    1  UNL1        0.0008
     31 C          -5.8275  -15.5230   26.9189 C.ar    1  UNL1        0.0111
     32 C          -7.2997  -15.6140   26.6460 C.ar    1  UNL1        0.0556
     33 CL         -8.2630  -15.7975   27.7810 Cl      1  UNL1       -0.0825
@<TRIPOS>BOND
     1    16    17    1
     2    17    15    1
     3    15     9    1
     4     9    10   ar
     5    10    11   ar
     6    11    12   ar
     7    12     8    1
     8     8     7    1
     9     7     4    1
    10     4     5    1
    11     4     3    1
    12     3     1    1
    13     1     2    1
    14     1    18    1
    15    18    19    1
    16    19    20   ar
    17    20    21    1
    18    20    22   ar
    19    22    23   ar
    20    23    26    1
    21    26    27    1
    22    27    28   ar
    23    28    29   ar
    24    29    30   ar
    25    30    31   ar
    26    31    32   ar
    27    32    33    1
    28    23    24   ar
    29    24    25    1
    30    12    13   ar
    31    13    14   ar
    32    14     9   ar
    33    24    19   ar
    34    32    27   ar
    35     5     6    1
@<TRIPOS>MOLECULE
*****
 33 35 0 0 0
SMALL
GASTEIGER

@<TRIPOS>ATOM
      1 N          -4.7226  -19.7234   20.4028 N.3     1  UNL1       -0.2655
      2 C          -4.4334  -18.6926   19.3522 C.3     1  UNL1        0.0900
      3 C          -3.7135  -20.0033   21.4768 C.3     1  UNL1        0.1059
      4 C          -2.5444  -19.0826   21.6658 C.3     1  UNL1        0.1700
      5 O          -1.3137  -19.2509   20.8251 O.3     1  UNL1       -0.3793
      6 H          -1.4381  -19.9945   20.2149 H       1  UNL1        0.2106
      7 C          -2.6062  -17.9936   22.6955 C.3     1  UNL1        0.2358
      8 O          -3.6089  -16.8867   22.5573 O.3     1  UNL1       -0.4728
      9 C          -5.9449  -15.5055   26.1469 C.ar    1  UNL1        0.1388
     10 C          -4.9233  -16.5944   26.2905 C.ar    1  UNL1        0.0400
     11 C          -4.1447  -17.0548   25.0939 C.ar    1  UNL1        0.0400
     12 C          -4.3876  -16.4263   23.7538 C.ar    1  UNL1        0.1389
     13 C          -5.4092  -15.3374   23.6103 C.ar    1  UNL1        0.0400
     14 C          -6.1878  -14.8770   24.8068 C.ar    1  UNL1        0.0400
     15 O          -6.7236  -15.0452   27.3435 O.3     1  UNL1       -0.4755
     16 C          -8.6180  -16.7849   26.9770 C.3     1  UNL1        0.0512
     17 C          -8.1540  -15.4634   27.5137 C.3     1  UNL1        0.2055
     18 C          -6.0208  -20.4745   20.3793 C.3     1  UNL1        0.1016
     19 C          -7.3199  -19.7256   20.3402 C.ar    1  UNL1        0.0223
     20 C          -8.3895  -19.8695   19.2985 C.ar    1  UNL1        0.0774
     21 C          -8.3479  -20.7876   18.1129 C.3     1  UNL1        0.0537
     22 N          -9.5082  -18.9342   19.6504 N.ar    1  UNL1       -0.1740
     23 N          -9.1299  -18.2122   20.9096 N.ar    1  UNL1       -0.2510
     24 C          -7.7775  -18.7013   21.3360 C.ar    1  UNL1        0.0548
     25 C          -7.0163  -18.2462   22.5456 C.3     1  UNL1        0.0515
     26 C          -9.9585  -17.1820   21.6181 C.3     1  UNL1        0.1542
     27 C         -11.0112  -17.6101   22.5973 C.ar    1  UNL1        0.0127
     28 C         -10.6287  -18.4076   23.8088 C.ar    1  UNL1       -0.0015
     29 C         -11.6813  -18.8356   24.7880 C.ar    1  UNL1       -0.0002
     30 C         -13.1164  -18.4662   24.5557 C.ar    1  UNL1        0.0008
     31 C         -13.4989  -17.6687   23.3442 C.ar    1  UNL1        0.0111
     32 C         -12.4463  -17.2406   22.3650 C.ar    1  UNL1        0.0556
     33 CL        -12.8288  -16.4431   21.1536 Cl      1  UNL1       -0.0825
@<TRIPOS>BOND
     1    16    17    1
     2    17    15    1
     3    15     9    1
     4     9    10   ar
     5    10    11   ar
     6    11    12   ar
     7    12     8    1
     8     8     7    1
     9     7     4    1
    10     4     5    1
    11     4     3    1
    12     3     1    1
    13     1     2    1
    14     1    18    1
    15    18    19    1
    16    19    20   ar
    17    20    21    1
    18    20    22   ar
    19    22    23   ar
    20    23    26    1
    21    26    27    1
    22    27    28   ar
    23    28    29   ar
    24    29    30   ar
    25    30    31   ar
    26    31    32   ar
    27    32    33    1
    28    23    24   ar
    29    24    25    1
    30    12    13   ar
    31    13    14   ar
    32    14     9   ar
    33    24    19   ar
    34    32    27   ar
    35     5     6    1
@<TRIPOS>MOLECULE
*****
 33 35 0 0 0
SMALL
GASTEIGER

@<TRIPOS>ATOM
      1 N          -2.9467  -19.5682   20.1782 N.3     1  UNL1       -0.2655
      2 C          -2.5139  -18.8577   18.9301 C.3     1  UNL1        0.0900
      3 C          -3.8330  -20.7748   20.0854 C.3     1  UNL1        0.1059
      4 C          -5.3240  -20.6151   20.1267 C.3     1  UNL1        0.1700
      5 O          -6.2073  -21.8268   20.1635 O.3     1  UNL1       -0.3793
      6 H          -5.6591  -22.6270   20.1553 H       1  UNL1        0.2106
      7 C          -5.9315  -19.2436   20.1312 C.3     1  UNL1        0.2358
      8 O          -7.3730  -19.0606   19.7588 O.3     1  UNL1       -0.4728
      9 C         -10.5812  -19.5446   22.8770 C.ar    1  UNL1        0.1388
     10 C          -9.1461  -19.7988   23.2317 C.ar    1  UNL1        0.0400
     11 C          -8.0767  -19.6375   22.1923 C.ar    1  UNL1        0.0400
     12 C          -8.4424  -19.2220   20.7982 C.ar    1  UNL1        0.1389
     13 C          -9.8775  -18.9677   20.4435 C.ar    1  UNL1        0.0400
     14 C         -10.9469  -19.1290   21.4829 C.ar    1  UNL1        0.0400
     15 O         -11.6506  -19.7059   23.9164 O.3     1  UNL1       -0.4755
     16 C         -13.5665  -17.9604   23.7355 C.3     1  UNL1        0.0512
     17 C         -12.3641  -18.5000   24.4518 C.3     1  UNL1        0.2055
     18 C          -2.4930  -19.0722   21.5193 C.3     1  UNL1        0.1016
     19 C          -2.8889  -17.7026   21.9855 C.ar    1  UNL1        0.0223
     20 C          -2.2282  -16.4135   21.5963 C.ar    1  UNL1        0.0774
     21 C          -1.0554  -16.2676   20.6725 C.3     1  UNL1        0.0537
     22 N          -2.9460  -15.2958   22.2931 N.ar    1  UNL1       -0.1740
     23 N          -4.0504  -15.8941   23.1130 N.ar    1  UNL1       -0.2510
     24 C          -4.0152  -17.3817   22.9229 C.ar    1  UNL1        0.0548
     25 C          -4.9432  -18.3739   23.5585 C.3     1  UNL1        0.0515
     26 C          -5.0199  -15.1378   23.9721 C.3     1  UNL1        0.1542
     27 C          -6.4732  -15.5092   23.9685 C.ar    1  UNL1        0.0127
     28 C          -7.2026  -15.6716   22.6679 C.ar    1  UNL1       -0.0015
     29 C          -8.6559  -16.0429   22.6644 C.ar    1  UNL1       -0.0002
     30 C          -9.3799  -16.2518   23.9614 C.ar    1  UNL1        0.0008
     31 C          -8.6505  -16.0894   25.2620 C.ar    1  UNL1        0.0111
     32 C          -7.1971  -15.7181   25.2655 C.ar    1  UNL1        0.0556
     33 CL         -6.4678  -15.5556   26.5661 Cl      1  UNL1       -0.0825
@<TRIPOS>BOND
     1    16    17    1
     2    17    15    1
     3    15     9    1
     4     9    10   ar
     5    10    11   ar
     6    11    12   ar
     7    12     8    1
     8     8     7    1
     9     7     4    1
    10     4     5    1
    11     4     3    1
    12     3     1    1
    13     1     2    1
    14     1    18    1
    15    18    19    1
    16    19    20   ar
    17    20    21    1
    18    20    22   ar
    19    22    23   ar
    20    23    26    1
    21    26    27    1
    22    27    28   ar
    23    28    29   ar
    24    29    30   ar
    25    30    31   ar
    26    31    32   ar
    27    32    33    1
    28    23    24   ar
    29    24    25    1
    30    12    13   ar
    31    13    14   ar
    32    14     9   ar
    33    24    19   ar
    34    32    27   ar
    35     5     6    1
@<TRIPOS>MOLECULE
*****
 33 35 0 0 0
SMALL
GASTEIGER

@<TRIPOS>ATOM
      1 N         -11.1264  -18.8886   20.9204 N.3     1  UNL1       -0.2655
      2 C         -11.1003  -20.3068   21.4082 C.3     1  UNL1        0.0900
      3 C         -12.3334  -18.0328   21.1666 C.3     1  UNL1        0.1059
      4 C         -12.4796  -17.2985   22.4665 C.3     1  UNL1        0.1700
      5 O         -12.6902  -15.8134   22.4694 O.3     1  UNL1       -0.3793
      6 H         -12.7068  -15.4874   21.5560 H       1  UNL1        0.2106
      7 C         -12.4153  -18.0495   23.7634 C.3     1  UNL1        0.2358
      8 O         -11.1068  -18.6015   24.2462 O.3     1  UNL1       -0.4728
      9 C          -8.0732  -15.8695   26.1391 C.ar    1  UNL1        0.1388
     10 C          -8.6910  -15.5059   24.8216 C.ar    1  UNL1        0.0400
     11 C          -9.7023  -16.4166   24.1906 C.ar    1  UNL1        0.0400
     12 C         -10.0956  -17.6909   24.8772 C.ar    1  UNL1        0.1389
     13 C          -9.4777  -18.0545   26.1947 C.ar    1  UNL1        0.0400
     14 C          -8.4665  -17.1438   26.8257 C.ar    1  UNL1        0.0400
     15 O          -7.0620  -14.9589   26.7701 O.3     1  UNL1       -0.4755
     16 C          -5.2778  -15.4971   24.9598 C.3     1  UNL1        0.0512
     17 C          -5.6269  -15.0172   26.3374 C.3     1  UNL1        0.2055
     18 C          -9.9453  -18.3262   20.1862 C.3     1  UNL1        0.1016
     19 C          -8.6469  -19.0769   20.1676 C.ar    1  UNL1        0.0223
     20 C          -8.2783  -20.1774   19.2173 C.ar    1  UNL1        0.0774
     21 C          -9.1434  -20.7203   18.1187 C.3     1  UNL1        0.0537
     22 N          -6.8926  -20.6397   19.5583 N.ar    1  UNL1       -0.1740
     23 N          -6.4048  -19.8249   20.7194 N.ar    1  UNL1       -0.2510
     24 C          -7.4890  -18.8590   21.0960 C.ar    1  UNL1        0.0548
     25 C          -7.4263  -17.8522   22.2060 C.3     1  UNL1        0.0515
     26 C          -5.0676  -19.9533   21.3868 C.3     1  UNL1        0.1542
     27 C          -3.9285  -19.0762   20.9589 C.ar    1  UNL1        0.0127
     28 C          -3.4705  -19.0851   19.5306 C.ar    1  UNL1       -0.0015
     29 C          -2.3314  -18.2080   19.1027 C.ar    1  UNL1       -0.0002
     30 C          -1.6501  -17.3220   20.1031 C.ar    1  UNL1        0.0008
     31 C          -2.1081  -17.3131   21.5315 C.ar    1  UNL1        0.0111
     32 C          -3.2472  -18.1902   21.9594 C.ar    1  UNL1        0.0556
     33 CL         -3.7052  -18.1813   23.3877 Cl      1  UNL1       -0.0825
@<TRIPOS>BOND
     1    16    17    1
     2    17    15    1
     3    15     9    1
     4     9    10   ar
     5    10    11   ar
     6    11    12   ar
     7    12     8    1
     8     8     7    1
     9     7     4    1
    10     4     5    1
    11     4     3    1
    12     3     1    1
    13     1     2    1
    14     1    18    1
    15    18    19    1
    16    19    20   ar
    17    20    21    1
    18    20    22   ar
    19    22    23   ar
    20    23    26    1
    21    26    27    1
    22    27    28   ar
    23    28    29   ar
    24    29    30   ar
    25    30    31   ar
    26    31    32   ar
    27    32    33    1
    28    23    24   ar
    29    24    25    1
    30    12    13   ar
    31    13    14   ar
    32    14     9   ar
    33    24    19   ar
    34    32    27   ar
    35     5     6    1
@<TRIPOS>MOLECULE
*****
 33 35 0 0 0
SMALL
GASTEIGER

@<TRIPOS>ATOM
      1 N          -2.6027  -19.3950   20.7855 N.3     1  UNL1       -0.2655
      2 C          -1.4251  -19.0097   19.9400 C.3     1  UNL1        0.0900
      3 C          -3.6560  -20.3087   20.2326 C.3     1  UNL1        0.1059
      4 C          -5.0862  -19.8593   20.1796 C.3     1  UNL1        0.1700
      5 O          -5.4227  -18.4864   19.6778 O.3     1  UNL1       -0.3793
      6 H          -4.6070  -18.0236   19.4304 H       1  UNL1        0.2106
      7 C          -6.1797  -20.7828   20.6283 C.3     1  UNL1        0.2358
      8 O          -7.0331  -20.4180   21.8066 O.3     1  UNL1       -0.4728
      9 C         -11.0975  -18.5968   21.1632 C.ar    1  UNL1        0.1388
     10 C         -10.7096  -19.1049   22.5202 C.ar    1  UNL1        0.0400
     11 C          -9.3548  -19.7119   22.7346 C.ar    1  UNL1        0.0400
     12 C          -8.3879  -19.8109   21.5921 C.ar    1  UNL1        0.1389
     13 C          -8.7758  -19.3029   20.2352 C.ar    1  UNL1        0.0400
     14 C         -10.1306  -18.6958   20.0207 C.ar    1  UNL1        0.0400
     15 O         -12.4523  -17.9897   20.9488 O.3     1  UNL1       -0.4755
     16 C         -12.2939  -15.8808   22.4578 C.3     1  UNL1        0.0512
     17 C         -12.6543  -16.5169   21.1480 C.3     1  UNL1        0.2055
     18 C          -2.7271  -18.8665   22.1838 C.3     1  UNL1        0.1016
     19 C          -3.2849  -17.4942   22.4201 C.ar    1  UNL1        0.0223
     20 C          -2.6006  -16.1977   22.1028 C.ar    1  UNL1        0.0774
     21 C          -1.2384  -16.0457   21.4934 C.3     1  UNL1        0.0537
     22 N          -3.5177  -15.0797   22.5018 N.ar    1  UNL1       -0.1740
     23 N          -4.7687  -15.6854   23.0658 N.ar    1  UNL1       -0.2510
     24 C          -4.6249  -17.1776   23.0154 C.ar    1  UNL1        0.0548
     25 C          -5.6423  -18.1776   23.4787 C.3     1  UNL1        0.0515
     26 C          -5.9553  -14.9312   23.5885 C.3     1  UNL1        0.1542
     27 C          -6.6449  -15.3910   24.8387 C.ar    1  UNL1        0.0127
     28 C          -5.9510  -15.2759   26.1636 C.ar    1  UNL1       -0.0015
     29 C          -6.6406  -15.7357   27.4138 C.ar    1  UNL1       -0.0002
     30 C          -8.0241  -16.3105   27.3392 C.ar    1  UNL1        0.0008
     31 C          -8.7180  -16.4256   26.0144 C.ar    1  UNL1        0.0111
     32 C          -8.0284  -15.9658   24.7641 C.ar    1  UNL1        0.0556
     33 CL         -8.7223  -16.0809   23.4393 Cl      1  UNL1       -0.0825
@<TRIPOS>BOND
     1    16    17    1
     2    17    15    1
     3    15     9    1
     4     9    10   ar
     5    10    11   ar
     6    11    12   ar
     7    12     8    1
     8     8     7    1
     9     7     4    1
    10     4     5    1
    11     4     3    1
    12     3     1    1
    13     1     2    1
    14     1    18    1
    15    18    19    1
    16    19    20   ar
    17    20    21    1
    18    20    22   ar
    19    22    23   ar
    20    23    26    1
    21    26    27    1
    22    27    28   ar
    23    28    29   ar
    24    29    30   ar
    25    30    31   ar
    26    31    32   ar
    27    32    33    1
    28    23    24   ar
    29    24    25    1
    30    12    13   ar
    31    13    14   ar
    32    14     9   ar
    33    24    19   ar
    34    32    27   ar
    35     5     6    1
@<TRIPOS>MOLECULE
*****
 33 35 0 0 0
SMALL
GASTEIGER

@<TRIPOS>ATOM
      1 N         -10.5382  -19.0593   19.9703 N.3     1  UNL1       -0.2655
      2 C         -10.8412  -20.0166   21.0847 C.3     1  UNL1        0.0900
      3 C         -11.4374  -17.8837   19.7262 C.3     1  UNL1        0.1059
      4 C         -11.2118  -16.6000   20.4686 C.3     1  UNL1        0.1700
      5 O         -10.4570  -15.4794   19.8170 O.3     1  UNL1       -0.3793
      6 H         -10.1875  -15.7472   18.9245 H       1  UNL1        0.2106
      7 C         -11.7409  -16.4368   21.8627 C.3     1  UNL1        0.2358
      8 O         -11.4265  -17.4644   22.9092 O.3     1  UNL1       -0.4728
      9 C          -8.4376  -16.5401   26.1438 C.ar    1  UNL1        0.1388
     10 C          -9.1750  -17.8462   26.1550 C.ar    1  UNL1        0.0400
     11 C         -10.1713  -18.1543   25.0768 C.ar    1  UNL1        0.0400
     12 C         -10.4302  -17.1563   23.9874 C.ar    1  UNL1        0.1389
     13 C          -9.6928  -15.8501   23.9762 C.ar    1  UNL1        0.0400
     14 C          -8.6965  -15.5421   25.0544 C.ar    1  UNL1        0.0400
     15 O          -7.4413  -16.2320   27.2220 O.3     1  UNL1       -0.4755
     16 C          -5.2381  -15.5547   26.0233 C.3     1  UNL1        0.0512
     17 C          -6.3527  -15.2305   26.9733 C.3     1  UNL1        0.2055
     18 C          -9.3361  -19.2775   19.1001 C.3     1  UNL1        0.1016
     19 C          -8.0795  -19.8493   19.6866 C.ar    1  UNL1        0.0223
     20 C          -7.4134  -21.1268   19.2690 C.ar    1  UNL1        0.0774
     21 C          -7.8869  -22.0568   18.1916 C.3     1  UNL1        0.0537
     22 N          -6.1905  -21.3110   20.1180 N.ar    1  UNL1       -0.1740
     23 N          -6.1009  -20.1473   21.0603 N.ar    1  UNL1       -0.2510
     24 C          -7.2683  -19.2439   20.7937 C.ar    1  UNL1        0.0548
     25 C          -7.5713  -17.9606   21.5086 C.3     1  UNL1        0.0515
     26 C          -5.0316  -19.9259   22.0887 C.3     1  UNL1        0.1542
     27 C          -4.0724  -18.7824   21.9391 C.ar    1  UNL1        0.0127
     28 C          -3.9864  -17.7313   23.0058 C.ar    1  UNL1       -0.0015
     29 C          -3.0272  -16.5877   22.8562 C.ar    1  UNL1       -0.0002
     30 C          -2.1541  -16.4953   21.6400 C.ar    1  UNL1        0.0008
     31 C          -2.2402  -17.5463   20.5734 C.ar    1  UNL1        0.0111
     32 C          -3.1993  -18.6899   20.7229 C.ar    1  UNL1        0.0556
     33 CL         -3.2854  -19.7410   19.6563 Cl      1  UNL1       -0.0825
@<TRIPOS>BOND
     1    16    17    1
     2    17    15    1
     3    15     9    1
     4     9    10   ar
     5    10    11   ar
     6    11    12   ar
     7    12     8    1
     8     8     7    1
     9     7     4    1
    10     4     5    1
    11     4     3    1
    12     3     1    1
    13     1     2    1
    14     1    18    1
    15    18    19    1
    16    19    20   ar
    17    20    21    1
    18    20    22   ar
    19    22    23   ar
    20    23    26    1
    21    26    27    1
    22    27    28   ar
    23    28    29   ar
    24    29    30   ar
    25    30    31   ar
    26    31    32   ar
    27    32    33    1
    28    23    24   ar
    29    24    25    1
    30    12    13   ar
    31    13    14   ar
    32    14     9   ar
    33    24    19   ar
    34    32    27   ar
    35     5     6    1
@<TRIPOS>MOLECULE
*****
 33 35 0 0 0
SMALL
GASTEIGER

@<TRIPOS>ATOM
      1 N          -8.8822  -16.4702   25.2937 N.3     1  UNL1       -0.2655
      2 C          -8.7088  -16.6931   26.7669 C.3     1  UNL1        0.0900
      3 C         -10.0947  -17.0060   24.5917 C.3     1  UNL1        0.1059
      4 C         -10.6306  -18.3608   24.9487 C.3     1  UNL1        0.1700
      5 O          -9.7532  -19.3526   25.6533 O.3     1  UNL1       -0.3793
      6 H          -8.8780  -18.9617   25.8019 H       1  UNL1        0.2106
      7 C         -12.0439  -18.7237   24.6011 C.3     1  UNL1        0.2358
      8 O         -12.5966  -18.3773   23.2504 O.3     1  UNL1       -0.4728
      9 C         -10.2263  -19.3134   19.5416 C.ar    1  UNL1        0.1388
     10 C         -10.2900  -20.3086   20.6621 C.ar    1  UNL1        0.0400
     11 C         -11.0801  -19.9965   21.8983 C.ar    1  UNL1        0.0400
     12 C         -11.8065  -18.6893   22.0141 C.ar    1  UNL1        0.1389
     13 C         -11.7428  -17.6941   20.8936 C.ar    1  UNL1        0.0400
     14 C         -10.9527  -18.0062   19.6574 C.ar    1  UNL1        0.0400
     15 O          -9.4361  -19.6254   18.3053 O.3     1  UNL1       -0.4755
     16 C          -9.2343  -21.4937   16.5112 C.3     1  UNL1        0.0512
     17 C          -9.1444  -21.0511   17.9416 C.3     1  UNL1        0.2055
     18 C          -7.8431  -15.7115   24.5225 C.3     1  UNL1        0.1016
     19 C          -6.7219  -16.4473   23.8505 C.ar    1  UNL1        0.0223
     20 C          -6.8503  -17.3583   22.6659 C.ar    1  UNL1        0.0774
     21 C          -8.1224  -17.6936   21.9452 C.3     1  UNL1        0.0537
     22 N          -5.4833  -17.8753   22.3283 N.ar    1  UNL1       -0.1740
     23 N          -4.5100  -17.2838   23.3044 N.ar    1  UNL1       -0.2510
     24 C          -5.2755  -16.4011   24.2452 C.ar    1  UNL1        0.0548
     25 C          -4.6963  -15.6112   25.3811 C.3     1  UNL1        0.0515
     26 C          -3.0308  -17.5313   23.3345 C.3     1  UNL1        0.1542
     27 C          -2.2571  -17.6089   22.0518 C.ar    1  UNL1        0.0127
     28 C          -1.5243  -16.4027   21.5438 C.ar    1  UNL1       -0.0015
     29 C          -0.7506  -16.4802   20.2611 C.ar    1  UNL1       -0.0002
     30 C          -0.7097  -17.7640   19.4863 C.ar    1  UNL1        0.0008
     31 C          -1.4425  -18.9702   19.9943 C.ar    1  UNL1        0.0111
     32 C          -2.2162  -18.8926   21.2770 C.ar    1  UNL1        0.0556
     33 CL         -2.9490  -20.0988   21.7850 Cl      1  UNL1       -0.0825
@<TRIPOS>BOND
     1    16    17    1
     2    17    15    1
     3    15     9    1
     4     9    10   ar
     5    10    11   ar
     6    11    12   ar
     7    12     8    1
     8     8     7    1
     9     7     4    1
    10     4     5    1
    11     4     3    1
    12     3     1    1
    13     1     2    1
    14     1    18    1
    15    18    19    1
    16    19    20   ar
    17    20    21    1
    18    20    22   ar
    19    22    23   ar
    20    23    26    1
    21    26    27    1
    22    27    28   ar
    23    28    29   ar
    24    29    30   ar
    25    30    31   ar
    26    31    32   ar
    27    32    33    1
    28    23    24   ar
    29    24    25    1
    30    12    13   ar
    31    13    14   ar
    32    14     9   ar
    33    24    19   ar
    34    32    27   ar
    35     5     6    1
