@<TRIPOS>MOLECULE
*****
 35 40 0 0 0
SMALL
GASTEIGER

@<TRIPOS>ATOM
      1 C           7.0274   -2.0172   19.8265 C.ar    1  UNL1        0.1534
      2 N           8.1480   -1.9323   18.8331 N.ar    1  UNL1       -0.1329
      3 N           9.4020   -2.7270   19.0473 N.ar    1  UNL1       -0.1452
      4 C           9.5353   -3.6067   20.2549 C.ar    1  UNL1        0.1222
      5 C           8.4147   -3.6916   21.2483 C.ar    1  UNL1        0.0237
      6 C           8.5480   -4.5713   22.4560 C.ar    1  UNL1        0.0018
      7 C           7.4274   -4.6562   23.4494 C.ar    1  UNL1        0.0028
      8 C           6.1733   -3.8614   23.2352 C.ar    1  UNL1        0.0002
      9 C           6.0400   -2.9817   22.0276 C.ar    1  UNL1        0.0029
     10 C           7.1607   -2.8969   21.0341 C.ar    1  UNL1        0.0349
     11 C           1.9170    2.5673   19.4852 C.3     1  UNL1        0.0948
     12 C           2.0114    1.1618   18.9698 C.2     1  UNL1        0.2262
     13 O           0.8518    0.5511   18.2402 O.2     1  UNL1       -0.2749
     14 N           3.2654    0.3671   19.1840 N.am    1  UNL1       -0.2761
     15 C           4.4250    0.9779   19.9135 C.3     1  UNL1        0.1149
     16 C           5.6790    0.1831   20.1277 C.3     1  UNL1        0.1137
     17 N           5.7734   -1.2224   19.6123 N.pl3   1  UNL1       -0.2900
     18 C           4.6138   -1.8332   18.8827 C.3     1  UNL1        0.0941
     19 C           4.7082   -3.2387   18.3673 C.3     1  UNL1        0.0233
     20 C           3.3598   -1.0384   18.6686 C.3     1  UNL1        0.1131
     21 C           7.5607   -5.5359   24.6570 C.ar    1  UNL1        0.0333
     22 C           8.1714   -6.8998   24.5277 C.ar    1  UNL1       -0.0188
     23 C           8.6488   -7.3840   23.1907 C.3     1  UNL1        0.0311
     24 C           8.3047   -7.7795   25.7353 C.ar    1  UNL1       -0.0040
     25 C           7.8273   -7.2953   27.0723 C.ar    1  UNL1        0.0057
     26 C           7.2166   -5.9313   27.2017 C.ar    1  UNL1        0.0717
     27 C           6.6603   -5.1883   28.3801 C.ar    1  UNL1        0.1704
     28 N           6.1832   -3.8495   27.9007 N.ar    1  UNL1       -0.0621
     29 O           6.4446   -3.7650   26.4261 O.2     1  UNL1       -0.3522
     30 C           7.0833   -5.0516   25.9941 C.ar    1  UNL1        0.1777
     31 N           6.5930   -5.6952   29.7902 N.pl3   1  UNL1       -0.3171
     32 H           6.3362   -6.6293   29.9658 H       1  UNL1        0.1482
     33 C           6.9170   -4.7790   30.9328 C.3     1  UNL1        0.0706
     34 C           7.8787   -3.8650   31.6326 C.3     1  UNL1        0.0212
     35 C           6.5164   -4.1060   32.2122 C.3     1  UNL1        0.0212
@<TRIPOS>BOND
     1    11    12    1
     2    12    13    2
     3    12    14   am
     4    14    15    1
     5    15    16    1
     6    16    17    1
     7    17     1    1
     8     1     2   ar
     9     2     3   ar
    10     3     4   ar
    11     4     5   ar
    12     5     6   ar
    13     6     7   ar
    14     7    21    1
    15    21    22   ar
    16    22    23    1
    17    22    24   ar
    18    24    25   ar
    19    25    26   ar
    20    26    27   ar
    21    27    31    1
    22    31    33    1
    23    33    34    1
    24    34    35    1
    25    27    28   ar
    26    28    29   ar
    27    29    30   ar
    28     7     8   ar
    29     8     9   ar
    30     9    10   ar
    31    17    18    1
    32    18    19    1
    33    18    20    1
    34    20    14    1
    35    10     1   ar
    36    10     5   ar
    37    30    21   ar
    38    30    26   ar
    39    35    33    1
    40    31    32    1
@<TRIPOS>MOLECULE
*****
 35 40 0 0 0
SMALL
GASTEIGER

@<TRIPOS>ATOM
      1 C          -3.9407    5.0490   18.5387 C.ar    1  UNL1        0.1534
      2 N          -4.4640    5.5492   17.2250 N.ar    1  UNL1       -0.1329
      3 N          -3.6280    5.4197   15.9864 N.ar    1  UNL1       -0.1452
      4 C          -2.2686    4.7900   16.0614 C.ar    1  UNL1        0.1222
      5 C          -1.7453    4.2897   17.3751 C.ar    1  UNL1        0.0237
      6 C          -0.3860    3.6600   17.4502 C.ar    1  UNL1        0.0018
      7 C           0.1373    3.1598   18.7639 C.ar    1  UNL1        0.0028
      8 C          -0.6987    3.2893   20.0026 C.ar    1  UNL1        0.0002
      9 C          -2.0580    3.9190   19.9276 C.ar    1  UNL1        0.0029
     10 C          -2.5813    4.4193   18.6138 C.ar    1  UNL1        0.0349
     11 C          -6.9897    6.6509   24.4874 C.3     1  UNL1        0.0948
     12 C          -7.2847    5.5670   23.4934 C.2     1  UNL1        0.2262
     13 O          -8.4157    4.6125   23.7381 O.2     1  UNL1       -0.2749
     14 N          -6.4487    5.4375   22.2548 N.am    1  UNL1       -0.2761
     15 C          -5.3177    6.3920   22.0101 C.3     1  UNL1        0.1149
     16 C          -4.4817    6.2624   20.7714 C.3     1  UNL1        0.1137
     17 N          -4.7767    5.1785   19.7774 N.pl3   1  UNL1       -0.2900
     18 C          -5.9077    4.2241   20.0221 C.3     1  UNL1        0.0941
     19 C          -6.2027    3.1401   19.0280 C.3     1  UNL1        0.0233
     20 C          -6.7437    4.3536   21.2607 C.3     1  UNL1        0.1131
     21 C           1.4967    2.5300   18.8390 C.ar    1  UNL1        0.0333
     22 C           2.7085    3.3097   18.4223 C.ar    1  UNL1       -0.0188
     23 C           2.5610    4.7190   17.9306 C.3     1  UNL1        0.0311
     24 C           4.0678    2.6799   18.4974 C.ar    1  UNL1       -0.0040
     25 C           4.2153    1.2705   18.9891 C.ar    1  UNL1        0.0057
     26 C           3.0035    0.4908   19.4058 C.ar    1  UNL1        0.0717
     27 C           2.8391   -0.9058   19.9278 C.ar    1  UNL1        0.1704
     28 N           1.3782   -1.1392   20.1753 N.ar    1  UNL1       -0.0621
     29 O           0.6397    0.1131   19.8063 O.2     1  UNL1       -0.3522
     30 C           1.6441    1.1206   19.3307 C.ar    1  UNL1        0.1777
     31 N           3.9420   -1.8953   20.1612 N.pl3   1  UNL1       -0.3171
     32 H           4.6915   -1.6655   20.7568 H       1  UNL1        0.1482
     33 C           3.9030   -3.2348   19.4873 C.3     1  UNL1        0.0706
     34 C           4.5812   -4.3058   18.6854 C.3     1  UNL1        0.0212
     35 C           3.1572   -4.4839   19.1219 C.3     1  UNL1        0.0212
@<TRIPOS>BOND
     1    11    12    1
     2    12    13    2
     3    12    14   am
     4    14    15    1
     5    15    16    1
     6    16    17    1
     7    17     1    1
     8     1     2   ar
     9     2     3   ar
    10     3     4   ar
    11     4     5   ar
    12     5     6   ar
    13     6     7   ar
    14     7    21    1
    15    21    22   ar
    16    22    23    1
    17    22    24   ar
    18    24    25   ar
    19    25    26   ar
    20    26    27   ar
    21    27    31    1
    22    31    33    1
    23    33    34    1
    24    34    35    1
    25    27    28   ar
    26    28    29   ar
    27    29    30   ar
    28     7     8   ar
    29     8     9   ar
    30     9    10   ar
    31    17    18    1
    32    18    19    1
    33    18    20    1
    34    20    14    1
    35    10     1   ar
    36    10     5   ar
    37    30    21   ar
    38    30    26   ar
    39    35    33    1
    40    31    32    1
@<TRIPOS>MOLECULE
*****
 35 40 0 0 0
SMALL
GASTEIGER

@<TRIPOS>ATOM
      1 C           0.2460    4.2043   18.6481 C.ar    1  UNL1        0.1534
      2 N           0.9064    5.4885   18.2423 N.ar    1  UNL1       -0.1329
      3 N           2.3868    5.5278   18.0039 N.ar    1  UNL1       -0.1452
      4 C           3.2068    4.2830   18.1713 C.ar    1  UNL1        0.1222
      5 C           2.5464    2.9988   18.5771 C.ar    1  UNL1        0.0237
      6 C           3.3663    1.7540   18.7445 C.ar    1  UNL1        0.0018
      7 C           2.7059    0.4698   19.1503 C.ar    1  UNL1        0.0028
      8 C           1.2254    0.4304   19.3887 C.ar    1  UNL1        0.0002
      9 C           0.4055    1.6753   19.2213 C.ar    1  UNL1        0.0029
     10 C           1.0660    2.9595   18.8155 C.ar    1  UNL1        0.0349
     11 C          -6.2121    4.1137   21.0007 C.3     1  UNL1        0.0948
     12 C          -5.6757    4.0468   19.6015 C.2     1  UNL1        0.2262
     13 O          -6.6197    3.9406   18.4407 O.2     1  UNL1       -0.2749
     14 N          -4.1953    4.0862   19.3632 N.am    1  UNL1       -0.2761
     15 C          -3.2513    4.1924   20.5241 C.3     1  UNL1        0.1149
     16 C          -1.7708    4.2318   20.2857 C.3     1  UNL1        0.1137
     17 N          -1.2345    4.1650   18.8865 N.pl3   1  UNL1       -0.2900
     18 C          -2.1785    4.0588   17.7256 C.3     1  UNL1        0.0941
     19 C          -1.6420    3.9919   16.3264 C.3     1  UNL1        0.0233
     20 C          -3.6588    4.0194   17.9640 C.3     1  UNL1        0.1131
     21 C           3.5259   -0.7750   19.3177 C.ar    1  UNL1        0.0333
     22 C           4.0748   -1.4793   18.1124 C.ar    1  UNL1       -0.0188
     23 C           3.8037   -0.9387   16.7398 C.3     1  UNL1        0.0311
     24 C           4.8947   -2.7241   18.2798 C.ar    1  UNL1       -0.0040
     25 C           5.1658   -3.2647   19.6525 C.ar    1  UNL1        0.0057
     26 C           4.6169   -2.5605   20.8578 C.ar    1  UNL1        0.0717
     27 C           4.7177   -2.8553   22.3251 C.ar    1  UNL1        0.1704
     28 N           3.9600   -1.7927   23.0645 N.ar    1  UNL1       -0.0621
     29 O           3.3910   -0.8411   22.0543 O.2     1  UNL1       -0.3522
     30 C           3.7969   -1.3156   20.6904 C.ar    1  UNL1        0.1777
     31 N           5.4479   -4.0100   22.9443 N.pl3   1  UNL1       -0.3171
     32 H           5.4745   -4.8796   22.4836 H       1  UNL1        0.1482
     33 C           6.1377   -3.8397   24.2653 C.3     1  UNL1        0.0706
     34 C           6.9120   -4.4211   25.4110 C.3     1  UNL1        0.0212
     35 C           6.5582   -2.9634   25.4078 C.3     1  UNL1        0.0212
@<TRIPOS>BOND
     1    11    12    1
     2    12    13    2
     3    12    14   am
     4    14    15    1
     5    15    16    1
     6    16    17    1
     7    17     1    1
     8     1     2   ar
     9     2     3   ar
    10     3     4   ar
    11     4     5   ar
    12     5     6   ar
    13     6     7   ar
    14     7    21    1
    15    21    22   ar
    16    22    23    1
    17    22    24   ar
    18    24    25   ar
    19    25    26   ar
    20    26    27   ar
    21    27    31    1
    22    31    33    1
    23    33    34    1
    24    34    35    1
    25    27    28   ar
    26    28    29   ar
    27    29    30   ar
    28     7     8   ar
    29     8     9   ar
    30     9    10   ar
    31    17    18    1
    32    18    19    1
    33    18    20    1
    34    20    14    1
    35    10     1   ar
    36    10     5   ar
    37    30    21   ar
    38    30    26   ar
    39    35    33    1
    40    31    32    1
@<TRIPOS>MOLECULE
*****
 35 40 0 0 0
SMALL
GASTEIGER

@<TRIPOS>ATOM
      1 C           3.8504    1.7523   18.6158 C.ar    1  UNL1        0.1534
      2 N           5.0415    2.6266   18.3571 N.ar    1  UNL1       -0.1329
      3 N           4.8500    4.0791   18.0355 N.ar    1  UNL1       -0.1452
      4 C           3.4673    4.6574   17.9726 C.ar    1  UNL1        0.1222
      5 C           2.2762    3.7831   18.2313 C.ar    1  UNL1        0.0237
      6 C           0.8936    4.3614   18.1683 C.ar    1  UNL1        0.0018
      7 C          -0.2975    3.4871   18.4270 C.ar    1  UNL1        0.0028
      8 C          -0.1060    2.0345   18.7486 C.ar    1  UNL1        0.0002
      9 C           1.2767    1.4563   18.8115 C.ar    1  UNL1        0.0029
     10 C           2.4678    2.3306   18.5528 C.ar    1  UNL1        0.0349
     11 C           4.6455   -5.0730   18.7983 C.3     1  UNL1        0.0948
     12 C           4.6164   -4.0579   19.9022 C.2     1  UNL1        0.2262
     13 O           4.7789   -4.4953   21.3278 O.2     1  UNL1       -0.2749
     14 N           4.4249   -2.6054   19.5806 N.am    1  UNL1       -0.2761
     15 C           4.2625   -2.1679   18.1550 C.3     1  UNL1        0.1149
     16 C           4.0710   -0.7153   17.8334 C.3     1  UNL1        0.1137
     17 N           4.0419    0.2997   18.9374 N.pl3   1  UNL1       -0.2900
     18 C           4.2044   -0.1377   20.3629 C.3     1  UNL1        0.0941
     19 C           4.1753    0.8775   21.4669 C.3     1  UNL1        0.0233
     20 C           4.3959   -1.5902   20.6846 C.3     1  UNL1        0.1131
     21 C          -1.6801    4.0654   18.3641 C.ar    1  UNL1        0.0333
     22 C          -2.0642    4.9691   17.2302 C.ar    1  UNL1       -0.0188
     23 C          -1.0657    5.2945   16.1592 C.3     1  UNL1        0.0311
     24 C          -3.4468    5.5473   17.1673 C.ar    1  UNL1       -0.0040
     25 C          -4.4453    5.2219   18.2383 C.ar    1  UNL1        0.0057
     26 C          -4.0613    4.3181   19.3722 C.ar    1  UNL1        0.0717
     27 C          -4.8259    3.8219   20.5635 C.ar    1  UNL1        0.1704
     28 N          -3.9158    2.9370   21.3626 N.ar    1  UNL1       -0.0621
     29 O          -2.5888    2.8863   20.6653 O.2     1  UNL1       -0.3522
     30 C          -2.6786    3.7399   19.4351 C.ar    1  UNL1        0.1777
     31 N          -6.2504    4.1526   20.8970 N.pl3   1  UNL1       -0.3171
     32 H          -6.9134    4.2559   20.1766 H       1  UNL1        0.1482
     33 C          -6.6649    4.3259   22.3282 C.3     1  UNL1        0.0706
     34 C          -7.7197    4.6461   23.3455 C.3     1  UNL1        0.0212
     35 C          -6.3279    4.3059   23.7897 C.3     1  UNL1        0.0212
@<TRIPOS>BOND
     1    11    12    1
     2    12    13    2
     3    12    14   am
     4    14    15    1
     5    15    16    1
     6    16    17    1
     7    17     1    1
     8     1     2   ar
     9     2     3   ar
    10     3     4   ar
    11     4     5   ar
    12     5     6   ar
    13     6     7   ar
    14     7    21    1
    15    21    22   ar
    16    22    23    1
    17    22    24   ar
    18    24    25   ar
    19    25    26   ar
    20    26    27   ar
    21    27    31    1
    22    31    33    1
    23    33    34    1
    24    34    35    1
    25    27    28   ar
    26    28    29   ar
    27    29    30   ar
    28     7     8   ar
    29     8     9   ar
    30     9    10   ar
    31    17    18    1
    32    18    19    1
    33    18    20    1
    34    20    14    1
    35    10     1   ar
    36    10     5   ar
    37    30    21   ar
    38    30    26   ar
    39    35    33    1
    40    31    32    1
@<TRIPOS>MOLECULE
*****
 35 40 0 0 0
SMALL
GASTEIGER

@<TRIPOS>ATOM
      1 C           6.0248    1.6571   35.4046 C.ar    1  UNL1        0.1534
      2 N           7.2167    2.5015   35.7456 N.ar    1  UNL1       -0.1329
      3 N           8.4294    2.4784   34.8632 N.ar    1  UNL1       -0.1452
      4 C           8.4503    1.6108   33.6397 C.ar    1  UNL1        0.1222
      5 C           7.2584    0.7663   33.2987 C.ar    1  UNL1        0.0237
      6 C           7.2793   -0.1013   32.0753 C.ar    1  UNL1        0.0018
      7 C           6.0874   -0.9457   31.7342 C.ar    1  UNL1        0.0028
      8 C           4.8746   -0.9226   32.6167 C.ar    1  UNL1        0.0002
      9 C           4.8538   -0.0550   33.8401 C.ar    1  UNL1        0.0029
     10 C           6.0457    0.7895   34.1811 C.ar    1  UNL1        0.0349
     11 C           0.9929    0.6979   39.9882 C.3     1  UNL1        0.0948
     12 C           1.1737    1.7497   38.9342 C.2     1  UNL1        0.2262
     13 O           0.1418    2.8247   38.7626 O.2     1  UNL1       -0.2749
     14 N           2.3865    1.7266   38.0518 N.am    1  UNL1       -0.2761
     15 C           3.4184    0.6515   38.2234 C.3     1  UNL1        0.1149
     16 C           4.6312    0.6284   37.3410 C.3     1  UNL1        0.1137
     17 N           4.8120    1.6802   36.2870 N.pl3   1  UNL1       -0.2900
     18 C           3.7801    2.7553   36.1154 C.3     1  UNL1        0.0941
     19 C           3.9610    3.8071   35.0614 C.3     1  UNL1        0.0233
     20 C           2.5673    2.7784   36.9978 C.3     1  UNL1        0.1131
     21 C           6.1083   -1.8133   30.5108 C.ar    1  UNL1        0.0333
     22 C           5.6671   -1.2572   29.1894 C.ar    1  UNL1       -0.0188
     23 C           5.2050    0.1664   29.0915 C.3     1  UNL1        0.0311
     24 C           5.6879   -2.1248   27.9660 C.ar    1  UNL1       -0.0040
     25 C           6.1500   -3.5485   28.0639 C.ar    1  UNL1        0.0057
     26 C           6.5913   -4.1046   29.3853 C.ar    1  UNL1        0.0717
     27 C           7.0937   -5.4598   29.7866 C.ar    1  UNL1        0.1704
     28 N           7.3834   -5.4297   31.2580 N.ar    1  UNL1       -0.0621
     29 O           7.0600   -4.0560   31.7662 O.2     1  UNL1       -0.3522
     30 C           6.5704   -3.2370   30.6088 C.ar    1  UNL1        0.1777
     31 N           7.2747   -6.6381   28.8762 N.pl3   1  UNL1       -0.3171
     32 H           7.0067   -7.5370   29.1753 H       1  UNL1        0.1482
     33 C           7.8641   -6.4470   27.5102 C.3     1  UNL1        0.0706
     34 C           7.9477   -6.8395   26.0649 C.3     1  UNL1        0.0212
     35 C           8.8014   -5.7233   26.5894 C.3     1  UNL1        0.0212
@<TRIPOS>BOND
     1    11    12    1
     2    12    13    2
     3    12    14   am
     4    14    15    1
     5    15    16    1
     6    16    17    1
     7    17     1    1
     8     1     2   ar
     9     2     3   ar
    10     3     4   ar
    11     4     5   ar
    12     5     6   ar
    13     6     7   ar
    14     7    21    1
    15    21    22   ar
    16    22    23    1
    17    22    24   ar
    18    24    25   ar
    19    25    26   ar
    20    26    27   ar
    21    27    31    1
    22    31    33    1
    23    33    34    1
    24    34    35    1
    25    27    28   ar
    26    28    29   ar
    27    29    30   ar
    28     7     8   ar
    29     8     9   ar
    30     9    10   ar
    31    17    18    1
    32    18    19    1
    33    18    20    1
    34    20    14    1
    35    10     1   ar
    36    10     5   ar
    37    30    21   ar
    38    30    26   ar
    39    35    33    1
    40    31    32    1
@<TRIPOS>MOLECULE
*****
 35 40 0 0 0
SMALL
GASTEIGER

@<TRIPOS>ATOM
      1 C          -0.9597    5.6086   21.6549 C.ar    1  UNL1        0.1534
      2 N          -0.2809    6.9317   21.8514 N.ar    1  UNL1       -0.1329
      3 N           1.2109    6.9954   21.9943 N.ar    1  UNL1       -0.1452
      4 C           2.0239    5.7359   21.9407 C.ar    1  UNL1        0.1222
      5 C           1.3451    4.4129   21.7442 C.ar    1  UNL1        0.0237
      6 C           2.1581    3.1534   21.6906 C.ar    1  UNL1        0.0018
      7 C           1.4793    1.8304   21.4940 C.ar    1  UNL1        0.0028
      8 C          -0.0125    1.7667   21.3511 C.ar    1  UNL1        0.0002
      9 C          -0.8255    3.0261   21.4047 C.ar    1  UNL1        0.0029
     10 C          -0.1467    4.3492   21.6013 C.ar    1  UNL1        0.0349
     11 C          -7.5534    5.4174   19.7219 C.3     1  UNL1        0.0948
     12 C          -6.9270    5.3538   21.0833 C.2     1  UNL1        0.2262
     13 O          -7.7924    5.2266   22.3019 O.2     1  UNL1       -0.2749
     14 N          -5.4352    5.4175   21.2262 N.am    1  UNL1       -0.2761
     15 C          -4.5698    5.5448   20.0076 C.3     1  UNL1        0.1149
     16 C          -3.0779    5.6085   20.1505 C.3     1  UNL1        0.1137
     17 N          -2.4515    5.5449   21.5119 N.pl3   1  UNL1       -0.2900
     18 C          -3.3169    5.4177   22.7305 C.3     1  UNL1        0.0941
     19 C          -2.6905    5.3542   24.0920 C.3     1  UNL1        0.0233
     20 C          -4.8087    5.3540   22.5876 C.3     1  UNL1        0.1131
     21 C           2.2923    0.5709   21.4404 C.ar    1  UNL1        0.0333
     22 C           2.6357   -0.1546   22.7076 C.ar    1  UNL1       -0.0188
     23 C           2.1661    0.3793   24.0283 C.3     1  UNL1        0.0311
     24 C           3.4487   -1.4140   22.6539 C.ar    1  UNL1       -0.0040
     25 C           3.9183   -1.9479   21.3332 C.ar    1  UNL1        0.0057
     26 C           3.5749   -1.2224   20.0660 C.ar    1  UNL1        0.0717
     27 C           3.8955   -1.5063   18.6284 C.ar    1  UNL1        0.1704
     28 N           3.2806   -0.4224   17.7936 N.ar    1  UNL1       -0.0621
     29 O           2.5800    0.5314   18.7151 O.2     1  UNL1       -0.3522
     30 C           2.7619    0.0370   20.1196 C.ar    1  UNL1        0.1777
     31 N           4.6912   -2.6700   18.1157 N.pl3   1  UNL1       -0.3171
     32 H           5.3964   -2.5263   17.4440 H       1  UNL1        0.1482
     33 C           4.4124   -4.0525   18.6266 C.3     1  UNL1        0.0706
     34 C           3.5970   -4.9849   19.4725 C.3     1  UNL1        0.0212
     35 C           4.7451   -5.5146   18.6654 C.3     1  UNL1        0.0212
@<TRIPOS>BOND
     1    11    12    1
     2    12    13    2
     3    12    14   am
     4    14    15    1
     5    15    16    1
     6    16    17    1
     7    17     1    1
     8     1     2   ar
     9     2     3   ar
    10     3     4   ar
    11     4     5   ar
    12     5     6   ar
    13     6     7   ar
    14     7    21    1
    15    21    22   ar
    16    22    23    1
    17    22    24   ar
    18    24    25   ar
    19    25    26   ar
    20    26    27   ar
    21    27    31    1
    22    31    33    1
    23    33    34    1
    24    34    35    1
    25    27    28   ar
    26    28    29   ar
    27    29    30   ar
    28     7     8   ar
    29     8     9   ar
    30     9    10   ar
    31    17    18    1
    32    18    19    1
    33    18    20    1
    34    20    14    1
    35    10     1   ar
    36    10     5   ar
    37    30    21   ar
    38    30    26   ar
    39    35    33    1
    40    31    32    1
@<TRIPOS>MOLECULE
*****
 35 40 0 0 0
SMALL
GASTEIGER

@<TRIPOS>ATOM
      1 C           8.1584   -3.0469   23.5400 C.ar    1  UNL1        0.1534
      2 N           9.4435   -2.5886   22.9169 N.ar    1  UNL1       -0.1329
      3 N           9.4282   -1.5140   21.8704 N.ar    1  UNL1       -0.1452
      4 C           8.1278   -0.8979   21.4471 C.ar    1  UNL1        0.1222
      5 C           6.8427   -1.3562   22.0702 C.ar    1  UNL1        0.0237
      6 C           5.5422   -0.7400   21.6469 C.ar    1  UNL1        0.0018
      7 C           4.2571   -1.1984   22.2701 C.ar    1  UNL1        0.0028
      8 C           4.2724   -2.2730   23.3166 C.ar    1  UNL1        0.0002
      9 C           5.5728   -2.8892   23.7399 C.ar    1  UNL1        0.0029
     10 C           6.8580   -2.4307   23.1167 C.ar    1  UNL1        0.0349
     11 C           8.0720   -8.7834   27.3263 C.3     1  UNL1        0.0948
     12 C           8.2195   -7.3451   27.7259 C.2     1  UNL1        0.2262
     13 O           8.3822   -6.9814   29.1720 O.2     1  UNL1       -0.2749
     14 N           8.2042   -6.2706   26.6795 N.am    1  UNL1       -0.2761
     15 C           8.0414   -6.6343   25.2334 C.3     1  UNL1        0.1149
     16 C           8.0262   -5.5597   24.1869 C.3     1  UNL1        0.1137
     17 N           8.1737   -4.1215   24.5865 N.pl3   1  UNL1       -0.2900
     18 C           8.3364   -3.7578   26.0326 C.3     1  UNL1        0.0941
     19 C           8.4839   -2.3195   26.4322 C.3     1  UNL1        0.0233
     20 C           8.3517   -4.8323   27.0791 C.3     1  UNL1        0.1131
     21 C           2.9567   -0.5822   21.8468 C.ar    1  UNL1        0.0333
     22 C           2.2982   -1.0213   20.5726 C.ar    1  UNL1       -0.0188
     23 C           2.9402   -2.0767   19.7217 C.3     1  UNL1        0.0311
     24 C           0.9978   -0.4051   20.1493 C.ar    1  UNL1       -0.0040
     25 C           0.3558    0.6502   21.0001 C.ar    1  UNL1        0.0057
     26 C           1.0142    1.0894   22.2744 C.ar    1  UNL1        0.0717
     27 C           0.6214    2.1005   23.3105 C.ar    1  UNL1        0.1704
     28 N           1.6791    2.1092   24.3740 N.ar    1  UNL1       -0.0621
     29 O           2.7255    1.1035   23.9954 O.2     1  UNL1       -0.3522
     30 C           2.3147    0.4732   22.6977 C.ar    1  UNL1        0.1777
     31 N          -0.6124    2.9532   23.2870 N.pl3   1  UNL1       -0.3171
     32 H          -0.8917    3.3920   22.4511 H       1  UNL1        0.1482
     33 C          -1.4207    3.1373   24.5371 C.3     1  UNL1        0.0706
     34 C          -2.7138    3.4974   25.2067 C.3     1  UNL1        0.0212
     35 C          -1.5277    3.0962   26.0327 C.3     1  UNL1        0.0212
@<TRIPOS>BOND
     1    11    12    1
     2    12    13    2
     3    12    14   am
     4    14    15    1
     5    15    16    1
     6    16    17    1
     7    17     1    1
     8     1     2   ar
     9     2     3   ar
    10     3     4   ar
    11     4     5   ar
    12     5     6   ar
    13     6     7   ar
    14     7    21    1
    15    21    22   ar
    16    22    23    1
    17    22    24   ar
    18    24    25   ar
    19    25    26   ar
    20    26    27   ar
    21    27    31    1
    22    31    33    1
    23    33    34    1
    24    34    35    1
    25    27    28   ar
    26    28    29   ar
    27    29    30   ar
    28     7     8   ar
    29     8     9   ar
    30     9    10   ar
    31    17    18    1
    32    18    19    1
    33    18    20    1
    34    20    14    1
    35    10     1   ar
    36    10     5   ar
    37    30    21   ar
    38    30    26   ar
    39    35    33    1
    40    31    32    1
@<TRIPOS>MOLECULE
*****
 35 40 0 0 0
SMALL
GASTEIGER

@<TRIPOS>ATOM
      1 C           6.4980   -2.9732   21.1905 C.ar    1  UNL1        0.1534
      2 N           7.4726   -3.6986   20.3110 N.ar    1  UNL1       -0.1329
      3 N           8.4812   -4.6289   20.9170 N.ar    1  UNL1       -0.1452
      4 C           8.5151   -4.8338   22.4026 C.ar    1  UNL1        0.1222
      5 C           7.5404   -4.1083   23.2821 C.ar    1  UNL1        0.0237
      6 C           7.5742   -4.3132   24.7677 C.ar    1  UNL1        0.0018
      7 C           6.5995   -3.5877   25.6472 C.ar    1  UNL1        0.0028
      8 C           5.5909   -2.6573   25.0412 C.ar    1  UNL1        0.0002
      9 C           5.5570   -2.4525   23.5556 C.ar    1  UNL1        0.0029
     10 C           6.5318   -3.1780   22.6761 C.ar    1  UNL1        0.0349
     11 C           2.7468    2.2194   18.6973 C.3     1  UNL1        0.0948
     12 C           2.4635    0.7481   18.7665 C.2     1  UNL1        0.2262
     13 O           1.1716    0.2070   18.2297 O.2     1  UNL1       -0.2749
     14 N           3.4721   -0.1822   19.3725 N.am    1  UNL1       -0.2761
     15 C           4.7640    0.3589   19.9093 C.3     1  UNL1        0.1149
     16 C           5.7727   -0.5715   20.5153 C.3     1  UNL1        0.1137
     17 N           5.4893   -2.0428   20.5845 N.pl3   1  UNL1       -0.2900
     18 C           4.1974   -2.5839   20.0477 C.3     1  UNL1        0.0941
     19 C           3.9141   -4.0553   20.1169 C.3     1  UNL1        0.0233
     20 C           3.1888   -1.6536   19.4417 C.3     1  UNL1        0.1131
     21 C           6.6334   -3.7925   27.1328 C.ar    1  UNL1        0.0333
     22 C           6.6843   -5.1812   27.6974 C.ar    1  UNL1       -0.0188
     23 C           6.7014   -6.3651   26.7765 C.3     1  UNL1        0.0311
     24 C           6.7182   -5.3861   29.1830 C.ar    1  UNL1       -0.0040
     25 C           6.7011   -4.2022   30.1039 C.ar    1  UNL1        0.0057
     26 C           6.6502   -2.8134   29.5393 C.ar    1  UNL1        0.0717
     27 C           6.6233   -1.4641   30.1939 C.ar    1  UNL1        0.1704
     28 N           6.5728   -0.4254   29.1130 N.ar    1  UNL1       -0.0621
     29 O           6.5685   -1.1327   27.7903 O.2     1  UNL1       -0.3522
     30 C           6.6163   -2.6086   28.0537 C.ar    1  UNL1        0.1777
     31 N           6.6434   -1.1999   31.6704 N.pl3   1  UNL1       -0.3171
     32 H           7.4241   -0.7637   32.0818 H       1  UNL1        0.1482
     33 C           5.4738   -1.6005   32.5199 C.3     1  UNL1        0.0706
     34 C           4.6405   -2.6697   33.1622 C.3     1  UNL1        0.0212
     35 C           4.2815   -1.2253   33.3491 C.3     1  UNL1        0.0212
@<TRIPOS>BOND
     1    11    12    1
     2    12    13    2
     3    12    14   am
     4    14    15    1
     5    15    16    1
     6    16    17    1
     7    17     1    1
     8     1     2   ar
     9     2     3   ar
    10     3     4   ar
    11     4     5   ar
    12     5     6   ar
    13     6     7   ar
    14     7    21    1
    15    21    22   ar
    16    22    23    1
    17    22    24   ar
    18    24    25   ar
    19    25    26   ar
    20    26    27   ar
    21    27    31    1
    22    31    33    1
    23    33    34    1
    24    34    35    1
    25    27    28   ar
    26    28    29   ar
    27    29    30   ar
    28     7     8   ar
    29     8     9   ar
    30     9    10   ar
    31    17    18    1
    32    18    19    1
    33    18    20    1
    34    20    14    1
    35    10     1   ar
    36    10     5   ar
    37    30    21   ar
    38    30    26   ar
    39    35    33    1
    40    31    32    1
@<TRIPOS>MOLECULE
*****
 35 40 0 0 0
SMALL
GASTEIGER

@<TRIPOS>ATOM
      1 C           1.2925    2.1732   30.5531 C.ar    1  UNL1        0.1534
      2 N           1.6197    0.7715   30.9749 N.ar    1  UNL1       -0.1329
      3 N           1.2739   -0.3812   30.0796 N.ar    1  UNL1       -0.1452
      4 C           0.6008   -0.1321   28.7624 C.ar    1  UNL1        0.1222
      5 C           0.2736    1.2697   28.3406 C.ar    1  UNL1        0.0237
      6 C          -0.3995    1.5188   27.0234 C.ar    1  UNL1        0.0018
      7 C          -0.7267    2.9205   26.6016 C.ar    1  UNL1        0.0028
      8 C          -0.3808    4.0733   27.4969 C.ar    1  UNL1        0.0002
      9 C           0.2923    3.8242   28.8141 C.ar    1  UNL1        0.0029
     10 C           0.6195    2.4223   29.2359 C.ar    1  UNL1        0.0349
     11 C           1.6766    7.2822   35.1358 C.3     1  UNL1        0.0948
     12 C           2.6761    6.7842   34.1344 C.2     1  UNL1        0.2262
     13 O           4.0215    7.4388   34.0283 O.2     1  UNL1       -0.2749
     14 N           2.3302    5.6315   33.2391 N.am    1  UNL1       -0.2761
     15 C           0.9848    4.9768   33.3452 C.3     1  UNL1        0.1149
     16 C           0.6389    3.8240   32.4499 C.3     1  UNL1        0.1137
     17 N           1.6384    3.3260   31.4484 N.pl3   1  UNL1       -0.2900
     18 C           2.9838    3.9807   31.3423 C.3     1  UNL1        0.0941
     19 C           3.9834    3.4826   30.3408 C.3     1  UNL1        0.0233
     20 C           3.3297    5.1334   32.2376 C.3     1  UNL1        0.1131
     21 C          -1.3997    3.1696   25.2844 C.ar    1  UNL1        0.0333
     22 C          -0.5998    3.1400   24.0159 C.ar    1  UNL1       -0.0188
     23 C           0.8733    2.8613   24.0646 C.3     1  UNL1        0.0311
     24 C          -1.2728    3.3891   22.6988 C.ar    1  UNL1       -0.0040
     25 C          -2.7459    3.6678   22.6501 C.ar    1  UNL1        0.0057
     26 C          -3.5459    3.6974   23.9186 C.ar    1  UNL1        0.0717
     27 C          -5.0021    3.9437   24.1814 C.ar    1  UNL1        0.1704
     28 N          -5.2289    3.8468   25.6609 N.ar    1  UNL1       -0.0621
     29 O          -3.9130    3.5407   26.3126 O.2     1  UNL1       -0.3522
     30 C          -2.8729    3.4483   25.2358 C.ar    1  UNL1        0.1777
     31 N          -6.0477    4.2356   23.1463 N.pl3   1  UNL1       -0.3171
     32 H          -5.9676    3.8511   22.2436 H       1  UNL1        0.1482
     33 C          -7.2155    5.1134   23.4867 C.3     1  UNL1        0.0706
     34 C          -8.4129    5.4093   24.3403 C.3     1  UNL1        0.0212
     35 C          -8.0407    6.3378   23.2226 C.3     1  UNL1        0.0212
@<TRIPOS>BOND
     1    11    12    1
     2    12    13    2
     3    12    14   am
     4    14    15    1
     5    15    16    1
     6    16    17    1
     7    17     1    1
     8     1     2   ar
     9     2     3   ar
    10     3     4   ar
    11     4     5   ar
    12     5     6   ar
    13     6     7   ar
    14     7    21    1
    15    21    22   ar
    16    22    23    1
    17    22    24   ar
    18    24    25   ar
    19    25    26   ar
    20    26    27   ar
    21    27    31    1
    22    31    33    1
    23    33    34    1
    24    34    35    1
    25    27    28   ar
    26    28    29   ar
    27    29    30   ar
    28     7     8   ar
    29     8     9   ar
    30     9    10   ar
    31    17    18    1
    32    18    19    1
    33    18    20    1
    34    20    14    1
    35    10     1   ar
    36    10     5   ar
    37    30    21   ar
    38    30    26   ar
    39    35    33    1
    40    31    32    1
