@<TRIPOS>MOLECULE
*****
 28 30 0 0 0
SMALL
GASTEIGER

@<TRIPOS>ATOM
      1 C          -8.7181  -18.8869   20.4896 C.2     1  UNL1       -0.0222
      2 C          -7.6271  -18.4974   21.4425 C.2     1  UNL1       -0.0040
      3 C          -6.2181  -18.9479   21.1942 C.ar    1  UNL1       -0.0003
      4 C          -5.6704  -18.9623   19.7978 C.ar    1  UNL1       -0.0000
      5 C          -4.2614  -19.4128   19.5495 C.ar    1  UNL1       -0.0000
      6 C          -3.4001  -19.8489   20.6975 C.ar    1  UNL1       -0.0000
      7 C          -3.9478  -19.8346   22.0938 C.ar    1  UNL1       -0.0000
      8 C          -5.3568  -19.3841   22.3421 C.ar    1  UNL1       -0.0000
      9 C          -7.9452  -17.6574   22.6439 C.ar    1  UNL1       -0.0001
     10 C          -8.7176  -18.2458   23.7872 C.ar    1  UNL1        0.0031
     11 C          -9.0356  -17.4058   24.9886 C.ar    1  UNL1        0.0369
     12 C          -8.5813  -15.9775   25.0467 C.ar    1  UNL1        0.1386
     13 C          -7.8089  -15.3891   23.9033 C.ar    1  UNL1        0.0369
     14 C          -7.4908  -16.2290   22.7019 C.ar    1  UNL1        0.0031
     15 O          -8.8994  -15.1375   26.2480 O.3     1  UNL1       -0.4740
     16 C          -7.9530  -15.1036   27.4113 C.3     1  UNL1        0.2226
     17 C          -6.7802  -16.0380   27.4516 C.3     1  UNL1        0.1201
     18 N          -5.5916  -15.7880   26.5714 N.3     1  UNL1       -0.2672
     19 C          -5.2329  -14.3862   26.1758 C.3     1  UNL1        0.0898
     20 C          -4.7616  -16.9396   26.0869 C.3     1  UNL1        0.0898
     21 C         -10.1271  -18.4363   20.7380 C.ar    1  UNL1       -0.0040
     22 C         -11.0467  -19.2762   21.5741 C.ar    1  UNL1       -0.0003
     23 C         -12.4557  -18.8256   21.8224 C.ar    1  UNL1       -0.0000
     24 C         -12.9451  -17.5353   21.2347 C.ar    1  UNL1       -0.0000
     25 C         -12.0256  -16.6955   20.3986 C.ar    1  UNL1       -0.0000
     26 C         -10.6166  -17.1460   20.1502 C.ar    1  UNL1       -0.0003
     27 C          -9.5047  -20.4063   18.5344 C.3     1  UNL1        0.0050
     28 C          -8.4000  -19.7268   19.2882 C.3     1  UNL1        0.0264
@<TRIPOS>BOND
     1    27    28    1
     2    28     1    1
     3     1     2    2
     4     2     3    1
     5     3     4   ar
     6     4     5   ar
     7     5     6   ar
     8     6     7   ar
     9     7     8   ar
    10     2     9    1
    11     9    10   ar
    12    10    11   ar
    13    11    12   ar
    14    12    15    1
    15    15    16    1
    16    16    17    1
    17    17    18    1
    18    18    19    1
    19    18    20    1
    20    12    13   ar
    21    13    14   ar
    22     1    21    1
    23    21    22   ar
    24    22    23   ar
    25    23    24   ar
    26    24    25   ar
    27    25    26   ar
    28     8     3   ar
    29    14     9   ar
    30    26    21   ar
@<TRIPOS>MOLECULE
*****
 28 30 0 0 0
SMALL
GASTEIGER

@<TRIPOS>ATOM
      1 C          -9.6851  -17.1539   23.7827 C.2     1  UNL1       -0.0222
      2 C          -8.8494  -17.6683   22.6482 C.2     1  UNL1       -0.0040
      3 C          -9.5072  -18.1321   21.3824 C.ar    1  UNL1       -0.0003
      4 C         -10.5352  -17.2699   20.7119 C.ar    1  UNL1       -0.0000
      5 C         -11.1929  -17.7336   19.4461 C.ar    1  UNL1       -0.0000
      6 C         -10.8225  -19.0597   18.8507 C.ar    1  UNL1       -0.0000
      7 C          -9.7944  -19.9219   19.5212 C.ar    1  UNL1       -0.0000
      8 C          -9.1368  -19.4581   20.7870 C.ar    1  UNL1       -0.0000
      9 C          -7.3560  -17.7190   22.7796 C.ar    1  UNL1       -0.0001
     10 C          -6.6102  -18.9595   22.3862 C.ar    1  UNL1        0.0031
     11 C          -5.1168  -19.0101   22.5175 C.ar    1  UNL1        0.0369
     12 C          -4.3693  -17.8203   23.0422 C.ar    1  UNL1        0.1386
     13 C          -5.1151  -16.5797   23.4356 C.ar    1  UNL1        0.0369
     14 C          -6.6085  -16.5290   23.3043 C.ar    1  UNL1        0.0031
     15 O          -2.8759  -17.8709   23.1735 O.3     1  UNL1       -0.4740
     16 C          -2.0529  -18.5497   22.1191 C.3     1  UNL1        0.2226
     17 C          -1.7391  -17.8360   20.8377 C.3     1  UNL1        0.1201
     18 N          -2.4825  -18.1861   19.5827 N.3     1  UNL1       -0.2672
     19 C          -2.3811  -17.2976   18.3784 C.3     1  UNL1        0.0898
     20 C          -3.3271  -19.4246   19.5321 C.3     1  UNL1        0.0898
     21 C          -9.0273  -16.6902   25.0486 C.ar    1  UNL1       -0.0040
     22 C          -8.3997  -15.3293   25.1127 C.ar    1  UNL1       -0.0003
     23 C          -7.7420  -14.8656   26.3785 C.ar    1  UNL1       -0.0000
     24 C          -7.7120  -15.7628   27.5803 C.ar    1  UNL1       -0.0000
     25 C          -8.3395  -17.1236   27.5162 C.ar    1  UNL1       -0.0000
     26 C          -8.9972  -17.5873   26.2503 C.ar    1  UNL1       -0.0003
     27 C         -11.9981  -18.3275   23.9337 C.3     1  UNL1        0.0050
     28 C         -11.1784  -17.1033   23.6514 C.3     1  UNL1        0.0264
@<TRIPOS>BOND
     1    27    28    1
     2    28     1    1
     3     1     2    2
     4     2     3    1
     5     3     4   ar
     6     4     5   ar
     7     5     6   ar
     8     6     7   ar
     9     7     8   ar
    10     2     9    1
    11     9    10   ar
    12    10    11   ar
    13    11    12   ar
    14    12    15    1
    15    15    16    1
    16    16    17    1
    17    17    18    1
    18    18    19    1
    19    18    20    1
    20    12    13   ar
    21    13    14   ar
    22     1    21    1
    23    21    22   ar
    24    22    23   ar
    25    23    24   ar
    26    24    25   ar
    27    25    26   ar
    28     8     3   ar
    29    14     9   ar
    30    26    21   ar
@<TRIPOS>MOLECULE
*****
 28 30 0 0 0
SMALL
GASTEIGER

@<TRIPOS>ATOM
      1 C           3.1122    0.1780   18.4910 C.2     1  UNL1       -0.0222
      2 C           3.3081   -0.5529   19.7862 C.2     1  UNL1       -0.0040
      3 C           4.0274   -1.8691   19.8033 C.ar    1  UNL1       -0.0003
      4 C           3.2774   -3.1373   19.5222 C.ar    1  UNL1       -0.0000
      5 C           3.9967   -4.4535   19.5393 C.ar    1  UNL1       -0.0000
      6 C           5.4660   -4.5014   19.8375 C.ar    1  UNL1       -0.0000
      7 C           6.2159   -3.2331   20.1186 C.ar    1  UNL1       -0.0000
      8 C           5.4966   -1.9170   20.1015 C.ar    1  UNL1       -0.0000
      9 C           2.7847    0.0324   21.0643 C.ar    1  UNL1       -0.0001
     10 C           3.7399    0.5447   22.1011 C.ar    1  UNL1        0.0031
     11 C           3.2165    1.1300   23.3791 C.ar    1  UNL1        0.0369
     12 C           1.7379    1.2030   23.6204 C.ar    1  UNL1        0.1386
     13 C           0.7825    0.6907   22.5836 C.ar    1  UNL1        0.0369
     14 C           1.3059    0.1054   21.3055 C.ar    1  UNL1        0.0031
     15 O           1.2145    1.7883   24.8985 O.3     1  UNL1       -0.4740
     16 C          -0.1416    1.3940   25.4040 C.3     1  UNL1        0.2226
     17 C          -0.5232    1.6773   26.8267 C.3     1  UNL1        0.1201
     18 N          -0.1714    0.6977   27.9069 N.3     1  UNL1       -0.2672
     19 C          -1.2582   -0.0142   28.6567 C.3     1  UNL1        0.0898
     20 C           1.2670    0.4300   28.2372 C.3     1  UNL1        0.0898
     21 C           2.3929    1.4942   18.4739 C.ar    1  UNL1       -0.0040
     22 C           0.9063    1.5340   18.2778 C.ar    1  UNL1       -0.0003
     23 C           0.1871    2.8502   18.2607 C.ar    1  UNL1       -0.0000
     24 C           0.9544    4.1266   18.4398 C.ar    1  UNL1       -0.0000
     25 C           2.4410    4.0868   18.6359 C.ar    1  UNL1       -0.0000
     26 C           3.1602    2.7706   18.6530 C.ar    1  UNL1       -0.0003
     27 C           5.0482   -0.1365   16.7872 C.3     1  UNL1        0.0050
     28 C           3.6356   -0.4073   17.2130 C.3     1  UNL1        0.0264
@<TRIPOS>BOND
     1    27    28    1
     2    28     1    1
     3     1     2    2
     4     2     3    1
     5     3     4   ar
     6     4     5   ar
     7     5     6   ar
     8     6     7   ar
     9     7     8   ar
    10     2     9    1
    11     9    10   ar
    12    10    11   ar
    13    11    12   ar
    14    12    15    1
    15    15    16    1
    16    16    17    1
    17    17    18    1
    18    18    19    1
    19    18    20    1
    20    12    13   ar
    21    13    14   ar
    22     1    21    1
    23    21    22   ar
    24    22    23   ar
    25    23    24   ar
    26    24    25   ar
    27    25    26   ar
    28     8     3   ar
    29    14     9   ar
    30    26    21   ar
@<TRIPOS>MOLECULE
*****
 28 30 0 0 0
SMALL
GASTEIGER

@<TRIPOS>ATOM
      1 C         -10.0261  -17.5376   23.0974 C.2     1  UNL1       -0.0222
      2 C          -8.6558  -17.5345   23.7075 C.2     1  UNL1       -0.0040
      3 C          -8.4130  -16.8175   25.0026 C.ar    1  UNL1       -0.0003
      4 C          -7.6657  -15.5170   25.0112 C.ar    1  UNL1       -0.0000
      5 C          -7.4229  -14.8001   26.3062 C.ar    1  UNL1       -0.0000
      6 C          -7.9274  -15.3838   27.5926 C.ar    1  UNL1       -0.0000
      7 C          -8.6747  -16.6843   27.5840 C.ar    1  UNL1       -0.0000
      8 C          -8.9175  -17.4012   26.2890 C.ar    1  UNL1       -0.0000
      9 C          -7.5283  -18.2484   23.0226 C.ar    1  UNL1       -0.0001
     10 C          -7.7043  -19.6673   22.5693 C.ar    1  UNL1        0.0031
     11 C          -6.5768  -20.3812   21.8844 C.ar    1  UNL1        0.0369
     12 C          -5.2733  -19.6762   21.6529 C.ar    1  UNL1        0.1386
     13 C          -5.0972  -18.2571   22.1062 C.ar    1  UNL1        0.0369
     14 C          -6.2247  -17.5433   22.7911 C.ar    1  UNL1        0.0031
     15 O          -4.1458  -20.3900   20.9680 O.3     1  UNL1       -0.4740
     16 C          -2.7536  -19.8363   21.0400 C.3     1  UNL1        0.2226
     17 C          -2.2829  -18.8541   20.0087 C.3     1  UNL1        0.1201
     18 N          -1.3873  -17.7188   20.4078 N.3     1  UNL1       -0.2672
     19 C          -1.9347  -16.5804   21.2168 C.3     1  UNL1        0.0898
     20 C           0.0556  -17.7220   19.9980 C.3     1  UNL1        0.0898
     21 C         -10.2690  -18.2545   21.8024 C.ar    1  UNL1       -0.0040
     22 C          -9.9863  -17.5666   20.4998 C.ar    1  UNL1       -0.0003
     23 C         -10.2291  -18.2835   19.2048 C.ar    1  UNL1       -0.0000
     24 C         -10.7546  -19.6884   19.2125 C.ar    1  UNL1       -0.0000
     25 C         -11.0373  -20.3764   20.5150 C.ar    1  UNL1       -0.0000
     26 C         -10.7945  -19.6594   21.8100 C.ar    1  UNL1       -0.0003
     27 C         -12.1239  -16.0093   22.9788 C.3     1  UNL1        0.0050
     28 C         -11.1537  -16.8237   23.7823 C.3     1  UNL1        0.0264
@<TRIPOS>BOND
     1    27    28    1
     2    28     1    1
     3     1     2    2
     4     2     3    1
     5     3     4   ar
     6     4     5   ar
     7     5     6   ar
     8     6     7   ar
     9     7     8   ar
    10     2     9    1
    11     9    10   ar
    12    10    11   ar
    13    11    12   ar
    14    12    15    1
    15    15    16    1
    16    16    17    1
    17    17    18    1
    18    18    19    1
    19    18    20    1
    20    12    13   ar
    21    13    14   ar
    22     1    21    1
    23    21    22   ar
    24    22    23   ar
    25    23    24   ar
    26    24    25   ar
    27    25    26   ar
    28     8     3   ar
    29    14     9   ar
    30    26    21   ar
@<TRIPOS>MOLECULE
*****
 28 30 0 0 0
SMALL
GASTEIGER

@<TRIPOS>ATOM
      1 C           5.4705    1.9355   37.8737 C.2     1  UNL1       -0.0222
      2 C           4.1781    1.4710   37.2706 C.2     1  UNL1       -0.0040
      3 C           2.8968    1.6200   38.0362 C.ar    1  UNL1       -0.0003
      4 C           2.1146    2.8969   37.9481 C.ar    1  UNL1       -0.0000
      5 C           0.8334    3.0459   38.7137 C.ar    1  UNL1       -0.0000
      6 C           0.3343    1.9180   39.5674 C.ar    1  UNL1       -0.0000
      7 C           1.1165    0.6412   39.6556 C.ar    1  UNL1       -0.0000
      8 C           2.3977    0.4922   38.8900 C.ar    1  UNL1       -0.0000
      9 C           4.1668    0.8574   35.9018 C.ar    1  UNL1       -0.0001
     10 C           4.6664   -0.5429   35.7035 C.ar    1  UNL1        0.0031
     11 C           4.6552   -1.1565   34.3348 C.ar    1  UNL1        0.0369
     12 C           4.1443   -0.3697   33.1644 C.ar    1  UNL1        0.1386
     13 C           3.6447    1.0308   33.3626 C.ar    1  UNL1        0.0369
     14 C           3.6559    1.6443   34.7314 C.ar    1  UNL1        0.0031
     15 O           4.1331   -0.9832   31.7956 O.3     1  UNL1       -0.4740
     16 C           3.5219   -0.2395   30.6453 C.3     1  UNL1        0.2226
     17 C           2.1769   -0.6453   30.1196 C.3     1  UNL1        0.1201
     18 N           1.1256    0.3944   29.8668 N.3     1  UNL1       -0.2672
     19 C           0.1052    0.1822   28.7879 C.3     1  UNL1        0.0898
     20 C           1.0946    1.6461   30.6927 C.3     1  UNL1        0.0898
     21 C           6.7518    1.7864   37.1080 C.ar    1  UNL1       -0.0040
     22 C           7.1377    2.8128   36.0845 C.ar    1  UNL1       -0.0003
     23 C           8.4189    2.6637   35.3189 C.ar    1  UNL1       -0.0000
     24 C           9.3143    1.4882   35.5769 C.ar    1  UNL1       -0.0000
     25 C           8.9285    0.4618   36.6004 C.ar    1  UNL1       -0.0000
     26 C           7.6472    0.6109   37.3660 C.ar    1  UNL1       -0.0003
     27 C           5.4416    4.0406   39.3960 C.3     1  UNL1        0.0050
     28 C           5.4818    2.5490   39.2424 C.3     1  UNL1        0.0264
@<TRIPOS>BOND
     1    27    28    1
     2    28     1    1
     3     1     2    2
     4     2     3    1
     5     3     4   ar
     6     4     5   ar
     7     5     6   ar
     8     6     7   ar
     9     7     8   ar
    10     2     9    1
    11     9    10   ar
    12    10    11   ar
    13    11    12   ar
    14    12    15    1
    15    15    16    1
    16    16    17    1
    17    17    18    1
    18    18    19    1
    19    18    20    1
    20    12    13   ar
    21    13    14   ar
    22     1    21    1
    23    21    22   ar
    24    22    23   ar
    25    23    24   ar
    26    24    25   ar
    27    25    26   ar
    28     8     3   ar
    29    14     9   ar
    30    26    21   ar
@<TRIPOS>MOLECULE
*****
 28 30 0 0 0
SMALL
GASTEIGER

@<TRIPOS>ATOM
      1 C         -15.7432   -1.2307   19.4196 C.2     1  UNL1       -0.0222
      2 C         -14.9322   -0.3171   18.5492 C.2     1  UNL1       -0.0040
      3 C         -15.3819    1.0955   18.3203 C.ar    1  UNL1       -0.0003
      4 C         -16.1010    1.4580   17.0548 C.ar    1  UNL1       -0.0000
      5 C         -16.5507    2.8705   16.8260 C.ar    1  UNL1       -0.0000
      6 C         -16.2812    3.9206   17.8627 C.ar    1  UNL1       -0.0000
      7 C         -15.5621    3.5582   19.1281 C.ar    1  UNL1       -0.0000
      8 C         -15.1124    2.1456   19.3570 C.ar    1  UNL1       -0.0000
      9 C         -13.6715   -0.8162   17.9075 C.ar    1  UNL1       -0.0001
     10 C         -12.3414   -0.5103   18.5297 C.ar    1  UNL1        0.0031
     11 C         -11.0807   -1.0093   17.8881 C.ar    1  UNL1        0.0369
     12 C         -11.1502   -1.8142   16.6243 C.ar    1  UNL1        0.1386
     13 C         -12.4804   -2.1201   16.0020 C.ar    1  UNL1        0.0369
     14 C         -13.7410   -1.6211   16.6436 C.ar    1  UNL1        0.0031
     15 O          -9.8895   -2.3132   15.9827 O.3     1  UNL1       -0.4740
     16 C          -9.2640   -3.5927   16.4534 C.3     1  UNL1        0.2226
     17 C         -10.0447   -4.8725   16.4021 C.3     1  UNL1        0.1201
     18 N         -10.9128   -5.2683   17.5597 N.3     1  UNL1       -0.2672
     19 C         -10.5760   -4.7999   18.9443 C.3     1  UNL1        0.0898
     20 C         -12.1175   -6.1326   17.3326 C.3     1  UNL1        0.0898
     21 C         -15.2935   -2.6433   19.6485 C.ar    1  UNL1       -0.0040
     22 C         -14.2069   -2.9330   20.6411 C.ar    1  UNL1       -0.0003
     23 C         -13.7572   -4.3456   20.8699 C.ar    1  UNL1       -0.0000
     24 C         -14.3942   -5.4685   20.1061 C.ar    1  UNL1       -0.0000
     25 C         -15.4808   -5.1788   19.1135 C.ar    1  UNL1       -0.0000
     26 C         -15.9304   -3.7662   18.8847 C.ar    1  UNL1       -0.0003
     27 C         -18.3357   -1.0643   19.4565 C.3     1  UNL1        0.0050
     28 C         -17.0038   -0.7317   20.0612 C.3     1  UNL1        0.0264
@<TRIPOS>BOND
     1    27    28    1
     2    28     1    1
     3     1     2    2
     4     2     3    1
     5     3     4   ar
     6     4     5   ar
     7     5     6   ar
     8     6     7   ar
     9     7     8   ar
    10     2     9    1
    11     9    10   ar
    12    10    11   ar
    13    11    12   ar
    14    12    15    1
    15    15    16    1
    16    16    17    1
    17    17    18    1
    18    18    19    1
    19    18    20    1
    20    12    13   ar
    21    13    14   ar
    22     1    21    1
    23    21    22   ar
    24    22    23   ar
    25    23    24   ar
    26    24    25   ar
    27    25    26   ar
    28     8     3   ar
    29    14     9   ar
    30    26    21   ar
@<TRIPOS>MOLECULE
*****
 28 30 0 0 0
SMALL
GASTEIGER

@<TRIPOS>ATOM
      1 C           4.7667   -2.0501   19.3831 C.2     1  UNL1       -0.0222
      2 C           5.7712   -1.8288   20.4748 C.2     1  UNL1       -0.0040
      3 C           7.0076   -2.6756   20.5393 C.ar    1  UNL1       -0.0003
      4 C           8.2051   -2.3188   19.7095 C.ar    1  UNL1       -0.0000
      5 C           9.4415   -3.1656   19.7740 C.ar    1  UNL1       -0.0000
      6 C           9.4805   -4.3692   20.6684 C.ar    1  UNL1       -0.0000
      7 C           8.2830   -4.7260   21.4982 C.ar    1  UNL1       -0.0000
      8 C           7.0466   -3.8792   21.4337 C.ar    1  UNL1       -0.0000
      9 C           5.5392   -0.7607   21.5022 C.ar    1  UNL1       -0.0001
     10 C           4.9238   -1.1126   22.8241 C.ar    1  UNL1        0.0031
     11 C           4.6919   -0.0445   23.8514 C.ar    1  UNL1        0.0369
     12 C           5.0753    1.3754   23.5568 C.ar    1  UNL1        0.1386
     13 C           5.6907    1.7273   22.2349 C.ar    1  UNL1        0.0369
     14 C           5.9227    0.6592   21.2075 C.ar    1  UNL1        0.0031
     15 O           4.8434    2.4435   24.5842 O.3     1  UNL1       -0.4740
     16 C           3.6953    2.3259   25.5423 C.3     1  UNL1        0.2226
     17 C           2.3391    2.8358   25.1540 C.3     1  UNL1        0.1201
     18 N           1.2830    1.8781   24.6875 N.3     1  UNL1       -0.2672
     19 C           0.2192    1.4137   25.6376 C.3     1  UNL1        0.0898
     20 C           1.2908    1.3848   23.2710 C.3     1  UNL1        0.0898
     21 C           3.5302   -1.2033   19.3186 C.ar    1  UNL1       -0.0040
     22 C           2.3638   -1.5099   20.2104 C.ar    1  UNL1       -0.0003
     23 C           1.1274   -0.6632   20.1459 C.ar    1  UNL1       -0.0000
     24 C           1.0574    0.4903   19.1895 C.ar    1  UNL1       -0.0000
     25 C           2.2238    0.7969   18.2976 C.ar    1  UNL1       -0.0000
     26 C           3.4602   -0.0499   18.3622 C.ar    1  UNL1       -0.0003
     27 C           4.6043   -4.5361   18.6458 C.3     1  UNL1        0.0050
     28 C           4.9986   -3.1182   18.3557 C.3     1  UNL1        0.0264
@<TRIPOS>BOND
     1    27    28    1
     2    28     1    1
     3     1     2    2
     4     2     3    1
     5     3     4   ar
     6     4     5   ar
     7     5     6   ar
     8     6     7   ar
     9     7     8   ar
    10     2     9    1
    11     9    10   ar
    12    10    11   ar
    13    11    12   ar
    14    12    15    1
    15    15    16    1
    16    16    17    1
    17    17    18    1
    18    18    19    1
    19    18    20    1
    20    12    13   ar
    21    13    14   ar
    22     1    21    1
    23    21    22   ar
    24    22    23   ar
    25    23    24   ar
    26    24    25   ar
    27    25    26   ar
    28     8     3   ar
    29    14     9   ar
    30    26    21   ar
@<TRIPOS>MOLECULE
*****
 28 30 0 0 0
SMALL
GASTEIGER

@<TRIPOS>ATOM
      1 C           4.7399   -2.0568   19.3177 C.2     1  UNL1       -0.0222
      2 C           5.8317   -1.7443   20.2975 C.2     1  UNL1       -0.0040
      3 C           7.0664   -2.5951   20.3413 C.ar    1  UNL1       -0.0003
      4 C           8.2485   -2.2459   19.4867 C.ar    1  UNL1       -0.0000
      5 C           9.4831   -3.0967   19.5305 C.ar    1  UNL1       -0.0000
      6 C           9.5355   -4.2967   20.4290 C.ar    1  UNL1       -0.0000
      7 C           8.3533   -4.6459   21.2836 C.ar    1  UNL1       -0.0000
      8 C           7.1187   -3.7951   21.2398 C.ar    1  UNL1       -0.0000
      9 C           5.6890   -0.5810   21.2337 C.ar    1  UNL1       -0.0001
     10 C           6.0416    0.8016   20.7710 C.ar    1  UNL1        0.0031
     11 C           5.8989    1.9649   21.7072 C.ar    1  UNL1        0.0369
     12 C           5.4035    1.7457   23.1059 C.ar    1  UNL1        0.1386
     13 C           5.0509    0.3630   23.5686 C.ar    1  UNL1        0.0369
     14 C           5.1936   -0.8003   22.6325 C.ar    1  UNL1        0.0031
     15 O           5.2608    2.9090   24.0420 O.3     1  UNL1       -0.4740
     16 C           4.1499    3.8976   23.8459 C.3     1  UNL1        0.2226
     17 C           2.8204    3.6719   24.5027 C.3     1  UNL1        0.1201
     18 N           2.0997    2.3706   24.3096 N.3     1  UNL1       -0.2672
     19 C           1.8483    1.4711   25.4834 C.3     1  UNL1        0.0898
     20 C           1.6305    1.9687   22.9428 C.3     1  UNL1        0.0898
     21 C           3.5052   -1.2060   19.2739 C.ar    1  UNL1       -0.0040
     22 C           3.3972   -0.0919   18.2754 C.ar    1  UNL1       -0.0003
     23 C           2.1626    0.7588   18.2316 C.ar    1  UNL1       -0.0000
     24 C           1.0360    0.4955   19.1864 C.ar    1  UNL1       -0.0000
     25 C           1.1441   -0.6186   20.1849 C.ar    1  UNL1       -0.0000
     26 C           2.3787   -1.4694   20.2287 C.ar    1  UNL1       -0.0003
     27 C           4.3738   -4.5729   18.7833 C.3     1  UNL1        0.0050
     28 C           4.8826   -3.2202   18.3816 C.3     1  UNL1        0.0264
@<TRIPOS>BOND
     1    27    28    1
     2    28     1    1
     3     1     2    2
     4     2     3    1
     5     3     4   ar
     6     4     5   ar
     7     5     6   ar
     8     6     7   ar
     9     7     8   ar
    10     2     9    1
    11     9    10   ar
    12    10    11   ar
    13    11    12   ar
    14    12    15    1
    15    15    16    1
    16    16    17    1
    17    17    18    1
    18    18    19    1
    19    18    20    1
    20    12    13   ar
    21    13    14   ar
    22     1    21    1
    23    21    22   ar
    24    22    23   ar
    25    23    24   ar
    26    24    25   ar
    27    25    26   ar
    28     8     3   ar
    29    14     9   ar
    30    26    21   ar
@<TRIPOS>MOLECULE
*****
 28 30 0 0 0
SMALL
GASTEIGER

@<TRIPOS>ATOM
      1 C          -4.9911  -16.7561   25.2359 C.2     1  UNL1       -0.0222
      2 C          -5.2109  -17.0234   23.7764 C.2     1  UNL1       -0.0040
      3 C          -4.0914  -17.5621   22.9357 C.ar    1  UNL1       -0.0003
      4 C          -4.0035  -19.0333   22.6571 C.ar    1  UNL1       -0.0000
      5 C          -2.8841  -19.5719   21.8165 C.ar    1  UNL1       -0.0000
      6 C          -1.8525  -18.6392   21.2544 C.ar    1  UNL1       -0.0000
      7 C          -1.9404  -17.1679   21.5329 C.ar    1  UNL1       -0.0000
      8 C          -3.0598  -16.6294   22.3736 C.ar    1  UNL1       -0.0000
      9 C          -6.5501  -16.7522   23.1575 C.ar    1  UNL1       -0.0001
     10 C          -7.0628  -15.3456   23.0656 C.ar    1  UNL1        0.0031
     11 C          -8.4019  -15.0743   22.4467 C.ar    1  UNL1        0.0369
     12 C          -9.2284  -16.2097   21.9198 C.ar    1  UNL1        0.1386
     13 C          -8.7158  -17.6165   22.0117 C.ar    1  UNL1        0.0369
     14 C          -7.3766  -17.8877   22.6306 C.ar    1  UNL1        0.0031
     15 O         -10.5676  -15.9385   21.3009 O.3     1  UNL1       -0.4740
     16 C         -11.8129  -16.0476   22.1299 C.3     1  UNL1        0.2226
     17 C         -12.5411  -17.3558   22.2210 C.3     1  UNL1        0.1201
     18 N         -12.6878  -18.0418   23.5469 N.3     1  UNL1       -0.2672
     19 C         -11.4920  -18.6617   24.2070 C.3     1  UNL1        0.0898
     20 C         -14.0303  -18.1079   24.2126 C.3     1  UNL1        0.0898
     21 C          -6.1106  -16.2174   26.0766 C.ar    1  UNL1       -0.0040
     22 C          -5.9439  -14.9156   26.8028 C.ar    1  UNL1       -0.0003
     23 C          -7.0633  -14.3771   27.6435 C.ar    1  UNL1       -0.0000
     24 C          -8.3495  -15.1403   27.7579 C.ar    1  UNL1       -0.0000
     25 C          -8.5163  -16.4421   27.0317 C.ar    1  UNL1       -0.0000
     26 C          -7.3969  -16.9807   26.1910 C.ar    1  UNL1       -0.0003
     27 C          -3.5451  -17.9371   27.0426 C.3     1  UNL1        0.0050
     28 C          -3.6520  -17.0273   25.8548 C.3     1  UNL1        0.0264
@<TRIPOS>BOND
     1    27    28    1
     2    28     1    1
     3     1     2    2
     4     2     3    1
     5     3     4   ar
     6     4     5   ar
     7     5     6   ar
     8     6     7   ar
     9     7     8   ar
    10     2     9    1
    11     9    10   ar
    12    10    11   ar
    13    11    12   ar
    14    12    15    1
    15    15    16    1
    16    16    17    1
    17    17    18    1
    18    18    19    1
    19    18    20    1
    20    12    13   ar
    21    13    14   ar
    22     1    21    1
    23    21    22   ar
    24    22    23   ar
    25    23    24   ar
    26    24    25   ar
    27    25    26   ar
    28     8     3   ar
    29    14     9   ar
    30    26    21   ar
