@<TRIPOS>MOLECULE
*****
 33 36 0 0 0
SMALL
GASTEIGER

@<TRIPOS>ATOM
      1 C          -9.7468  -18.7565   21.6619 C.ar    1  UNL1        0.1399
      2 C         -11.1015  -19.3246   21.9655 C.ar    1  UNL1        0.0554
      3 C         -11.9679  -18.6819   23.0077 C.ar    1  UNL1        0.1047
      4 N         -11.4796  -17.4711   23.7464 N.ar    1  UNL1       -0.2119
      5 C         -10.1250  -16.9030   23.4428 C.ar    1  UNL1        0.2218
      6 N          -9.2585  -17.5458   22.4005 N.ar    1  UNL1       -0.1983
      7 N          -8.8804  -19.3993   20.6197 N.pl3   1  UNL1       -0.2705
      8 C          -9.5064  -20.0606   19.4277 C.3     1  UNL1        0.1187
      9 C          -1.2834  -18.1279   19.1056 C.3     1  UNL1        0.0718
     10 C          -2.6380  -18.4903   19.6382 C.ar    1  UNL1        0.1208
     11 N          -3.9508  -18.2255   18.9627 N.ar    1  UNL1       -0.2309
     12 C          -5.0418  -18.7528   19.8469 C.ar    1  UNL1        0.0996
     13 C          -6.5342  -18.7714   19.6971 C.ar    1  UNL1        0.0355
     14 C          -7.3880  -19.3807   20.7694 C.ar    1  UNL1        0.0543
     15 C          -6.7494  -19.9714   21.9914 C.ar    1  UNL1        0.0164
     16 C          -5.2570  -19.9528   22.1411 C.ar    1  UNL1        0.0200
     17 C          -4.4033  -19.3435   21.0689 C.ar    1  UNL1        0.0787
     18 N          -2.9176  -19.1813   20.9399 N.ar    1  UNL1       -0.3129
     19 C          -1.8917  -19.6311   21.9375 C.3     1  UNL1        0.1316
     20 N          -9.6367  -15.6923   24.1814 N.pl3   1  UNL1       -0.2825
     21 H         -10.2313  -14.9172   24.3037 H       1  UNL1        0.1551
     22 C          -8.2425  -15.6624   24.7339 C.ar    1  UNL1        0.0518
     23 C          -8.0227  -15.4687   26.2050 C.ar    1  UNL1        0.0148
     24 C          -6.6284  -15.4388   26.7575 C.ar    1  UNL1        0.0026
     25 C          -5.4540  -15.6025   25.8388 C.ar    1  UNL1        0.0200
     26 C          -5.6739  -15.7962   24.3676 C.ar    1  UNL1        0.1229
     27 C          -7.0681  -15.8261   23.8152 C.ar    1  UNL1        0.0346
     28 S          -4.4994  -15.9599   23.4490 S.O2    1  UNL1        0.0572
     29 N          -3.3250  -16.1237   22.5303 N.3     1  UNL1       -0.2035
     30 O          -4.7829  -14.6156   22.8470 O.2     1  UNL1       -0.1532
     31 O          -4.2160  -17.3043   24.0510 O.2     1  UNL1       -0.1532
     32 H          -3.2406  -15.2989   21.9361 H       1  UNL1        0.1442
     33 H          -3.4616  -16.9498   21.9479 H       1  UNL1        0.1442
@<TRIPOS>BOND
     1     9    10    1
     2    10    11   ar
     3    11    12   ar
     4    12    13   ar
     5    13    14   ar
     6    14     7    1
     7     7     8    1
     8     7     1    1
     9     1     2   ar
    10     2     3   ar
    11     3     4   ar
    12     4     5   ar
    13     5    20    1
    14    20    22    1
    15    22    23   ar
    16    23    24   ar
    17    24    25   ar
    18    25    26   ar
    19    26    28    1
    20    28    29    1
    21    28    30    2
    22    28    31    2
    23    26    27   ar
    24     5     6   ar
    25    14    15   ar
    26    15    16   ar
    27    16    17   ar
    28    17    18   ar
    29    18    19    1
    30    18    10   ar
    31    17    12   ar
    32     6     1   ar
    33    27    22   ar
    34    20    21    1
    35    29    32    1
    36    29    33    1
@<TRIPOS>MOLECULE
*****
 33 36 0 0 0
SMALL
GASTEIGER

@<TRIPOS>ATOM
      1 C          -9.3051  -19.0410   20.1182 C.ar    1  UNL1        0.1399
      2 C          -9.9083  -19.6660   18.8953 C.ar    1  UNL1        0.0554
      3 C          -9.1708  -20.7489   18.1650 C.ar    1  UNL1        0.1047
      4 N          -7.8300  -21.2068   18.6576 N.ar    1  UNL1       -0.2119
      5 C          -7.2268  -20.5818   19.8804 C.ar    1  UNL1        0.2218
      6 N          -7.9643  -19.4989   20.6108 N.ar    1  UNL1       -0.1983
      7 N         -10.0426  -17.9580   20.8485 N.pl3   1  UNL1       -0.2705
      8 C         -11.3084  -17.3940   20.2743 C.3     1  UNL1        0.1187
      9 C          -5.2101  -14.8154   26.1771 C.3     1  UNL1        0.0718
     10 C          -6.3191  -15.4336   25.3784 C.ar    1  UNL1        0.1208
     11 N          -6.2717  -15.7704   23.9174 N.ar    1  UNL1       -0.2309
     12 C          -7.5935  -16.3684   23.5364 C.ar    1  UNL1        0.0996
     13 C          -8.1217  -16.8874   22.2320 C.ar    1  UNL1        0.0355
     14 C          -9.5143  -17.4391   22.1530 C.ar    1  UNL1        0.0543
     15 C         -10.3787  -17.4719   23.3785 C.ar    1  UNL1        0.0164
     16 C          -9.8505  -16.9530   24.6829 C.ar    1  UNL1        0.0200
     17 C          -8.4579  -16.4012   24.7619 C.ar    1  UNL1        0.0787
     18 N          -7.6703  -15.8235   25.9003 N.ar    1  UNL1       -0.3129
     19 C          -8.1497  -15.6637   27.3126 C.3     1  UNL1        0.1316
     20 N          -5.8860  -21.0397   20.3730 N.pl3   1  UNL1       -0.2825
     21 H          -5.6670  -21.9995   20.3837 H       1  UNL1        0.1551
     22 C          -4.8789  -20.0354   20.8492 C.ar    1  UNL1        0.0518
     23 C          -4.9876  -19.4614   22.2307 C.ar    1  UNL1        0.0148
     24 C          -3.9804  -18.4569   22.7070 C.ar    1  UNL1        0.0026
     25 C          -2.8646  -18.0265   21.8017 C.ar    1  UNL1        0.0200
     26 C          -2.7559  -18.6006   20.4201 C.ar    1  UNL1        0.1229
     27 C          -3.7630  -19.6049   19.9439 C.ar    1  UNL1        0.0346
     28 S          -1.6400  -18.1701   19.5148 S.O2    1  UNL1        0.0572
     29 N          -0.5242  -17.7397   18.6095 N.3     1  UNL1       -0.2035
     30 O          -0.6615  -18.9320   20.3586 O.2     1  UNL1       -0.1532
     31 O          -2.6185  -17.4082   18.6710 O.2     1  UNL1       -0.1532
     32 H           0.3561  -18.1306   18.9453 H       1  UNL1        0.1442
     33 H          -0.4640  -16.7215   18.6043 H       1  UNL1        0.1442
@<TRIPOS>BOND
     1     9    10    1
     2    10    11   ar
     3    11    12   ar
     4    12    13   ar
     5    13    14   ar
     6    14     7    1
     7     7     8    1
     8     7     1    1
     9     1     2   ar
    10     2     3   ar
    11     3     4   ar
    12     4     5   ar
    13     5    20    1
    14    20    22    1
    15    22    23   ar
    16    23    24   ar
    17    24    25   ar
    18    25    26   ar
    19    26    28    1
    20    28    29    1
    21    28    30    2
    22    28    31    2
    23    26    27   ar
    24     5     6   ar
    25    14    15   ar
    26    15    16   ar
    27    16    17   ar
    28    17    18   ar
    29    18    19    1
    30    18    10   ar
    31    17    12   ar
    32     6     1   ar
    33    27    22   ar
    34    20    21    1
    35    29    32    1
    36    29    33    1
@<TRIPOS>MOLECULE
*****
 33 36 0 0 0
SMALL
GASTEIGER

@<TRIPOS>ATOM
      1 C         -10.5364   -4.4980   17.7206 C.ar    1  UNL1        0.1399
      2 C          -9.4764   -4.7982   18.7387 C.ar    1  UNL1        0.0554
      3 C          -9.4205   -6.1497   19.3870 C.ar    1  UNL1        0.1047
      4 N         -10.4245   -7.2010   19.0172 N.ar    1  UNL1       -0.2119
      5 C         -11.4845   -6.9008   17.9992 C.ar    1  UNL1        0.2218
      6 N         -11.5404   -5.5493   17.3509 N.ar    1  UNL1       -0.1983
      7 N         -10.5923   -3.1465   17.0723 N.pl3   1  UNL1       -0.2705
      8 C          -9.6232   -2.7970   15.9820 C.3     1  UNL1        0.1187
      9 C         -16.9631   -0.0390   20.4456 C.3     1  UNL1        0.0718
     10 C         -15.6941   -0.3630   19.7145 C.ar    1  UNL1        0.1208
     11 N         -15.0680   -1.7208   19.5940 N.ar    1  UNL1       -0.2309
     12 C         -13.8153   -1.5831   18.7806 C.ar    1  UNL1        0.0996
     13 C         -12.7904   -2.5852   18.3386 C.ar    1  UNL1        0.0355
     14 C         -11.6173   -2.1444   17.5144 C.ar    1  UNL1        0.0543
     15 C         -11.4690   -0.7015   17.1321 C.ar    1  UNL1        0.0164
     16 C         -12.4939    0.3006   17.5741 C.ar    1  UNL1        0.0200
     17 C         -13.6670   -0.1403   18.3984 C.ar    1  UNL1        0.0787
     18 N         -14.8282    0.6138   18.9756 N.ar    1  UNL1       -0.3129
     19 C         -15.0794    2.0862   18.8379 C.3     1  UNL1        0.1316
     20 N         -12.4885   -7.9521   17.6295 N.pl3   1  UNL1       -0.2825
     21 H         -12.2465   -8.6607   16.9903 H       1  UNL1        0.1551
     22 C         -13.8611   -7.9237   18.2335 C.ar    1  UNL1        0.0518
     23 C         -14.3603   -6.6777   18.9029 C.ar    1  UNL1        0.0148
     24 C         -15.7331   -6.6492   19.5070 C.ar    1  UNL1        0.0026
     25 C         -16.6066   -7.8669   19.4417 C.ar    1  UNL1        0.0200
     26 C         -16.1073   -9.1130   18.7722 C.ar    1  UNL1        0.1229
     27 C         -14.7346   -9.1414   18.1682 C.ar    1  UNL1        0.0346
     28 S         -16.9808  -10.3307   18.7069 S.O2    1  UNL1        0.0572
     29 N         -17.8543  -11.5484   18.6416 N.3     1  UNL1       -0.2035
     30 O         -15.7940  -11.1611   18.3170 O.2     1  UNL1       -0.1532
     31 O         -18.1676   -9.5003   19.0968 O.2     1  UNL1       -0.1532
     32 H         -17.2914  -12.3568   18.3768 H       1  UNL1        0.1442
     33 H         -18.5884  -11.4034   17.9483 H       1  UNL1        0.1442
@<TRIPOS>BOND
     1     9    10    1
     2    10    11   ar
     3    11    12   ar
     4    12    13   ar
     5    13    14   ar
     6    14     7    1
     7     7     8    1
     8     7     1    1
     9     1     2   ar
    10     2     3   ar
    11     3     4   ar
    12     4     5   ar
    13     5    20    1
    14    20    22    1
    15    22    23   ar
    16    23    24   ar
    17    24    25   ar
    18    25    26   ar
    19    26    28    1
    20    28    29    1
    21    28    30    2
    22    28    31    2
    23    26    27   ar
    24     5     6   ar
    25    14    15   ar
    26    15    16   ar
    27    16    17   ar
    28    17    18   ar
    29    18    19    1
    30    18    10   ar
    31    17    12   ar
    32     6     1   ar
    33    27    22   ar
    34    20    21    1
    35    29    32    1
    36    29    33    1
@<TRIPOS>MOLECULE
*****
 33 36 0 0 0
SMALL
GASTEIGER

@<TRIPOS>ATOM
      1 C          -9.2500  -19.0420   20.3811 C.ar    1  UNL1        0.1399
      2 C         -10.6295  -19.4970   20.0069 C.ar    1  UNL1        0.0554
      3 C         -11.8294  -18.8109   20.5896 C.ar    1  UNL1        0.1047
      4 N         -11.6498  -17.6698   21.5465 N.ar    1  UNL1       -0.2119
      5 C         -10.2703  -17.2148   21.9207 C.ar    1  UNL1        0.2218
      6 N          -9.0704  -17.9009   21.3380 N.ar    1  UNL1       -0.1983
      7 N          -8.0501  -19.7282   19.7985 N.pl3   1  UNL1       -0.2705
      8 C          -8.2225  -20.7409   18.7055 C.3     1  UNL1        0.1187
      9 C          -0.3979  -17.9815   19.9237 C.3     1  UNL1        0.0718
     10 C          -1.8393  -18.3026   20.1867 C.ar    1  UNL1        0.1208
     11 N          -2.8871  -18.5698   19.1470 N.ar    1  UNL1       -0.2309
     12 C          -4.1814  -18.8453   19.8533 C.ar    1  UNL1        0.0996
     13 C          -5.5535  -19.1719   19.3430 C.ar    1  UNL1        0.0355
     14 C          -6.6779  -19.4016   20.3088 C.ar    1  UNL1        0.0543
     15 C          -6.4301  -19.3048   21.7850 C.ar    1  UNL1        0.0164
     16 C          -5.0580  -18.9782   22.2954 C.ar    1  UNL1        0.0200
     17 C          -3.9336  -18.7485   21.3295 C.ar    1  UNL1        0.0787
     18 N          -2.4862  -18.4131   21.5356 N.ar    1  UNL1       -0.3129
     19 C          -1.8051  -18.2217   22.8583 C.3     1  UNL1        0.1316
     20 N         -10.0907  -16.0737   22.8776 N.pl3   1  UNL1       -0.2825
     21 H         -10.4534  -15.1852   22.6578 H       1  UNL1        0.1551
     22 C          -9.3585  -16.2863   24.1693 C.ar    1  UNL1        0.0518
     23 C          -9.8562  -17.3013   25.1552 C.ar    1  UNL1        0.0148
     24 C          -9.1240  -17.5139   26.4470 C.ar    1  UNL1        0.0026
     25 C          -7.8942  -16.7114   26.7529 C.ar    1  UNL1        0.0200
     26 C          -7.3965  -15.6963   25.7670 C.ar    1  UNL1        0.1229
     27 C          -8.1287  -15.4838   24.4752 C.ar    1  UNL1        0.0346
     28 S          -6.1667  -14.8939   26.0729 S.O2    1  UNL1        0.0572
     29 N          -4.9369  -14.0914   26.3788 N.3     1  UNL1       -0.2035
     30 O          -6.4836  -14.9663   27.5372 O.2     1  UNL1       -0.1532
     31 O          -5.8498  -14.8214   24.6085 O.2     1  UNL1       -0.1532
     32 H          -4.8613  -13.9559   27.3869 H       1  UNL1        0.1442
     33 H          -4.9997  -13.1838   25.9175 H       1  UNL1        0.1442
@<TRIPOS>BOND
     1     9    10    1
     2    10    11   ar
     3    11    12   ar
     4    12    13   ar
     5    13    14   ar
     6    14     7    1
     7     7     8    1
     8     7     1    1
     9     1     2   ar
    10     2     3   ar
    11     3     4   ar
    12     4     5   ar
    13     5    20    1
    14    20    22    1
    15    22    23   ar
    16    23    24   ar
    17    24    25   ar
    18    25    26   ar
    19    26    28    1
    20    28    29    1
    21    28    30    2
    22    28    31    2
    23    26    27   ar
    24     5     6   ar
    25    14    15   ar
    26    15    16   ar
    27    16    17   ar
    28    17    18   ar
    29    18    19    1
    30    18    10   ar
    31    17    12   ar
    32     6     1   ar
    33    27    22   ar
    34    20    21    1
    35    29    32    1
    36    29    33    1
@<TRIPOS>MOLECULE
*****
 33 36 0 0 0
SMALL
GASTEIGER

@<TRIPOS>ATOM
      1 C         -16.4278   -2.9391   19.1855 C.ar    1  UNL1        0.1399
      2 C         -16.5307   -1.7827   18.2356 C.ar    1  UNL1        0.0554
      3 C         -15.2949   -1.0412   17.8199 C.ar    1  UNL1        0.1047
      4 N         -13.9560   -1.4562   18.3540 N.ar    1  UNL1       -0.2119
      5 C         -13.8530   -2.6126   19.3038 C.ar    1  UNL1        0.2218
      6 N         -15.0889   -3.3541   19.7195 N.ar    1  UNL1       -0.1983
      7 N         -17.6637   -3.6805   19.6012 N.pl3   1  UNL1       -0.2705
      8 C         -18.6771   -3.0138   20.4835 C.3     1  UNL1        0.1187
      9 C         -16.8021  -11.4338   18.7251 C.3     1  UNL1        0.0718
     10 C         -17.1858   -9.9838   18.7083 C.ar    1  UNL1        0.1208
     11 N         -16.5137   -8.8849   19.4769 N.ar    1  UNL1       -0.2309
     12 C         -17.2215   -7.6001   19.1636 C.ar    1  UNL1        0.0996
     13 C         -16.9990   -6.1920   19.6302 C.ar    1  UNL1        0.0355
     14 C         -17.8862   -5.0887   19.1346 C.ar    1  UNL1        0.0543
     15 C         -18.9958   -5.3935   18.1724 C.ar    1  UNL1        0.0164
     16 C         -19.2183   -6.8015   17.7058 C.ar    1  UNL1        0.0200
     17 C         -18.3312   -7.9048   18.2014 C.ar    1  UNL1        0.0787
     18 N         -18.3091   -9.3781   17.9200 N.ar    1  UNL1       -0.3129
     19 C         -19.2459  -10.1160   17.0101 C.3     1  UNL1        0.1316
     20 N         -12.5142   -3.0275   19.8379 N.pl3   1  UNL1       -0.2825
     21 H         -12.2956   -2.8807   20.7865 H       1  UNL1        0.1551
     22 C         -11.5084   -3.6662   18.9267 C.ar    1  UNL1        0.0518
     23 C         -10.7020   -2.8185   17.9880 C.ar    1  UNL1        0.0148
     24 C          -9.6962   -3.4572   17.0767 C.ar    1  UNL1        0.0026
     25 C          -9.4967   -4.9436   17.1041 C.ar    1  UNL1        0.0200
     26 C         -10.3031   -5.7914   18.0429 C.ar    1  UNL1        0.1229
     27 C         -11.3089   -5.1527   18.9541 C.ar    1  UNL1        0.0346
     28 S         -10.1036   -7.2778   18.0704 S.O2    1  UNL1        0.0572
     29 N          -9.9041   -8.7642   18.0978 N.3     1  UNL1       -0.2035
     30 O          -9.2015   -7.1347   19.2602 O.2     1  UNL1       -0.1532
     31 O         -11.0057   -7.4208   16.8805 O.2     1  UNL1       -0.1532
     32 H          -9.2806   -9.0094   18.8669 H       1  UNL1        0.1442
     33 H          -9.4919   -9.0683   17.2157 H       1  UNL1        0.1442
@<TRIPOS>BOND
     1     9    10    1
     2    10    11   ar
     3    11    12   ar
     4    12    13   ar
     5    13    14   ar
     6    14     7    1
     7     7     8    1
     8     7     1    1
     9     1     2   ar
    10     2     3   ar
    11     3     4   ar
    12     4     5   ar
    13     5    20    1
    14    20    22    1
    15    22    23   ar
    16    23    24   ar
    17    24    25   ar
    18    25    26   ar
    19    26    28    1
    20    28    29    1
    21    28    30    2
    22    28    31    2
    23    26    27   ar
    24     5     6   ar
    25    14    15   ar
    26    15    16   ar
    27    16    17   ar
    28    17    18   ar
    29    18    19    1
    30    18    10   ar
    31    17    12   ar
    32     6     1   ar
    33    27    22   ar
    34    20    21    1
    35    29    32    1
    36    29    33    1
@<TRIPOS>MOLECULE
*****
 33 36 0 0 0
SMALL
GASTEIGER

@<TRIPOS>ATOM
      1 C          -6.5691  -20.3075   19.7917 C.ar    1  UNL1        0.1399
      2 C          -6.5501  -21.6114   19.0504 C.ar    1  UNL1        0.0554
      3 C          -7.7676  -22.0664   18.3018 C.ar    1  UNL1        0.1047
      4 N          -9.0043  -21.2175   18.2944 N.ar    1  UNL1       -0.2119
      5 C          -9.0234  -19.9136   19.0356 C.ar    1  UNL1        0.2218
      6 N          -7.8057  -19.4586   19.7843 N.ar    1  UNL1       -0.1983
      7 N          -5.3515  -19.8526   20.5404 N.pl3   1  UNL1       -0.2705
      8 C          -4.0009  -20.3934   20.1752 C.3     1  UNL1        0.1187
      9 C          -8.5529  -15.0474   25.8588 C.3     1  UNL1        0.0718
     10 C          -7.6908  -15.8737   24.9510 C.ar    1  UNL1        0.1208
     11 N          -8.1769  -16.8128   23.8872 N.ar    1  UNL1       -0.2309
     12 C          -6.9777  -17.4255   23.2264 C.ar    1  UNL1        0.0996
     13 C          -6.8448  -18.4213   22.1126 C.ar    1  UNL1        0.0355
     14 C          -5.4845  -18.8567   21.6543 C.ar    1  UNL1        0.0543
     15 C          -4.2572  -18.2963   22.3098 C.ar    1  UNL1        0.0164
     16 C          -4.3902  -17.3006   23.4237 C.ar    1  UNL1        0.0200
     17 C          -5.7504  -16.8651   23.8820 C.ar    1  UNL1        0.0787
     18 N          -6.1911  -15.9061   24.9478 N.ar    1  UNL1       -0.3129
     19 C          -5.2903  -15.1178   25.8517 C.3     1  UNL1        0.1316
     20 N         -10.2600  -19.0647   19.0282 N.pl3   1  UNL1       -0.2825
     21 H         -10.6735  -18.8047   18.1735 H       1  UNL1        0.1551
     22 C         -10.8666  -18.6118   20.3232 C.ar    1  UNL1        0.0518
     23 C         -11.8505  -17.4797   20.3351 C.ar    1  UNL1        0.0148
     24 C         -12.4572  -17.0268   21.6301 C.ar    1  UNL1        0.0026
     25 C         -12.0799  -17.7061   22.9131 C.ar    1  UNL1        0.0200
     26 C         -11.0959  -18.8383   22.9012 C.ar    1  UNL1        0.1229
     27 C         -10.4893  -19.2911   21.6062 C.ar    1  UNL1        0.0346
     28 S         -10.7186  -19.5175   24.1842 S.O2    1  UNL1        0.0572
     29 N         -10.3413  -20.1968   25.4673 N.3     1  UNL1       -0.2035
     30 O         -11.8556  -18.8316   24.8818 O.2     1  UNL1       -0.1532
     31 O          -9.5816  -20.2035   23.4867 O.2     1  UNL1       -0.1532
     32 H         -10.9847  -19.9110   26.2053 H       1  UNL1        0.1442
     33 H          -9.3901  -19.9333   25.7246 H       1  UNL1        0.1442
@<TRIPOS>BOND
     1     9    10    1
     2    10    11   ar
     3    11    12   ar
     4    12    13   ar
     5    13    14   ar
     6    14     7    1
     7     7     8    1
     8     7     1    1
     9     1     2   ar
    10     2     3   ar
    11     3     4   ar
    12     4     5   ar
    13     5    20    1
    14    20    22    1
    15    22    23   ar
    16    23    24   ar
    17    24    25   ar
    18    25    26   ar
    19    26    28    1
    20    28    29    1
    21    28    30    2
    22    28    31    2
    23    26    27   ar
    24     5     6   ar
    25    14    15   ar
    26    15    16   ar
    27    16    17   ar
    28    17    18   ar
    29    18    19    1
    30    18    10   ar
    31    17    12   ar
    32     6     1   ar
    33    27    22   ar
    34    20    21    1
    35    29    32    1
    36    29    33    1
@<TRIPOS>MOLECULE
*****
 33 36 0 0 0
SMALL
GASTEIGER

@<TRIPOS>ATOM
      1 C         -16.9268   -2.4732   18.7499 C.ar    1  UNL1        0.1399
      2 C         -17.5355   -2.0417   17.4485 C.ar    1  UNL1        0.0554
      3 C         -18.8306   -2.6438   16.9902 C.ar    1  UNL1        0.1047
      4 N         -19.5171   -3.6773   17.8332 N.ar    1  UNL1       -0.2119
      5 C         -18.9085   -4.1088   19.1345 C.ar    1  UNL1        0.2218
      6 N         -17.6133   -3.5067   19.5929 N.ar    1  UNL1       -0.1983
      7 N         -15.6317   -1.8711   19.2082 N.pl3   1  UNL1       -0.2705
      8 C         -15.6367   -0.6101   20.0205 C.3     1  UNL1        0.1187
      9 C          -9.8737   -7.1915   18.8056 C.3     1  UNL1        0.0718
     10 C         -10.8011   -6.0159   18.7159 C.ar    1  UNL1        0.1208
     11 N         -12.1505   -5.9061   19.3616 N.ar    1  UNL1       -0.2309
     12 C         -12.7252   -4.5661   19.0095 C.ar    1  UNL1        0.0996
     13 C         -14.0254   -3.9072   19.3635 C.ar    1  UNL1        0.0355
     14 C         -14.3314   -2.5300   18.8542 C.ar    1  UNL1        0.0543
     15 C         -13.3372   -1.8116   17.9908 C.ar    1  UNL1        0.0164
     16 C         -12.0370   -2.4704   17.6368 C.ar    1  UNL1        0.0200
     17 C         -11.7310   -3.8477   18.1462 C.ar    1  UNL1        0.0787
     18 N         -10.5418   -4.7437   17.9647 N.ar    1  UNL1       -0.3129
     19 C          -9.3097   -4.4237   17.1713 C.3     1  UNL1        0.1316
     20 N         -19.5950   -5.1423   19.9775 N.pl3   1  UNL1       -0.2825
     21 H         -20.2974   -4.8724   20.6122 H       1  UNL1        0.1551
     22 C         -19.2112   -6.5870   19.8533 C.ar    1  UNL1        0.0518
     23 C         -20.2617   -7.6531   19.9515 C.ar    1  UNL1        0.0148
     24 C         -19.8780   -9.0979   19.8274 C.ar    1  UNL1        0.0026
     25 C         -18.4437   -9.4765   19.6049 C.ar    1  UNL1        0.0200
     26 C         -17.3931   -8.4103   19.5067 C.ar    1  UNL1        0.1229
     27 C         -17.7769   -6.9656   19.6308 C.ar    1  UNL1        0.0346
     28 S         -15.9589   -8.7889   19.2842 S.O2    1  UNL1        0.0572
     29 N         -14.5246   -9.1675   19.0618 N.3     1  UNL1       -0.2035
     30 O         -16.3403  -10.2395   19.2938 O.2     1  UNL1       -0.1532
     31 O         -15.5774   -7.3382   19.2746 O.2     1  UNL1       -0.1532
     32 H         -14.4440  -10.1833   19.0175 H       1  UNL1        0.1442
     33 H         -13.9564   -8.8146   19.8319 H       1  UNL1        0.1442
@<TRIPOS>BOND
     1     9    10    1
     2    10    11   ar
     3    11    12   ar
     4    12    13   ar
     5    13    14   ar
     6    14     7    1
     7     7     8    1
     8     7     1    1
     9     1     2   ar
    10     2     3   ar
    11     3     4   ar
    12     4     5   ar
    13     5    20    1
    14    20    22    1
    15    22    23   ar
    16    23    24   ar
    17    24    25   ar
    18    25    26   ar
    19    26    28    1
    20    28    29    1
    21    28    30    2
    22    28    31    2
    23    26    27   ar
    24     5     6   ar
    25    14    15   ar
    26    15    16   ar
    27    16    17   ar
    28    17    18   ar
    29    18    19    1
    30    18    10   ar
    31    17    12   ar
    32     6     1   ar
    33    27    22   ar
    34    20    21    1
    35    29    32    1
    36    29    33    1
@<TRIPOS>MOLECULE
*****
 33 36 0 0 0
SMALL
GASTEIGER

@<TRIPOS>ATOM
      1 C         -16.8673   -1.2474   19.2214 C.ar    1  UNL1        0.1399
      2 C         -17.9452   -0.5664   20.0116 C.ar    1  UNL1        0.0554
      3 C         -19.3024   -1.1948   20.1255 C.ar    1  UNL1        0.1047
      4 N         -19.5818   -2.5042   19.4492 N.ar    1  UNL1       -0.2119
      5 C         -18.5040   -3.1852   18.6590 C.ar    1  UNL1        0.2218
      6 N         -17.1467   -2.5568   18.5451 N.ar    1  UNL1       -0.1983
      7 N         -15.5100   -0.6190   19.1075 N.pl3   1  UNL1       -0.2705
      8 C         -15.3709    0.8744   19.1269 C.3     1  UNL1        0.1187
      9 C          -8.9145   -3.7602   16.2343 C.3     1  UNL1        0.0718
     10 C         -10.1361   -3.3458   16.9999 C.ar    1  UNL1        0.1208
     11 N         -11.1134   -2.2833   16.5927 N.ar    1  UNL1       -0.2309
     12 C         -12.1761   -2.2019   17.6482 C.ar    1  UNL1        0.0996
     13 C         -13.3943   -1.3369   17.7815 C.ar    1  UNL1        0.0355
     14 C         -14.2918   -1.4841   18.9742 C.ar    1  UNL1        0.0543
     15 C         -13.9712   -2.4963   20.0338 C.ar    1  UNL1        0.0164
     16 C         -12.7530   -3.3613   19.9005 C.ar    1  UNL1        0.0200
     17 C         -11.8555   -3.2141   18.7078 C.ar    1  UNL1        0.0787
     18 N         -10.5947   -3.9211   18.3070 N.ar    1  UNL1       -0.3129
     19 C          -9.9123   -5.0118   19.0781 C.3     1  UNL1        0.1316
     20 N         -18.7834   -4.4946   17.9827 N.pl3   1  UNL1       -0.2825
     21 H         -19.1024   -4.5094   17.0514 H       1  UNL1        0.1551
     22 C         -18.5768   -5.7814   18.7252 C.ar    1  UNL1        0.0518
     23 C         -19.6607   -6.3173   19.6129 C.ar    1  UNL1        0.0148
     24 C         -19.4541   -7.6042   20.3555 C.ar    1  UNL1        0.0026
     25 C         -18.1637   -8.3550   20.2104 C.ar    1  UNL1        0.0200
     26 C         -17.0798   -7.8190   19.3227 C.ar    1  UNL1        0.1229
     27 C         -17.2864   -6.5322   18.5801 C.ar    1  UNL1        0.0346
     28 S         -15.7894   -8.5698   19.1776 S.O2    1  UNL1        0.0572
     29 N         -14.4990   -9.3207   19.0325 N.3     1  UNL1       -0.2035
     30 O         -15.3141   -7.5594   18.1761 O.2     1  UNL1       -0.1532
     31 O         -16.2647   -9.5803   20.1791 O.2     1  UNL1       -0.1532
     32 H         -13.9018   -8.8430   18.3575 H       1  UNL1        0.1442
     33 H         -14.6915  -10.2676   18.7059 H       1  UNL1        0.1442
@<TRIPOS>BOND
     1     9    10    1
     2    10    11   ar
     3    11    12   ar
     4    12    13   ar
     5    13    14   ar
     6    14     7    1
     7     7     8    1
     8     7     1    1
     9     1     2   ar
    10     2     3   ar
    11     3     4   ar
    12     4     5   ar
    13     5    20    1
    14    20    22    1
    15    22    23   ar
    16    23    24   ar
    17    24    25   ar
    18    25    26   ar
    19    26    28    1
    20    28    29    1
    21    28    30    2
    22    28    31    2
    23    26    27   ar
    24     5     6   ar
    25    14    15   ar
    26    15    16   ar
    27    16    17   ar
    28    17    18   ar
    29    18    19    1
    30    18    10   ar
    31    17    12   ar
    32     6     1   ar
    33    27    22   ar
    34    20    21    1
    35    29    32    1
    36    29    33    1
@<TRIPOS>MOLECULE
*****
 33 36 0 0 0
SMALL
GASTEIGER

@<TRIPOS>ATOM
      1 C         -16.7590   -6.9799   18.3702 C.ar    1  UNL1        0.1399
      2 C         -17.2616   -8.0356   19.3100 C.ar    1  UNL1        0.0554
      3 C         -16.3515   -9.1444   19.7484 C.ar    1  UNL1        0.1047
      4 N         -14.9387   -9.1975   19.2471 N.ar    1  UNL1       -0.2119
      5 C         -14.4361   -8.1420   18.3074 C.ar    1  UNL1        0.2218
      6 N         -15.3462   -7.0331   17.8689 N.ar    1  UNL1       -0.1983
      7 N         -17.6691   -5.8712   17.9318 N.pl3   1  UNL1       -0.2705
      8 C         -18.7895   -6.1544   16.9755 C.3     1  UNL1        0.1187
      9 C         -14.6590    1.3144   18.8963 C.3     1  UNL1        0.0718
     10 C         -15.4196    0.0217   18.9172 C.ar    1  UNL1        0.1208
     11 N         -15.1411   -1.1791   18.0624 N.ar    1  UNL1       -0.2309
     12 C         -16.1415   -2.2401   18.4134 C.ar    1  UNL1        0.0996
     13 C         -16.3518   -3.6321   17.8956 C.ar    1  UNL1        0.0355
     14 C         -17.4588   -4.4791   18.4496 C.ar    1  UNL1        0.0543
     15 C         -18.3556   -3.9342   19.5214 C.ar    1  UNL1        0.0164
     16 C         -18.1454   -2.5422   20.0393 C.ar    1  UNL1        0.0200
     17 C         -17.0383   -1.6952   19.4853 C.ar    1  UNL1        0.0787
     18 N         -16.5921   -0.2974   19.7966 N.ar    1  UNL1       -0.3129
     19 C         -17.2100    0.6204   20.8095 C.3     1  UNL1        0.1316
     20 N         -13.0233   -8.1952   17.8061 N.pl3   1  UNL1       -0.2825
     21 H         -12.7453   -8.9135   17.1931 H       1  UNL1        0.1551
     22 C         -12.0342   -7.1539   18.2390 C.ar    1  UNL1        0.0518
     23 C         -10.6129   -7.5411   18.5216 C.ar    1  UNL1        0.0148
     24 C          -9.6237   -6.4998   18.9545 C.ar    1  UNL1        0.0026
     25 C         -10.0559   -5.0713   19.1047 C.ar    1  UNL1        0.0200
     26 C         -11.4773   -4.6841   18.8220 C.ar    1  UNL1        0.1229
     27 C         -12.4664   -5.7254   18.3892 C.ar    1  UNL1        0.0346
     28 S         -11.9095   -3.2556   18.9722 S.O2    1  UNL1        0.0572
     29 N         -12.3417   -1.8271   19.1225 N.3     1  UNL1       -0.2035
     30 O         -10.6665   -2.8050   18.2638 O.2     1  UNL1       -0.1532
     31 O         -13.1525   -3.7062   19.6807 O.2     1  UNL1       -0.1532
     32 H         -11.6428   -1.2144   18.7023 H       1  UNL1        0.1442
     33 H         -12.4385   -1.6035   20.1129 H       1  UNL1        0.1442
@<TRIPOS>BOND
     1     9    10    1
     2    10    11   ar
     3    11    12   ar
     4    12    13   ar
     5    13    14   ar
     6    14     7    1
     7     7     8    1
     8     7     1    1
     9     1     2   ar
    10     2     3   ar
    11     3     4   ar
    12     4     5   ar
    13     5    20    1
    14    20    22    1
    15    22    23   ar
    16    23    24   ar
    17    24    25   ar
    18    25    26   ar
    19    26    28    1
    20    28    29    1
    21    28    30    2
    22    28    31    2
    23    26    27   ar
    24     5     6   ar
    25    14    15   ar
    26    15    16   ar
    27    16    17   ar
    28    17    18   ar
    29    18    19    1
    30    18    10   ar
    31    17    12   ar
    32     6     1   ar
    33    27    22   ar
    34    20    21    1
    35    29    32    1
    36    29    33    1
