@<TRIPOS>MOLECULE
*****
 37 41 0 0 0
SMALL
GASTEIGER

@<TRIPOS>ATOM
      1 N           6.1030   -1.2242   27.4489 N.am    1  UNL1       -0.3018
      2 C           6.4868   -2.6398   27.1348 C.2     1  UNL1        0.2425
      3 O           6.5243   -3.6669   28.2273 O.2     1  UNL1       -0.2733
      4 H           6.0784   -0.5501   26.7318 H       1  UNL1        0.1495
      5 N           5.2671   -0.2862   30.8453 N.3     1  UNL1       -0.2711
      6 C           6.5354   -0.3648   30.0483 C.3     1  UNL1        0.0933
      7 C           5.7567   -0.8357   28.8557 C.3     1  UNL1        0.1035
      8 C           4.4885   -0.7571   29.6528 C.3     1  UNL1        0.0933
      9 C           4.2281    0.8793   35.0658 C.3     1  UNL1        0.0421
     10 C           4.1772    1.9032   33.9707 C.3     1  UNL1        0.0074
     11 C           4.5235    1.5147   32.5640 C.3     1  UNL1        0.0163
     12 C           4.9207    0.1023   32.2521 C.3     1  UNL1        0.0576
     13 C           4.9717   -0.9216   33.3471 C.3     1  UNL1        0.0163
     14 C           4.6254   -0.5331   34.7540 C.3     1  UNL1        0.0074
     15 C           1.5323    2.4806   39.3142 C.3     1  UNL1        0.1537
     16 N           2.6426    2.0040   38.4253 N.ar    1  UNL1       -0.2477
     17 C           4.0548    1.7281   38.8493 C.ar    1  UNL1        0.0964
     18 C           4.8206    1.2732   37.6424 C.ar    1  UNL1        0.0366
     19 C           3.8818    1.2679   36.4725 C.ar    1  UNL1        0.0797
     20 N           2.5357    1.7196   36.9564 N.ar    1  UNL1       -0.1736
     21 C           6.8331   -3.0283   25.7279 C.3     1  UNL1        0.1747
     22 N           5.7650   -3.5376   24.8059 N.pl3   1  UNL1       -0.3093
     23 H           5.6467   -4.5064   24.6772 H       1  UNL1        0.1487
     24 C           4.8772   -2.5706   24.0801 C.ar    1  UNL1        0.1500
     25 N           4.2696   -1.3269   24.6582 N.ar    1  UNL1       -0.1544
     26 N           3.4580   -0.6652   23.5841 N.ar    1  UNL1       -0.2476
     27 C           2.6775    0.6077   23.7268 C.3     1  UNL1        0.1537
     28 C           3.5641   -1.4999   22.3423 C.ar    1  UNL1        0.0807
     29 C           2.9753   -1.3399   20.9721 C.ar    1  UNL1        0.0188
     30 C           3.2636   -2.3574   19.9084 C.ar    1  UNL1        0.0054
     31 C           4.1407   -3.5350   20.2150 C.ar    1  UNL1        0.0716
     32 C           4.7295   -3.6951   21.5852 C.ar    1  UNL1        0.0082
     33 C           4.4412   -2.6775   22.6489 C.ar    1  UNL1        0.0503
     34 C           4.4289   -4.5525   19.1512 C.3     1  UNL1        0.4186
     35 F           4.7172   -5.5701   18.0875 F       1  UNL1       -0.1659
     36 F           5.3417   -3.5786   18.4669 F       1  UNL1       -0.1659
     37 F           3.5162   -5.5264   19.8355 F       1  UNL1       -0.1659
@<TRIPOS>BOND
     1    15    16    1
     2    16    17   ar
     3    17    18   ar
     4    18    19   ar
     5     9    19    1
     6     9    10    1
     7    10    11    1
     8    11    12    1
     9    12     5    1
    10     5     6    1
    11     6     7    1
    12     7     1    1
    13     1     2   am
    14     2     3    2
    15     2    21    1
    16    21    22    1
    17    22    24    1
    18    24    25   ar
    19    25    26   ar
    20    26    27    1
    21    26    28   ar
    22    28    29   ar
    23    29    30   ar
    24    30    31   ar
    25    31    34    1
    26    34    35    1
    27    34    36    1
    28    34    37    1
    29    31    32   ar
    30    32    33   ar
    31     7     8    1
    32    12    13    1
    33    13    14    1
    34    19    20   ar
    35    20    16   ar
    36    14     9    1
    37     8     5    1
    38    33    24   ar
    39    33    28   ar
    40     1     4    1
    41    22    23    1
@<TRIPOS>MOLECULE
*****
 37 41 0 0 0
SMALL
GASTEIGER

@<TRIPOS>ATOM
      1 N           1.0928    2.4744   29.4678 N.am    1  UNL1       -0.3018
      2 C           1.1842    1.5961   30.6802 C.2     1  UNL1        0.2425
      3 O           1.6155    0.1663   30.5398 O.2     1  UNL1       -0.2733
      4 H           0.8097    3.4128   29.5599 H       1  UNL1        0.1495
      5 N           1.9132    1.1430   26.2015 N.3     1  UNL1       -0.2711
      6 C           0.6615    1.2439   27.0219 C.3     1  UNL1        0.0933
      7 C           1.4327    1.9230   28.1148 C.3     1  UNL1        0.1035
      8 C           2.6843    1.8221   27.2944 C.3     1  UNL1        0.0933
      9 C           2.9329   -0.5114   22.1428 C.3     1  UNL1        0.0421
     10 C           1.9575    0.6214   22.2676 C.3     1  UNL1        0.0074
     11 C           1.6176    1.1728   23.6205 C.3     1  UNL1        0.0163
     12 C           2.2531    0.5916   24.8486 C.3     1  UNL1        0.0576
     13 C           3.2285   -0.5412   24.7238 C.3     1  UNL1        0.0163
     14 C           3.5684   -1.0926   23.3709 C.3     1  UNL1        0.0074
     15 C           3.7586   -0.9028   16.9422 C.3     1  UNL1        0.1537
     16 N           3.6522   -1.2427   18.3994 N.ar    1  UNL1       -0.2477
     17 C           3.9389   -2.5796   19.0161 C.ar    1  UNL1        0.0964
     18 C           3.7044   -2.4684   20.4935 C.ar    1  UNL1        0.0366
     19 C           3.2727   -1.0628   20.7899 C.ar    1  UNL1        0.0797
     20 N           3.2405   -0.3052   19.4955 N.ar    1  UNL1       -0.1736
     21 C           0.8443    2.1476   32.0331 C.3     1  UNL1        0.1747
     22 N           1.7970    3.0770   32.7252 N.pl3   1  UNL1       -0.3093
     23 H           2.1322    3.8760   32.2577 H       1  UNL1        0.1487
     24 C           2.2388    2.7890   34.1294 C.ar    1  UNL1        0.1500
     25 N           1.8797    3.5867   35.3478 N.ar    1  UNL1       -0.1544
     26 N           2.5363    2.9434   36.5331 N.ar    1  UNL1       -0.2476
     27 C           2.4442    3.4130   37.9548 C.3     1  UNL1        0.1537
     28 C           3.3012    1.7480   36.0473 C.ar    1  UNL1        0.0807
     29 C           4.1414    0.7342   36.7657 C.ar    1  UNL1        0.0188
     30 C           4.7977   -0.3751   35.9985 C.ar    1  UNL1        0.0054
     31 C           4.6138   -0.4706   34.5129 C.ar    1  UNL1        0.0716
     32 C           3.7736    0.5433   33.7945 C.ar    1  UNL1        0.0082
     33 C           3.1174    1.6526   34.5617 C.ar    1  UNL1        0.0503
     34 C           5.2701   -1.5800   33.7457 C.3     1  UNL1        0.4186
     35 F           5.9264   -2.6894   32.9785 F       1  UNL1       -0.1659
     36 F           6.4327   -0.6822   33.4419 F       1  UNL1       -0.1659
     37 F           4.1076   -2.4778   34.0495 F       1  UNL1       -0.1659
@<TRIPOS>BOND
     1    15    16    1
     2    16    17   ar
     3    17    18   ar
     4    18    19   ar
     5     9    19    1
     6     9    10    1
     7    10    11    1
     8    11    12    1
     9    12     5    1
    10     5     6    1
    11     6     7    1
    12     7     1    1
    13     1     2   am
    14     2     3    2
    15     2    21    1
    16    21    22    1
    17    22    24    1
    18    24    25   ar
    19    25    26   ar
    20    26    27    1
    21    26    28   ar
    22    28    29   ar
    23    29    30   ar
    24    30    31   ar
    25    31    34    1
    26    34    35    1
    27    34    36    1
    28    34    37    1
    29    31    32   ar
    30    32    33   ar
    31     7     8    1
    32    12    13    1
    33    13    14    1
    34    19    20   ar
    35    20    16   ar
    36    14     9    1
    37     8     5    1
    38    33    24   ar
    39    33    28   ar
    40     1     4    1
    41    22    23    1
@<TRIPOS>MOLECULE
*****
 37 41 0 0 0
SMALL
GASTEIGER

@<TRIPOS>ATOM
      1 N           3.8976    0.7729   33.0499 N.am    1  UNL1       -0.3018
      2 C           4.2257   -0.6744   33.2682 C.2     1  UNL1        0.2425
      3 O           3.6115   -1.7235   32.3896 O.2     1  UNL1       -0.2733
      4 H           4.3008    1.4615   33.6266 H       1  UNL1        0.1495
      5 N           1.6223    1.7340   30.4017 N.3     1  UNL1       -0.2711
      6 C           1.5655    1.7334   31.9006 C.3     1  UNL1        0.0933
      7 C           2.9552    1.1710   31.9529 C.3     1  UNL1        0.1035
      8 C           3.0119    1.1716   30.4541 C.3     1  UNL1        0.0933
      9 C          -1.2050    2.9283   27.1108 C.3     1  UNL1        0.0421
     10 C          -0.2174    3.9212   27.6483 C.3     1  UNL1        0.0074
     11 C           0.7249    3.5231   28.7452 C.3     1  UNL1        0.0163
     12 C           0.6798    2.1321   29.3047 C.3     1  UNL1        0.0576
     13 C          -0.3077    1.1392   28.7672 C.3     1  UNL1        0.0163
     14 C          -1.2501    1.5373   27.6702 C.3     1  UNL1        0.0074
     15 C          -5.5658    4.4097   24.5281 C.3     1  UNL1        0.1537
     16 N          -4.1518    4.0075   24.8267 N.ar    1  UNL1       -0.2477
     17 C          -3.0436    3.8713   23.8250 C.ar    1  UNL1        0.0964
     18 C          -1.8048    3.4505   24.5587 C.ar    1  UNL1        0.0366
     19 C          -2.1474    3.3265   26.0138 C.ar    1  UNL1        0.0797
     20 N          -3.5980    3.6708   26.1794 N.ar    1  UNL1       -0.1736
     21 C           5.1682   -1.0725   34.3652 C.3     1  UNL1        0.1747
     22 N           4.7525   -0.9304   35.7995 N.pl3   1  UNL1       -0.3093
     23 H           4.1112   -1.5663   36.1915 H       1  UNL1        0.1487
     24 C           5.3138    0.1806   36.6365 C.ar    1  UNL1        0.1500
     25 N           6.7642    0.5404   36.7662 N.ar    1  UNL1       -0.1544
     26 N           6.8701    1.7090   37.7006 N.ar    1  UNL1       -0.2476
     27 C           8.1383    2.3948   38.1146 C.3     1  UNL1        0.1537
     28 C           5.4851    2.0713   38.1485 C.ar    1  UNL1        0.0807
     29 C           4.9756    3.1394   39.0703 C.ar    1  UNL1        0.0188
     30 C           3.5042    3.2628   39.3343 C.ar    1  UNL1        0.0054
     31 C           2.5424    2.3181   38.6767 C.ar    1  UNL1        0.0716
     32 C           3.0519    1.2501   37.7549 C.ar    1  UNL1        0.0082
     33 C           4.5233    1.1267   37.4909 C.ar    1  UNL1        0.0503
     34 C           1.0709    2.4416   38.9407 C.3     1  UNL1        0.4186
     35 F          -0.4005    2.5650   39.2048 F       1  UNL1       -0.1659
     36 F           1.1586    1.3332   39.9476 F       1  UNL1       -0.1659
     37 F           0.9832    3.5499   37.9339 F       1  UNL1       -0.1659
@<TRIPOS>BOND
     1    15    16    1
     2    16    17   ar
     3    17    18   ar
     4    18    19   ar
     5     9    19    1
     6     9    10    1
     7    10    11    1
     8    11    12    1
     9    12     5    1
    10     5     6    1
    11     6     7    1
    12     7     1    1
    13     1     2   am
    14     2     3    2
    15     2    21    1
    16    21    22    1
    17    22    24    1
    18    24    25   ar
    19    25    26   ar
    20    26    27    1
    21    26    28   ar
    22    28    29   ar
    23    29    30   ar
    24    30    31   ar
    25    31    34    1
    26    34    35    1
    27    34    36    1
    28    34    37    1
    29    31    32   ar
    30    32    33   ar
    31     7     8    1
    32    12    13    1
    33    13    14    1
    34    19    20   ar
    35    20    16   ar
    36    14     9    1
    37     8     5    1
    38    33    24   ar
    39    33    28   ar
    40     1     4    1
    41    22    23    1
@<TRIPOS>MOLECULE
*****
 37 41 0 0 0
SMALL
GASTEIGER

@<TRIPOS>ATOM
      1 N           2.5829   -0.1258   26.0432 N.am    1  UNL1       -0.3018
      2 C           3.7394   -0.7082   25.2862 C.2     1  UNL1        0.2425
      3 O           5.0145   -1.0398   26.0033 O.2     1  UNL1       -0.2733
      4 H           1.7460    0.0918   25.5725 H       1  UNL1        0.1495
      5 N           2.8691    0.4799   29.6020 N.3     1  UNL1       -0.2711
      6 C           3.5232    1.0416   28.3746 C.3     1  UNL1        0.0933
      7 C           2.7014    0.1250   27.5173 C.3     1  UNL1        0.1035
      8 C           2.0474   -0.4366   28.7448 C.3     1  UNL1        0.0933
      9 C           3.2248    1.2324   34.0244 C.3     1  UNL1        0.0421
     10 C           4.1655    0.2800   33.3476 C.3     1  UNL1        0.0074
     11 C           4.0470    0.0292   31.8735 C.3     1  UNL1        0.0163
     12 C           2.9877    0.7307   31.0762 C.3     1  UNL1        0.0576
     13 C           2.0469    1.6830   31.7530 C.3     1  UNL1        0.0163
     14 C           2.1655    1.9338   33.2271 C.3     1  UNL1        0.0074
     15 C           2.3377    3.0766   38.8919 C.3     1  UNL1        0.1537
     16 N           2.9357    2.3308   37.7359 N.ar    1  UNL1       -0.2477
     17 C           4.1160    1.4073   37.7981 C.ar    1  UNL1        0.0964
     18 C           4.3680    0.8834   36.4154 C.ar    1  UNL1        0.0366
     19 C           3.3434    1.4831   35.4985 C.ar    1  UNL1        0.0797
     20 N           2.4581    2.3777   36.3147 N.ar    1  UNL1       -0.1736
     21 C           3.6209   -0.9591   23.8121 C.3     1  UNL1        0.1747
     22 N           2.4237   -0.4579   23.0599 N.pl3   1  UNL1       -0.3093
     23 H           1.5275   -0.5211   23.4625 H       1  UNL1        0.1487
     24 C           2.5920    0.1395   21.6943 C.ar    1  UNL1        0.1500
     25 N           2.3242    1.5663   21.3170 N.ar    1  UNL1       -0.1544
     26 N           2.6244    1.7235   19.8558 N.ar    1  UNL1       -0.2476
     27 C           2.4942    2.9883   19.0600 C.3     1  UNL1        0.1537
     28 C           3.0777    0.3938   19.3300 C.ar    1  UNL1        0.0807
     29 C           3.5061   -0.0520   17.9634 C.ar    1  UNL1        0.0188
     30 C           3.9145   -1.4768   17.7331 C.ar    1  UNL1        0.0054
     31 C           3.8945   -2.4558   18.8693 C.ar    1  UNL1        0.0716
     32 C           3.4661   -2.0100   20.2360 C.ar    1  UNL1        0.0082
     33 C           3.0577   -0.5852   20.4663 C.ar    1  UNL1        0.0503
     34 C           4.3029   -3.8807   18.6390 C.3     1  UNL1        0.4186
     35 F           4.7112   -5.3055   18.4086 F       1  UNL1       -0.1659
     36 F           5.7036   -3.4318   18.3451 F       1  UNL1       -0.1659
     37 F           2.9021   -4.3296   18.9328 F       1  UNL1       -0.1659
@<TRIPOS>BOND
     1    15    16    1
     2    16    17   ar
     3    17    18   ar
     4    18    19   ar
     5     9    19    1
     6     9    10    1
     7    10    11    1
     8    11    12    1
     9    12     5    1
    10     5     6    1
    11     6     7    1
    12     7     1    1
    13     1     2   am
    14     2     3    2
    15     2    21    1
    16    21    22    1
    17    22    24    1
    18    24    25   ar
    19    25    26   ar
    20    26    27    1
    21    26    28   ar
    22    28    29   ar
    23    29    30   ar
    24    30    31   ar
    25    31    34    1
    26    34    35    1
    27    34    36    1
    28    34    37    1
    29    31    32   ar
    30    32    33   ar
    31     7     8    1
    32    12    13    1
    33    13    14    1
    34    19    20   ar
    35    20    16   ar
    36    14     9    1
    37     8     5    1
    38    33    24   ar
    39    33    28   ar
    40     1     4    1
    41    22    23    1
@<TRIPOS>MOLECULE
*****
 37 41 0 0 0
SMALL
GASTEIGER

@<TRIPOS>ATOM
      1 N           1.1957    2.5553   29.5140 N.am    1  UNL1       -0.3018
      2 C           1.2418    1.7340   30.7683 C.2     1  UNL1        0.2425
      3 O           1.6429    0.2900   30.7050 O.2     1  UNL1       -0.2733
      4 H           0.9324    3.5031   29.5556 H       1  UNL1        0.1495
      5 N           2.0531    1.0521   26.3329 N.3     1  UNL1       -0.2711
      6 C           2.6991    2.0577   27.2393 C.3     1  UNL1        0.0933
      7 C           1.5508    1.9327   28.1964 C.3     1  UNL1        0.1035
      8 C           0.9049    0.9272   27.2900 C.3     1  UNL1        0.0933
      9 C           3.1185   -0.8159   22.3800 C.3     1  UNL1        0.0421
     10 C           3.8065   -1.2692   23.6336 C.3     1  UNL1        0.0074
     11 C           3.4514   -0.6465   24.9511 C.3     1  UNL1        0.0163
     12 C           2.4082    0.4294   25.0153 C.3     1  UNL1        0.0576
     13 C           1.7202    0.8827   23.7619 C.3     1  UNL1        0.0163
     14 C           2.0753    0.2601   22.4442 C.3     1  UNL1        0.0074
     15 C           4.7281   -4.2796   18.7341 C.3     1  UNL1        0.1537
     16 N           4.2136   -3.0307   19.3866 N.ar    1  UNL1       -0.2477
     17 C           3.8271   -1.7634   18.6833 C.ar    1  UNL1        0.0964
     18 C           3.3698   -0.7795   19.7190 C.ar    1  UNL1        0.0366
     19 C           3.4737   -1.4386   21.0625 C.ar    1  UNL1        0.0797
     20 N           3.9952   -2.8300   20.8570 N.ar    1  UNL1       -0.1736
     21 C           0.8866    2.3567   32.0859 C.3     1  UNL1        0.1747
     22 N           1.8852    3.2167   32.8025 N.pl3   1  UNL1       -0.3093
     23 H           2.2814    3.9946   32.3473 H       1  UNL1        0.1487
     24 C           2.2801    2.8915   34.2126 C.ar    1  UNL1        0.1500
     25 N           1.8739    3.6525   35.4397 N.ar    1  UNL1       -0.1544
     26 N           2.4933    2.9795   36.6286 N.ar    1  UNL1       -0.2476
     27 C           2.3491    3.4082   38.0588 C.3     1  UNL1        0.1537
     28 C           3.2823    1.8027   36.1362 C.ar    1  UNL1        0.0807
     29 C           4.1037    0.7735   36.8546 C.ar    1  UNL1        0.0188
     30 C           4.7933   -0.3100   36.0798 C.ar    1  UNL1        0.0054
     31 C           4.6616   -0.3644   34.5866 C.ar    1  UNL1        0.0716
     32 C           3.8402    0.6647   33.8682 C.ar    1  UNL1        0.0082
     33 C           3.1505    1.7483   34.6430 C.ar    1  UNL1        0.0503
     34 C           5.3512   -1.4480   33.8118 C.3     1  UNL1        0.4186
     35 F           6.0408   -2.5316   33.0371 F       1  UNL1       -0.1659
     36 F           6.5305   -0.5457   33.5996 F       1  UNL1       -0.1659
     37 F           4.1719   -2.3503   34.0241 F       1  UNL1       -0.1659
@<TRIPOS>BOND
     1    15    16    1
     2    16    17   ar
     3    17    18   ar
     4    18    19   ar
     5     9    19    1
     6     9    10    1
     7    10    11    1
     8    11    12    1
     9    12     5    1
    10     5     6    1
    11     6     7    1
    12     7     1    1
    13     1     2   am
    14     2     3    2
    15     2    21    1
    16    21    22    1
    17    22    24    1
    18    24    25   ar
    19    25    26   ar
    20    26    27    1
    21    26    28   ar
    22    28    29   ar
    23    29    30   ar
    24    30    31   ar
    25    31    34    1
    26    34    35    1
    27    34    36    1
    28    34    37    1
    29    31    32   ar
    30    32    33   ar
    31     7     8    1
    32    12    13    1
    33    13    14    1
    34    19    20   ar
    35    20    16   ar
    36    14     9    1
    37     8     5    1
    38    33    24   ar
    39    33    28   ar
    40     1     4    1
    41    22    23    1
@<TRIPOS>MOLECULE
*****
 37 41 0 0 0
SMALL
GASTEIGER

@<TRIPOS>ATOM
      1 N           0.9242    1.1461   18.2611 N.am    1  UNL1       -0.3018
      2 C           0.4200    2.4530   18.7976 C.2     1  UNL1        0.2425
      3 O           0.7908    2.8875   20.1845 O.2     1  UNL1       -0.2733
      4 H           0.6808    0.8609   17.3508 H       1  UNL1        0.1495
      5 N           3.0363   -0.9601   20.3146 N.3     1  UNL1       -0.2711
      6 C           1.5590   -0.8451   20.0816 C.3     1  UNL1        0.0933
      7 C           1.7991    0.2737   19.1117 C.3     1  UNL1        0.1035
      8 C           3.2763    0.1587   19.3447 C.3     1  UNL1        0.0933
      9 C           5.6610   -3.5773   22.8663 C.3     1  UNL1        0.0421
     10 C           5.6290   -3.7698   21.3790 C.3     1  UNL1        0.0074
     11 C           4.7542   -2.8974   20.5285 C.3     1  UNL1        0.0163
     12 C           3.9112   -1.8325   21.1652 C.3     1  UNL1        0.0576
     13 C           3.9432   -1.6400   22.6524 C.3     1  UNL1        0.0163
     14 C           4.8181   -2.5124   23.5030 C.3     1  UNL1        0.0074
     15 C           9.1079   -7.2805   24.3782 C.3     1  UNL1        0.1537
     16 N           8.1203   -6.1519   24.4117 N.ar    1  UNL1       -0.2477
     17 C           7.6445   -5.4328   25.6391 C.ar    1  UNL1        0.0964
     18 C           6.6653   -4.3808   25.2096 C.ar    1  UNL1        0.0366
     19 C           6.5359   -4.4497   23.7168 C.ar    1  UNL1        0.0797
     20 N           7.4353   -5.5444   23.2237 N.ar    1  UNL1       -0.1736
     21 C          -0.4549    3.3254   17.9470 C.3     1  UNL1        0.1747
     22 N          -1.2994    4.3890   18.5839 N.pl3   1  UNL1       -0.3093
     23 H          -0.9626    5.3119   18.6487 H       1  UNL1        0.1487
     24 C          -2.6570    4.0466   19.1221 C.ar    1  UNL1        0.1500
     25 N          -3.8971    3.8222   18.3086 N.ar    1  UNL1       -0.1544
     26 N          -5.0193    3.5053   19.2521 N.ar    1  UNL1       -0.2476
     27 C          -6.4388    3.2115   18.8666 C.3     1  UNL1        0.1537
     28 C          -4.4728    3.5338   20.6487 C.ar    1  UNL1        0.0807
     29 C          -5.1160    3.2984   21.9831 C.ar    1  UNL1        0.0188
     30 C          -4.2992    3.3975   23.2373 C.ar    1  UNL1        0.0054
     31 C          -2.8392    3.7320   23.1570 C.ar    1  UNL1        0.0716
     32 C          -2.1960    3.9674   21.8225 C.ar    1  UNL1        0.0082
     33 C          -3.0128    3.8683   20.5684 C.ar    1  UNL1        0.0503
     34 C          -2.0224    3.8311   24.4112 C.3     1  UNL1        0.4186
     35 F          -1.2055    3.9302   25.6654 F       1  UNL1       -0.1659
     36 F          -3.0812    3.0777   25.1604 F       1  UNL1       -0.1659
     37 F          -0.9636    4.5845   23.6621 F       1  UNL1       -0.1659
@<TRIPOS>BOND
     1    15    16    1
     2    16    17   ar
     3    17    18   ar
     4    18    19   ar
     5     9    19    1
     6     9    10    1
     7    10    11    1
     8    11    12    1
     9    12     5    1
    10     5     6    1
    11     6     7    1
    12     7     1    1
    13     1     2   am
    14     2     3    2
    15     2    21    1
    16    21    22    1
    17    22    24    1
    18    24    25   ar
    19    25    26   ar
    20    26    27    1
    21    26    28   ar
    22    28    29   ar
    23    29    30   ar
    24    30    31   ar
    25    31    34    1
    26    34    35    1
    27    34    36    1
    28    34    37    1
    29    31    32   ar
    30    32    33   ar
    31     7     8    1
    32    12    13    1
    33    13    14    1
    34    19    20   ar
    35    20    16   ar
    36    14     9    1
    37     8     5    1
    38    33    24   ar
    39    33    28   ar
    40     1     4    1
    41    22    23    1
@<TRIPOS>MOLECULE
*****
 37 41 0 0 0
SMALL
GASTEIGER

@<TRIPOS>ATOM
      1 N           1.7227    0.4478   25.6665 N.am    1  UNL1       -0.3018
      2 C           0.9935    1.2813   24.6548 C.2     1  UNL1        0.2425
      3 O           0.2993    2.5408   25.0809 O.2     1  UNL1       -0.2733
      4 H           2.1784   -0.3789   25.3868 H       1  UNL1        0.1495
      5 N           1.8070    1.4763   29.1377 N.3     1  UNL1       -0.2711
      6 C           0.9578    0.5411   28.3289 C.3     1  UNL1        0.0933
      7 C           1.7577    0.8738   27.1043 C.3     1  UNL1        0.1035
      8 C           2.6068    1.8090   27.9131 C.3     1  UNL1        0.0933
      9 C           1.9118    2.7545   33.4511 C.3     1  UNL1        0.0421
     10 C           2.7049    1.5629   33.0023 C.3     1  UNL1        0.0074
     11 C           2.6700    1.1369   31.5646 C.3     1  UNL1        0.0163
     12 C           1.8419    1.9024   30.5755 C.3     1  UNL1        0.0576
     13 C           1.0489    3.0939   31.0241 C.3     1  UNL1        0.0163
     14 C           1.0838    3.5199   32.4619 C.3     1  UNL1        0.0074
     15 C           2.5235    2.6861   38.6953 C.3     1  UNL1        0.1537
     16 N           2.2280    3.1490   37.2994 N.ar    1  UNL1       -0.2477
     17 C           1.7735    4.5226   36.9036 C.ar    1  UNL1        0.0964
     18 C           1.5997    4.5420   35.4139 C.ar    1  UNL1        0.0366
     19 C           1.9468    3.1804   34.8888 C.ar    1  UNL1        0.0797
     20 N           2.3351    2.3195   36.0542 N.ar    1  UNL1       -0.1736
     21 C           0.9586    0.8552   23.2170 C.3     1  UNL1        0.1747
     22 N           2.1430    0.1621   22.6112 N.pl3   1  UNL1       -0.3093
     23 H           2.6121   -0.5418   23.1148 H       1  UNL1        0.1487
     24 C           2.6124    0.5414   21.2379 C.ar    1  UNL1        0.1500
     25 N           2.6160    1.9248   20.6582 N.ar    1  UNL1       -0.1544
     26 N           3.1665    1.8422   19.2653 N.ar    1  UNL1       -0.2476
     27 C           3.3484    2.9922   18.3196 C.3     1  UNL1        0.1537
     28 C           3.5032    0.4077   18.9842 C.ar    1  UNL1        0.0807
     29 C           4.0773   -0.2702   17.7756 C.ar    1  UNL1        0.0188
     30 C           4.3090   -1.7521   17.7862 C.ar    1  UNL1        0.0054
     31 C           3.9665   -2.5561   19.0054 C.ar    1  UNL1        0.0716
     32 C           3.3924   -1.8782   20.2140 C.ar    1  UNL1        0.0082
     33 C           3.1607   -0.3962   20.2034 C.ar    1  UNL1        0.0503
     34 C           4.1982   -4.0381   19.0159 C.3     1  UNL1        0.4186
     35 F           4.4300   -5.5200   19.0265 F       1  UNL1       -0.1659
     36 F           2.7166   -4.2700   18.9849 F       1  UNL1       -0.1659
     37 F           5.6798   -3.8062   19.0470 F       1  UNL1       -0.1659
@<TRIPOS>BOND
     1    15    16    1
     2    16    17   ar
     3    17    18   ar
     4    18    19   ar
     5     9    19    1
     6     9    10    1
     7    10    11    1
     8    11    12    1
     9    12     5    1
    10     5     6    1
    11     6     7    1
    12     7     1    1
    13     1     2   am
    14     2     3    2
    15     2    21    1
    16    21    22    1
    17    22    24    1
    18    24    25   ar
    19    25    26   ar
    20    26    27    1
    21    26    28   ar
    22    28    29   ar
    23    29    30   ar
    24    30    31   ar
    25    31    34    1
    26    34    35    1
    27    34    36    1
    28    34    37    1
    29    31    32   ar
    30    32    33   ar
    31     7     8    1
    32    12    13    1
    33    13    14    1
    34    19    20   ar
    35    20    16   ar
    36    14     9    1
    37     8     5    1
    38    33    24   ar
    39    33    28   ar
    40     1     4    1
    41    22    23    1
@<TRIPOS>MOLECULE
*****
 37 41 0 0 0
SMALL
GASTEIGER

@<TRIPOS>ATOM
      1 N           3.7215   -1.6306   27.2514 N.am    1  UNL1       -0.3018
      2 C           5.1795   -1.6234   26.8989 C.2     1  UNL1        0.2425
      3 O           6.0928   -0.5999   27.5058 O.2     1  UNL1       -0.2733
      4 H           3.1221   -2.3023   26.8530 H       1  UNL1        0.1495
      5 N           2.4067    0.8231   29.5676 N.3     1  UNL1       -0.2711
      6 C           3.6003    0.7523   28.6618 C.3     1  UNL1        0.0933
      7 C           3.1769   -0.6143   28.2108 C.3     1  UNL1        0.1035
      8 C           1.9834   -0.5434   29.1165 C.3     1  UNL1        0.0933
      9 C           0.7729    3.8721   32.4458 C.3     1  UNL1        0.0421
     10 C           0.6177    4.0770   30.9680 C.3     1  UNL1        0.0074
     11 C           1.1623    3.0607   30.0086 C.3     1  UNL1        0.0163
     12 C           1.8621    1.8394   30.5270 C.3     1  UNL1        0.0576
     13 C           2.0173    1.6345   32.0048 C.3     1  UNL1        0.0163
     14 C           1.4726    2.6508   32.9642 C.3     1  UNL1        0.0074
     15 C          -2.4011    7.4067   34.7508 C.3     1  UNL1        0.1537
     16 N          -1.2307    6.5132   34.4646 N.ar    1  UNL1       -0.2477
     17 C           0.0105    6.3919   35.2980 C.ar    1  UNL1        0.0964
     18 C           0.9122    5.3878   34.6432 C.ar    1  UNL1        0.0366
     19 C           0.2282    4.8884   33.4051 C.ar    1  UNL1        0.0797
     20 N          -1.0963    5.5840   33.2948 N.ar    1  UNL1       -0.1736
     21 C           5.7241   -2.6397   25.9395 C.3     1  UNL1        0.1747
     22 N           5.9524   -2.2692   24.5040 N.pl3   1  UNL1       -0.3093
     23 H           6.8121   -2.4787   24.0722 H       1  UNL1        0.1487
     24 C           4.8710   -1.5794   23.7263 C.ar    1  UNL1        0.1500
     25 N           4.1095   -0.3633   24.1633 N.ar    1  UNL1       -0.1544
     26 N           3.1291   -0.0170   23.0821 N.ar    1  UNL1       -0.2476
     27 C           2.1627    1.1300   23.1025 C.3     1  UNL1        0.1537
     28 C           3.2847   -1.0192   21.9769 C.ar    1  UNL1        0.0807
     29 C           2.5852   -1.1772   20.6595 C.ar    1  UNL1        0.0188
     30 C           2.9623   -2.3009   19.7402 C.ar    1  UNL1        0.0054
     31 C           4.0389   -3.2665   20.1383 C.ar    1  UNL1        0.0716
     32 C           4.7384   -3.1085   21.4557 C.ar    1  UNL1        0.0082
     33 C           4.3613   -1.9848   22.3750 C.ar    1  UNL1        0.0503
     34 C           4.4159   -4.3902   19.2189 C.3     1  UNL1        0.4186
     35 F           4.7929   -5.5139   18.2996 F       1  UNL1       -0.1659
     36 F           5.8341   -4.3086   19.7006 F       1  UNL1       -0.1659
     37 F           2.9978   -4.4719   18.7372 F       1  UNL1       -0.1659
@<TRIPOS>BOND
     1    15    16    1
     2    16    17   ar
     3    17    18   ar
     4    18    19   ar
     5     9    19    1
     6     9    10    1
     7    10    11    1
     8    11    12    1
     9    12     5    1
    10     5     6    1
    11     6     7    1
    12     7     1    1
    13     1     2   am
    14     2     3    2
    15     2    21    1
    16    21    22    1
    17    22    24    1
    18    24    25   ar
    19    25    26   ar
    20    26    27    1
    21    26    28   ar
    22    28    29   ar
    23    29    30   ar
    24    30    31   ar
    25    31    34    1
    26    34    35    1
    27    34    36    1
    28    34    37    1
    29    31    32   ar
    30    32    33   ar
    31     7     8    1
    32    12    13    1
    33    13    14    1
    34    19    20   ar
    35    20    16   ar
    36    14     9    1
    37     8     5    1
    38    33    24   ar
    39    33    28   ar
    40     1     4    1
    41    22    23    1
@<TRIPOS>MOLECULE
*****
 37 41 0 0 0
SMALL
GASTEIGER

@<TRIPOS>ATOM
      1 N           2.5734    0.5956   24.2075 N.am    1  UNL1       -0.3018
      2 C           3.3009   -0.0862   25.3281 C.2     1  UNL1        0.2425
      3 O           2.7441   -0.0423   26.7202 O.2     1  UNL1       -0.2733
      4 H           2.9388    0.5668   23.2938 H       1  UNL1        0.1495
      5 N          -0.5272    2.3479   24.8632 N.3     1  UNL1       -0.2711
      6 C          -0.0242    0.9556   25.1048 C.3     1  UNL1        0.0933
      7 C           1.2891    1.3215   24.4791 C.3     1  UNL1        0.1035
      8 C           0.7861    2.7138   24.2376 C.3     1  UNL1        0.0933
      9 C          -4.3801    4.5255   25.6780 C.3     1  UNL1        0.0421
     10 C          -3.9806    4.2102   24.2669 C.3     1  UNL1        0.0074
     11 C          -2.6964    3.4844   23.9954 C.3     1  UNL1        0.0163
     12 C          -1.8115    3.0738   25.1348 C.3     1  UNL1        0.0576
     13 C          -2.2109    3.3890   26.5459 C.3     1  UNL1        0.0163
     14 C          -3.4952    4.1149   26.8174 C.3     1  UNL1        0.0074
     15 C          -9.1248    6.7500   25.0302 C.3     1  UNL1        0.1537
     16 N          -7.8453    6.2738   25.6517 N.ar    1  UNL1       -0.2477
     17 C          -7.4362    6.4627   27.0824 C.ar    1  UNL1        0.0964
     18 C          -6.0884    5.8308   27.2664 C.ar    1  UNL1        0.0366
     19 C          -5.6643    5.2513   25.9494 C.ar    1  UNL1        0.0797
     20 N          -6.7502    5.5252   24.9514 N.ar    1  UNL1       -0.1736
     21 C           4.5851   -0.8121   25.0565 C.3     1  UNL1        0.1747
     22 N           4.5589   -2.2542   24.6441 N.pl3   1  UNL1       -0.3093
     23 H           4.1560   -2.9286   25.2375 H       1  UNL1        0.1487
     24 C           5.1466   -2.6686   23.3277 C.ar    1  UNL1        0.1500
     25 N           6.3913   -3.4833   23.1353 N.ar    1  UNL1       -0.1544
     26 N           6.6067   -3.6593   21.6613 N.ar    1  UNL1       -0.2476
     27 C           7.7354   -4.4095   21.0186 C.3     1  UNL1        0.1537
     28 C           5.4952   -2.9533   20.9428 C.ar    1  UNL1        0.0807
     29 C           5.1882   -2.7889   19.4838 C.ar    1  UNL1        0.0188
     30 C           3.9788   -2.0122   19.0548 C.ar    1  UNL1        0.0054
     31 C           3.0764   -1.3999   20.0847 C.ar    1  UNL1        0.0716
     32 C           3.3834   -1.5643   21.5437 C.ar    1  UNL1        0.0082
     33 C           4.5928   -2.3410   21.9728 C.ar    1  UNL1        0.0503
     34 C           1.8670   -0.6232   19.6556 C.3     1  UNL1        0.4186
     35 F           0.6577    0.1535   19.2265 F       1  UNL1       -0.1659
     36 F           1.2128   -0.9136   20.9738 F       1  UNL1       -0.1659
     37 F           2.5213   -0.3328   18.3375 F       1  UNL1       -0.1659
@<TRIPOS>BOND
     1    15    16    1
     2    16    17   ar
     3    17    18   ar
     4    18    19   ar
     5     9    19    1
     6     9    10    1
     7    10    11    1
     8    11    12    1
     9    12     5    1
    10     5     6    1
    11     6     7    1
    12     7     1    1
    13     1     2   am
    14     2     3    2
    15     2    21    1
    16    21    22    1
    17    22    24    1
    18    24    25   ar
    19    25    26   ar
    20    26    27    1
    21    26    28   ar
    22    28    29   ar
    23    29    30   ar
    24    30    31   ar
    25    31    34    1
    26    34    35    1
    27    34    36    1
    28    34    37    1
    29    31    32   ar
    30    32    33   ar
    31     7     8    1
    32    12    13    1
    33    13    14    1
    34    19    20   ar
    35    20    16   ar
    36    14     9    1
    37     8     5    1
    38    33    24   ar
    39    33    28   ar
    40     1     4    1
    41    22    23    1
