@<TRIPOS>MOLECULE
*****
 29 33 0 0 0
SMALL
GASTEIGER

@<TRIPOS>ATOM
      1 C          -5.6166  -19.4961   21.1293 C.ar    1  UNL1        0.1452
      2 N          -4.5584  -19.6514   20.0776 N.ar    1  UNL1       -0.2289
      3 C          -3.4032  -18.7695   20.4487 C.ar    1  UNL1        0.0992
      4 C          -2.0822  -18.5138   19.7857 C.ar    1  UNL1        0.0320
      5 C          -1.1055  -17.5576   20.4036 C.ar    1  UNL1        0.0593
      6 CL          0.2155  -17.3019   19.7405 Cl      1  UNL1       -0.0822
      7 C          -1.4497  -16.8572   21.6846 C.ar    1  UNL1        0.0130
      8 C          -2.7707  -17.1130   22.3476 C.ar    1  UNL1        0.0196
      9 C          -3.7474  -18.0692   21.7297 C.ar    1  UNL1        0.0787
     10 N          -5.1154  -18.5182   22.1503 N.ar    1  UNL1       -0.3131
     11 C          -6.9432  -20.1958   21.1553 C.3     1  UNL1        0.1908
     12 C         -10.0447  -17.8719   20.9423 C.ar    1  UNL1        0.2069
     13 N          -8.7820  -18.4287   20.3545 N.ar    1  UNL1       -0.1501
     14 N          -8.2049  -19.4049   21.3363 N.ar    1  UNL1       -0.2404
     15 C          -9.1109  -19.4515   22.5308 C.ar    1  UNL1        0.1003
     16 C          -9.0475  -20.2343   23.8088 C.ar    1  UNL1        0.1176
     17 N         -10.1211  -20.0695   24.8433 N.ar    1  UNL1       -0.2408
     18 C         -11.2582  -19.1220   24.5998 C.ar    1  UNL1        0.0991
     19 C         -11.3216  -18.3393   23.3218 C.ar    1  UNL1        0.0251
     20 C         -10.2480  -18.5040   22.2874 C.ar    1  UNL1        0.0572
     21 C         -11.8471  -15.8490   19.6541 C.3     1  UNL1        0.1835
     22 S         -10.9459  -16.8605   20.2982 S.O2    1  UNL1        0.0285
     23 O         -11.7860  -17.9680   19.7346 O.2     1  UNL1       -0.1671
     24 O         -10.1058  -15.7530   20.8618 O.2     1  UNL1       -0.1671
     25 C          -5.8527  -18.0683   23.3766 C.3     1  UNL1        0.1122
     26 C          -6.3694  -16.6630   23.4679 C.3     1  UNL1        0.0818
     27 C          -5.7870  -15.3435   23.8800 C.3     1  UNL1        0.1465
     28 O          -7.1000  -14.6757   23.5969 O.3     1  UNL1       -0.3535
     29 C          -7.6824  -15.9952   23.1848 C.3     1  UNL1        0.1465
@<TRIPOS>BOND
     1    21    22    1
     2    22    23    2
     3    22    24    2
     4    22    12    1
     5    12    13   ar
     6    13    14   ar
     7    14    11    1
     8    11     1    1
     9     1     2   ar
    10     2     3   ar
    11     3     4   ar
    12     4     5   ar
    13     5     6    1
    14     5     7   ar
    15     7     8   ar
    16     8     9   ar
    17     9    10   ar
    18    10    25    1
    19    25    26    1
    20    26    27    1
    21    27    28    1
    22    28    29    1
    23    14    15   ar
    24    15    16   ar
    25    16    17   ar
    26    17    18   ar
    27    18    19   ar
    28    19    20   ar
    29    20    12   ar
    30    10     1   ar
    31    29    26    1
    32    20    15   ar
    33     9     3   ar
@<TRIPOS>MOLECULE
*****
 29 33 0 0 0
SMALL
GASTEIGER

@<TRIPOS>ATOM
      1 C          -7.4564  -16.8262   23.1217 C.ar    1  UNL1        0.1452
      2 N          -7.9200  -16.5795   21.7166 N.ar    1  UNL1       -0.2289
      3 C          -9.4131  -16.4375   21.7394 C.ar    1  UNL1        0.0992
      4 C         -10.4140  -16.1840   20.6513 C.ar    1  UNL1        0.0320
      5 C         -11.8739  -16.0895   20.9824 C.ar    1  UNL1        0.0593
      6 CL        -12.8747  -15.8360   19.8941 Cl      1  UNL1       -0.0822
      7 C         -12.3331  -16.2484   22.4014 C.ar    1  UNL1        0.0130
      8 C         -11.3322  -16.5019   23.4896 C.ar    1  UNL1        0.0196
      9 C          -9.8722  -16.5964   23.1585 C.ar    1  UNL1        0.0787
     10 N          -8.6629  -16.8367   24.0128 N.ar    1  UNL1       -0.3131
     11 C          -6.0355  -17.0272   23.5588 C.3     1  UNL1        0.1908
     12 C          -3.0335  -18.0886   21.3393 C.ar    1  UNL1        0.2069
     13 N          -3.6708  -17.1477   22.3183 N.ar    1  UNL1       -0.1501
     14 N          -5.0463  -17.6608   22.6260 N.ar    1  UNL1       -0.2404
     15 C          -5.2591  -18.9188   21.8372 C.ar    1  UNL1        0.1003
     16 C          -6.4248  -19.8577   21.7404 C.ar    1  UNL1        0.1176
     17 N          -6.3465  -21.0610   20.8483 N.ar    1  UNL1       -0.2408
     18 C          -5.1025  -21.3254   20.0530 C.ar    1  UNL1        0.0991
     19 C          -3.9367  -20.3865   20.1499 C.ar    1  UNL1        0.0251
     20 C          -4.0150  -19.1832   21.0420 C.ar    1  UNL1        0.0572
     21 C          -0.2790  -17.8272   20.1796 C.3     1  UNL1        0.1835
     22 S          -1.6563  -17.9579   20.7594 S.O2    1  UNL1        0.0285
     23 O          -2.1842  -17.0165   19.7178 O.2     1  UNL1       -0.1671
     24 O          -1.1283  -18.8993   21.8011 O.2     1  UNL1       -0.1671
     25 C          -8.6604  -17.0499   25.4976 C.3     1  UNL1        0.1122
     26 C          -7.9664  -16.0686   26.3951 C.3     1  UNL1        0.0818
     27 C          -6.5510  -15.6005   26.5614 C.3     1  UNL1        0.1465
     28 O          -6.9848  -14.6810   27.6643 O.3     1  UNL1       -0.3535
     29 C          -8.4002  -15.1491   27.4980 C.3     1  UNL1        0.1465
@<TRIPOS>BOND
     1    21    22    1
     2    22    23    2
     3    22    24    2
     4    22    12    1
     5    12    13   ar
     6    13    14   ar
     7    14    11    1
     8    11     1    1
     9     1     2   ar
    10     2     3   ar
    11     3     4   ar
    12     4     5   ar
    13     5     6    1
    14     5     7   ar
    15     7     8   ar
    16     8     9   ar
    17     9    10   ar
    18    10    25    1
    19    25    26    1
    20    26    27    1
    21    27    28    1
    22    28    29    1
    23    14    15   ar
    24    15    16   ar
    25    16    17   ar
    26    17    18   ar
    27    18    19   ar
    28    19    20   ar
    29    20    12   ar
    30    10     1   ar
    31    29    26    1
    32    20    15   ar
    33     9     3   ar
@<TRIPOS>MOLECULE
*****
 29 33 0 0 0
SMALL
GASTEIGER

@<TRIPOS>ATOM
      1 C          -5.2938  -18.7983   22.0412 C.ar    1  UNL1        0.1452
      2 N          -4.9033  -19.1591   20.6386 N.ar    1  UNL1       -0.2289
      3 C          -3.5759  -18.5235   20.3490 C.ar    1  UNL1        0.0992
      4 C          -2.7031  -18.5335   19.1291 C.ar    1  UNL1        0.0320
      5 C          -1.4004  -17.7899   19.1328 C.ar    1  UNL1        0.0593
      6 CL         -0.5276  -17.8000   17.9129 Cl      1  UNL1       -0.0822
      7 C          -0.9704  -17.0363   20.3564 C.ar    1  UNL1        0.0130
      8 C          -1.8432  -17.0263   21.5763 C.ar    1  UNL1        0.0196
      9 C          -3.1460  -17.7699   21.5725 C.ar    1  UNL1        0.0787
     10 N          -4.2077  -17.9398   22.6185 N.ar    1  UNL1       -0.3131
     11 C          -6.5499  -19.2219   22.7434 C.3     1  UNL1        0.1908
     12 C         -10.0310  -17.6572   22.0372 C.ar    1  UNL1        0.2069
     13 N          -8.8172  -17.8154   22.9042 N.ar    1  UNL1       -0.1501
     14 N          -7.8852  -18.7754   22.2262 N.ar    1  UNL1       -0.2404
     15 C          -8.5229  -19.2106   20.9401 C.ar    1  UNL1        0.1003
     16 C          -8.0674  -20.1468   19.8604 C.ar    1  UNL1        0.1176
     17 N          -8.9380  -20.3919   18.6638 N.ar    1  UNL1       -0.2408
     18 C         -10.2642  -19.7009   18.5470 C.ar    1  UNL1        0.0991
     19 C         -10.7198  -18.7646   19.6267 C.ar    1  UNL1        0.0251
     20 C          -9.8491  -18.5195   20.8233 C.ar    1  UNL1        0.0572
     21 C         -12.4054  -15.9211   22.6271 C.3     1  UNL1        0.1835
     22 S         -11.2182  -16.7892   22.3322 S.O2    1  UNL1        0.0285
     23 O         -11.7040  -17.7940   23.3342 O.2     1  UNL1       -0.1671
     24 O         -10.7325  -15.7842   21.3301 O.2     1  UNL1       -0.1671
     25 C          -4.1869  -17.3539   23.9991 C.3     1  UNL1        0.1122
     26 C          -5.1061  -16.2206   24.3469 C.3     1  UNL1        0.0818
     27 C          -6.1860  -15.4710   23.6246 C.3     1  UNL1        0.1465
     28 O          -6.4059  -14.6180   24.8387 O.3     1  UNL1       -0.3535
     29 C          -5.3259  -15.3676   25.5611 C.3     1  UNL1        0.1465
@<TRIPOS>BOND
     1    21    22    1
     2    22    23    2
     3    22    24    2
     4    22    12    1
     5    12    13   ar
     6    13    14   ar
     7    14    11    1
     8    11     1    1
     9     1     2   ar
    10     2     3   ar
    11     3     4   ar
    12     4     5   ar
    13     5     6    1
    14     5     7   ar
    15     7     8   ar
    16     8     9   ar
    17     9    10   ar
    18    10    25    1
    19    25    26    1
    20    26    27    1
    21    27    28    1
    22    28    29    1
    23    14    15   ar
    24    15    16   ar
    25    16    17   ar
    26    17    18   ar
    27    18    19   ar
    28    19    20   ar
    29    20    12   ar
    30    10     1   ar
    31    29    26    1
    32    20    15   ar
    33     9     3   ar
@<TRIPOS>MOLECULE
*****
 29 33 0 0 0
SMALL
GASTEIGER

@<TRIPOS>ATOM
      1 C          -6.6339  -18.0056   23.1685 C.ar    1  UNL1        0.1452
      2 N          -5.8376  -19.0076   22.3864 N.ar    1  UNL1       -0.2289
      3 C          -4.5223  -18.3797   22.0321 C.ar    1  UNL1        0.0992
      4 C          -3.3375  -18.8941   21.2694 C.ar    1  UNL1        0.0320
      5 C          -2.1361  -18.0184   21.0699 C.ar    1  UNL1        0.0593
      6 CL         -0.9514  -18.5330   20.3071 Cl      1  UNL1       -0.0822
      7 C          -2.1195  -16.6283   21.6330 C.ar    1  UNL1        0.0130
      8 C          -3.3042  -16.1138   22.3957 C.ar    1  UNL1        0.0196
      9 C          -4.5056  -16.9895   22.5952 C.ar    1  UNL1        0.0787
     10 N          -5.8107  -16.7583   23.2976 N.ar    1  UNL1       -0.3131
     11 C          -8.0116  -18.2141   23.7241 C.3     1  UNL1        0.1908
     12 C         -10.6025  -16.7267   21.2462 C.ar    1  UNL1        0.2069
     13 N          -9.1846  -17.0046   21.6490 N.ar    1  UNL1       -0.1501
     14 N          -9.2096  -17.7391   22.9566 N.ar    1  UNL1       -0.2404
     15 C         -10.6430  -17.9151   23.3621 C.ar    1  UNL1        0.1003
     16 C         -11.2756  -18.5643   24.5572 C.ar    1  UNL1        0.1176
     17 N         -12.7690  -18.5878   24.6953 N.ar    1  UNL1       -0.2408
     18 C         -13.6298  -17.9621   23.6382 C.ar    1  UNL1        0.0991
     19 C         -12.9973  -17.3129   22.4430 C.ar    1  UNL1        0.0251
     20 C         -11.5039  -17.2894   22.3050 C.ar    1  UNL1        0.0572
     21 C         -11.4814  -15.2965   18.7598 C.3     1  UNL1        0.1835
     22 S         -11.0420  -16.0117   20.0030 S.O2    1  UNL1        0.0285
     23 O         -12.0224  -17.1103   19.7177 O.2     1  UNL1       -0.1671
     24 O         -10.0614  -14.9129   20.2884 O.2     1  UNL1       -0.1671
     25 C          -6.2206  -15.5007   24.0048 C.3     1  UNL1        0.1122
     26 C          -6.7903  -15.5711   25.3907 C.3     1  UNL1        0.0818
     27 C          -8.1740  -15.5692   25.9699 C.3     1  UNL1        0.1465
     28 O          -7.5961  -15.6708   27.3504 O.3     1  UNL1       -0.3535
     29 C          -6.2124  -15.6728   26.7712 C.3     1  UNL1        0.1465
@<TRIPOS>BOND
     1    21    22    1
     2    22    23    2
     3    22    24    2
     4    22    12    1
     5    12    13   ar
     6    13    14   ar
     7    14    11    1
     8    11     1    1
     9     1     2   ar
    10     2     3   ar
    11     3     4   ar
    12     4     5   ar
    13     5     6    1
    14     5     7   ar
    15     7     8   ar
    16     8     9   ar
    17     9    10   ar
    18    10    25    1
    19    25    26    1
    20    26    27    1
    21    27    28    1
    22    28    29    1
    23    14    15   ar
    24    15    16   ar
    25    16    17   ar
    26    17    18   ar
    27    18    19   ar
    28    19    20   ar
    29    20    12   ar
    30    10     1   ar
    31    29    26    1
    32    20    15   ar
    33     9     3   ar
@<TRIPOS>MOLECULE
*****
 29 33 0 0 0
SMALL
GASTEIGER

@<TRIPOS>ATOM
      1 C          -5.9029  -19.8684   21.7600 C.ar    1  UNL1        0.1452
      2 N          -4.5049  -20.0560   22.2705 N.ar    1  UNL1       -0.2289
      3 C          -3.5634  -19.4324   21.2833 C.ar    1  UNL1        0.0992
      4 C          -2.0684  -19.3122   21.2600 C.ar    1  UNL1        0.0320
      5 C          -1.3895  -18.6190   20.1161 C.ar    1  UNL1        0.0593
      6 CL          0.1056  -18.4990   20.0929 Cl      1  UNL1       -0.0822
      7 C          -2.2054  -18.0460   18.9955 C.ar    1  UNL1        0.0130
      8 C          -3.7004  -18.1661   19.0189 C.ar    1  UNL1        0.0196
      9 C          -4.3794  -18.8593   20.1628 C.ar    1  UNL1        0.0787
     10 N          -5.8253  -19.1288   20.4574 N.ar    1  UNL1       -0.3131
     11 C          -7.1581  -20.3380   22.4340 C.3     1  UNL1        0.1908
     12 C         -10.3843  -18.3466   23.2651 C.ar    1  UNL1        0.2069
     13 N          -9.6990  -19.6066   22.8263 N.ar    1  UNL1       -0.1501
     14 N          -8.2212  -19.3496   22.8119 N.ar    1  UNL1       -0.2404
     15 C          -7.9932  -17.9308   23.2418 C.ar    1  UNL1        0.1003
     16 C          -6.7410  -17.1232   23.4144 C.ar    1  UNL1        0.1176
     17 N          -6.8257  -15.6957   23.8671 N.ar    1  UNL1       -0.2408
     18 C          -8.1626  -15.0757   24.1472 C.ar    1  UNL1        0.0991
     19 C          -9.4147  -15.8833   23.9746 C.ar    1  UNL1        0.0251
     20 C          -9.3301  -17.3108   23.5219 C.ar    1  UNL1        0.0572
     21 C         -13.3438  -17.9648   23.5748 C.3     1  UNL1        0.1835
     22 S         -11.8640  -18.1557   23.4200 S.O2    1  UNL1        0.0285
     23 O         -11.8059  -18.8024   24.7721 O.2     1  UNL1       -0.1671
     24 O         -11.9221  -17.5090   22.0678 O.2     1  UNL1       -0.1671
     25 C          -6.9892  -18.7289   19.5999 C.3     1  UNL1        0.1122
     26 C          -7.9953  -19.7568   19.1742 C.3     1  UNL1        0.0818
     27 C          -9.4932  -19.8372   19.1710 C.3     1  UNL1        0.1465
     28 O          -9.4182  -21.2105   18.5722 O.3     1  UNL1       -0.3535
     29 C          -7.9203  -21.1301   18.5754 C.3     1  UNL1        0.1465
@<TRIPOS>BOND
     1    21    22    1
     2    22    23    2
     3    22    24    2
     4    22    12    1
     5    12    13   ar
     6    13    14   ar
     7    14    11    1
     8    11     1    1
     9     1     2   ar
    10     2     3   ar
    11     3     4   ar
    12     4     5   ar
    13     5     6    1
    14     5     7   ar
    15     7     8   ar
    16     8     9   ar
    17     9    10   ar
    18    10    25    1
    19    25    26    1
    20    26    27    1
    21    27    28    1
    22    28    29    1
    23    14    15   ar
    24    15    16   ar
    25    16    17   ar
    26    17    18   ar
    27    18    19   ar
    28    19    20   ar
    29    20    12   ar
    30    10     1   ar
    31    29    26    1
    32    20    15   ar
    33     9     3   ar
@<TRIPOS>MOLECULE
*****
 29 33 0 0 0
SMALL
GASTEIGER

@<TRIPOS>ATOM
      1 C           2.5830    3.2002   33.5502 C.ar    1  UNL1        0.1452
      2 N           1.3541    3.1817   32.6903 N.ar    1  UNL1       -0.2289
      3 C           1.4952    2.0602   31.7044 C.ar    1  UNL1        0.0992
      4 C           0.5952    1.5660   30.6107 C.ar    1  UNL1        0.0320
      5 C           1.0114    0.3973   29.7677 C.ar    1  UNL1        0.0593
      6 CL          0.1114   -0.0968   28.6740 Cl      1  UNL1       -0.0822
      7 C           2.3274   -0.2774   30.0181 C.ar    1  UNL1        0.0130
      8 C           3.2274    0.2167   31.1117 C.ar    1  UNL1        0.0196
      9 C           2.8112    1.3855   31.9548 C.ar    1  UNL1        0.0787
     10 N           3.4836    2.0901   33.0957 N.ar    1  UNL1       -0.3131
     11 C           2.8623    4.1603   34.6684 C.3     1  UNL1        0.1908
     12 C           2.2845    2.3765   38.0669 C.ar    1  UNL1        0.2069
     13 N           2.1135    2.4466   36.5783 N.ar    1  UNL1       -0.1501
     14 N           2.7884    3.6950   36.0925 N.ar    1  UNL1       -0.2404
     15 C           3.3765    4.3964   37.2809 C.ar    1  UNL1        0.1003
     16 C           4.1554    5.6719   37.4095 C.ar    1  UNL1        0.1176
     17 N           4.6228    6.1324   38.7583 N.ar    1  UNL1       -0.2408
     18 C           4.3113    5.3175   39.9785 C.ar    1  UNL1        0.0991
     19 C           3.5324    4.0421   39.8499 C.ar    1  UNL1        0.0251
     20 C           3.0651    3.5815   38.5011 C.ar    1  UNL1        0.0572
     21 C           1.2473    0.2070   39.8607 C.3     1  UNL1        0.1835
     22 S           1.7659    1.2917   38.9638 S.O2    1  UNL1        0.0285
     23 O           3.1679    0.8099   39.1917 O.2     1  UNL1       -0.1671
     24 O           0.3638    1.7736   38.7359 O.2     1  UNL1       -0.1671
     25 C           4.8215    1.7451   33.6795 C.3     1  UNL1        0.1122
     26 C           4.9123    0.7972   34.8385 C.3     1  UNL1        0.0818
     27 C           5.2723    0.9268   36.2889 C.3     1  UNL1        0.1465
     28 O           5.0406   -0.5431   36.4777 O.3     1  UNL1       -0.3535
     29 C           4.6805   -0.6727   35.0273 C.3     1  UNL1        0.1465
@<TRIPOS>BOND
     1    21    22    1
     2    22    23    2
     3    22    24    2
     4    22    12    1
     5    12    13   ar
     6    13    14   ar
     7    14    11    1
     8    11     1    1
     9     1     2   ar
    10     2     3   ar
    11     3     4   ar
    12     4     5   ar
    13     5     6    1
    14     5     7   ar
    15     7     8   ar
    16     8     9   ar
    17     9    10   ar
    18    10    25    1
    19    25    26    1
    20    26    27    1
    21    27    28    1
    22    28    29    1
    23    14    15   ar
    24    15    16   ar
    25    16    17   ar
    26    17    18   ar
    27    18    19   ar
    28    19    20   ar
    29    20    12   ar
    30    10     1   ar
    31    29    26    1
    32    20    15   ar
    33     9     3   ar
@<TRIPOS>MOLECULE
*****
 29 33 0 0 0
SMALL
GASTEIGER

@<TRIPOS>ATOM
      1 C          -8.5083  -18.9329   22.0351 C.ar    1  UNL1        0.1452
      2 N          -9.0218  -18.5388   20.6819 N.ar    1  UNL1       -0.2289
      3 C         -10.2555  -17.7085   20.8782 C.ar    1  UNL1        0.0992
      4 C         -11.1844  -17.0455   19.9048 C.ar    1  UNL1        0.0320
      5 C         -12.3623  -16.2634   20.4058 C.ar    1  UNL1        0.0593
      6 CL        -13.2912  -15.6004   19.4323 Cl      1  UNL1       -0.0822
      7 C         -12.6113  -16.1443   21.8801 C.ar    1  UNL1        0.0130
      8 C         -11.6824  -16.8074   22.8535 C.ar    1  UNL1        0.0196
      9 C         -10.5045  -17.5895   22.3525 C.ar    1  UNL1        0.0787
     10 N          -9.4247  -18.3462   23.0676 N.ar    1  UNL1       -0.3131
     11 C          -7.2919  -19.7673   22.3078 C.3     1  UNL1        0.1908
     12 C          -3.6204  -18.9016   21.3935 C.ar    1  UNL1        0.2069
     13 N          -4.7996  -19.8274   21.3434 N.ar    1  UNL1       -0.1501
     14 N          -5.9236  -19.1877   22.1034 N.ar    1  UNL1       -0.2404
     15 C          -5.4390  -17.8667   22.6231 C.ar    1  UNL1        0.1003
     16 C          -6.1101  -16.8019   23.4392 C.ar    1  UNL1        0.1176
     17 N          -5.3576  -15.5604   23.8165 N.ar    1  UNL1       -0.2408
     18 C          -3.9342  -15.3836   23.3777 C.ar    1  UNL1        0.0991
     19 C          -3.2632  -16.4483   22.5616 C.ar    1  UNL1        0.0251
     20 C          -4.0156  -17.6899   22.1844 C.ar    1  UNL1        0.0572
     21 C          -0.9418  -19.3883   20.1331 C.3     1  UNL1        0.1835
     22 S          -2.2812  -19.1449   20.7633 S.O2    1  UNL1        0.0285
     23 O          -2.5642  -18.0766   19.7492 O.2     1  UNL1       -0.1671
     24 O          -1.9981  -20.2133   21.7773 O.2     1  UNL1       -0.1671
     25 C          -9.2856  -18.4908   24.5540 C.3     1  UNL1        0.1122
     26 C          -8.9917  -17.2878   25.4004 C.3     1  UNL1        0.0818
     27 C          -8.9157  -15.8102   25.1535 C.3     1  UNL1        0.1465
     28 O          -8.5760  -15.5864   26.5973 O.3     1  UNL1       -0.3535
     29 C          -8.6520  -17.0640   26.8443 C.3     1  UNL1        0.1465
@<TRIPOS>BOND
     1    21    22    1
     2    22    23    2
     3    22    24    2
     4    22    12    1
     5    12    13   ar
     6    13    14   ar
     7    14    11    1
     8    11     1    1
     9     1     2   ar
    10     2     3   ar
    11     3     4   ar
    12     4     5   ar
    13     5     6    1
    14     5     7   ar
    15     7     8   ar
    16     8     9   ar
    17     9    10   ar
    18    10    25    1
    19    25    26    1
    20    26    27    1
    21    27    28    1
    22    28    29    1
    23    14    15   ar
    24    15    16   ar
    25    16    17   ar
    26    17    18   ar
    27    18    19   ar
    28    19    20   ar
    29    20    12   ar
    30    10     1   ar
    31    29    26    1
    32    20    15   ar
    33     9     3   ar
@<TRIPOS>MOLECULE
*****
 29 33 0 0 0
SMALL
GASTEIGER

@<TRIPOS>ATOM
      1 C           8.3437   -4.4411   22.0248 C.ar    1  UNL1        0.1452
      2 N           8.6499   -5.8744   22.3438 N.ar    1  UNL1       -0.2289
      3 C           8.1568   -6.1557   23.7322 C.ar    1  UNL1        0.0992
      4 C           8.1852   -7.3960   24.5754 C.ar    1  UNL1        0.0320
      5 C           7.6027   -7.3768   25.9575 C.ar    1  UNL1        0.0593
      6 CL          7.6311   -8.6171   26.8006 Cl      1  UNL1       -0.0822
      7 C           6.9918   -6.1174   26.4966 C.ar    1  UNL1        0.0130
      8 C           6.9634   -4.8771   25.6534 C.ar    1  UNL1        0.0196
      9 C           7.5459   -4.8963   24.2713 C.ar    1  UNL1        0.0787
     10 N           7.6614   -3.8365   23.2160 N.ar    1  UNL1       -0.3131
     11 C           8.6636   -3.7360   20.7399 C.3     1  UNL1        0.1908
     12 C           6.4496   -1.2018   18.8058 C.ar    1  UNL1        0.2069
     13 N           7.7647   -1.6005   19.4071 N.ar    1  UNL1       -0.1501
     14 N           7.5988   -2.9563   20.0270 N.ar    1  UNL1       -0.2404
     15 C           6.1813   -3.3955   19.8089 C.ar    1  UNL1        0.1003
     16 C           5.4455   -4.6427   20.2000 C.ar    1  UNL1        0.1176
     17 N           3.9994   -4.8056   19.8364 N.ar    1  UNL1       -0.2408
     18 C           3.2891   -3.7212   19.0816 C.ar    1  UNL1        0.0991
     19 C           4.0249   -2.4740   18.6905 C.ar    1  UNL1        0.0251
     20 C           5.4710   -2.3111   19.0541 C.ar    1  UNL1        0.0572
     21 C           5.8771    1.3639   17.3603 C.3     1  UNL1        0.1835
     22 S           6.1633    0.0811   18.0831 S.O2    1  UNL1        0.0285
     23 O           5.6277    0.6761   19.3514 O.2     1  UNL1       -0.1671
     24 O           6.6990   -0.5140   16.8146 O.2     1  UNL1       -0.1671
     25 C           7.1793   -2.4209   23.3316 C.3     1  UNL1        0.1122
     26 C           5.7471   -2.0896   23.0330 C.3     1  UNL1        0.0818
     27 C           5.0277   -0.8946   22.4811 C.3     1  UNL1        0.1465
     28 O           3.7217   -1.6211   22.6107 O.3     1  UNL1       -0.3535
     29 C           4.4411   -2.8160   23.1626 C.3     1  UNL1        0.1465
@<TRIPOS>BOND
     1    21    22    1
     2    22    23    2
     3    22    24    2
     4    22    12    1
     5    12    13   ar
     6    13    14   ar
     7    14    11    1
     8    11     1    1
     9     1     2   ar
    10     2     3   ar
    11     3     4   ar
    12     4     5   ar
    13     5     6    1
    14     5     7   ar
    15     7     8   ar
    16     8     9   ar
    17     9    10   ar
    18    10    25    1
    19    25    26    1
    20    26    27    1
    21    27    28    1
    22    28    29    1
    23    14    15   ar
    24    15    16   ar
    25    16    17   ar
    26    17    18   ar
    27    18    19   ar
    28    19    20   ar
    29    20    12   ar
    30    10     1   ar
    31    29    26    1
    32    20    15   ar
    33     9     3   ar
@<TRIPOS>MOLECULE
*****
 29 33 0 0 0
SMALL
GASTEIGER

@<TRIPOS>ATOM
      1 C          -7.8263  -16.7053   22.7932 C.ar    1  UNL1        0.1452
      2 N          -8.1746  -16.0071   21.5121 N.ar    1  UNL1       -0.2289
      3 C          -9.6560  -16.1245   21.3082 C.ar    1  UNL1        0.0992
      4 C         -10.5617  -15.6292   20.2199 C.ar    1  UNL1        0.0320
      5 C         -12.0347  -15.9046   20.2867 C.ar    1  UNL1        0.0593
      6 CL        -12.9403  -15.4092   19.1984 Cl      1  UNL1       -0.0822
      7 C         -12.6020  -16.6753   21.4417 C.ar    1  UNL1        0.0130
      8 C         -11.6963  -17.1706   22.5300 C.ar    1  UNL1        0.0196
      9 C         -10.2233  -16.8952   22.4632 C.ar    1  UNL1        0.0787
     10 N          -9.0925  -17.2542   23.3810 N.ar    1  UNL1       -0.3131
     11 C          -6.4529  -16.8323   23.3830 C.3     1  UNL1        0.1908
     12 C          -3.1997  -17.9148   21.5638 C.ar    1  UNL1        0.2069
     13 N          -3.9581  -16.9544   22.4312 N.ar    1  UNL1       -0.1501
     14 N          -5.3541  -17.4788   22.5927 N.ar    1  UNL1       -0.2404
     15 C          -5.4585  -18.7633   21.8250 C.ar    1  UNL1        0.1003
     16 C          -6.5940  -19.7223   21.6229 C.ar    1  UNL1        0.1176
     17 N          -6.3980  -20.9508   20.7849 N.ar    1  UNL1       -0.2408
     18 C          -5.0664  -21.2203   20.1490 C.ar    1  UNL1        0.0991
     19 C          -3.9309  -20.2613   20.3511 C.ar    1  UNL1        0.0251
     20 C          -4.1270  -19.0328   21.1891 C.ar    1  UNL1        0.0572
     21 C          -0.3317  -17.6468   20.7253 C.3     1  UNL1        0.1835
     22 S          -1.7657  -17.7809   21.1445 S.O2    1  UNL1        0.0285
     23 O          -1.3848  -18.8746   22.0976 O.2     1  UNL1       -0.1671
     24 O          -2.1465  -16.6870   20.1914 O.2     1  UNL1       -0.1671
     25 C          -9.2076  -18.0264   24.6618 C.3     1  UNL1        0.1122
     26 C          -9.5079  -19.4957   24.6273 C.3     1  UNL1        0.0818
     27 C          -8.9640  -20.6720   23.8719 C.3     1  UNL1        0.1465
     28 O          -9.9326  -21.5735   24.5785 O.3     1  UNL1       -0.3535
     29 C         -10.4765  -20.3972   25.3338 C.3     1  UNL1        0.1465
@<TRIPOS>BOND
     1    21    22    1
     2    22    23    2
     3    22    24    2
     4    22    12    1
     5    12    13   ar
     6    13    14   ar
     7    14    11    1
     8    11     1    1
     9     1     2   ar
    10     2     3   ar
    11     3     4   ar
    12     4     5   ar
    13     5     6    1
    14     5     7   ar
    15     7     8   ar
    16     8     9   ar
    17     9    10   ar
    18    10    25    1
    19    25    26    1
    20    26    27    1
    21    27    28    1
    22    28    29    1
    23    14    15   ar
    24    15    16   ar
    25    16    17   ar
    26    17    18   ar
    27    18    19   ar
    28    19    20   ar
    29    20    12   ar
    30    10     1   ar
    31    29    26    1
    32    20    15   ar
    33     9     3   ar
