@<TRIPOS>MOLECULE
*****
 40 44 0 0 0
SMALL
GASTEIGER

@<TRIPOS>ATOM
      1 C           0.0205    3.3244   21.5509 C.3     1  UNL1        0.1631
      2 N           0.1637    2.5324   22.8167 N.ar    1  UNL1       -0.3048
      3 C           0.8930    1.2299   22.9639 C.ar    1  UNL1        0.1441
      4 N           0.7828    0.7963   24.3957 N.ar    1  UNL1       -0.2268
      5 C          -0.0145    1.8309   25.1332 C.ar    1  UNL1        0.0987
      6 C          -0.4416    1.9345   26.5674 C.ar    1  UNL1        0.0206
      7 C          -1.2513    3.1111   27.0257 C.ar    1  UNL1        0.0016
      8 C          -1.6339    4.1841   26.0498 C.ar    1  UNL1        0.0016
      9 C          -1.2069    4.0804   24.6156 C.ar    1  UNL1        0.0188
     10 C          -0.3972    2.9038   24.1574 C.ar    1  UNL1        0.0792
     11 C           1.6070    0.4907   21.8713 C.ar    1  UNL1        0.0342
     12 C           0.8216   -0.2327   20.8179 C.ar    1  UNL1        0.0039
     13 C           1.5356   -0.9719   19.7253 C.ar    1  UNL1        0.0115
     14 C           3.0350   -0.9875   19.6861 C.ar    1  UNL1        0.0577
     15 CL          3.7490   -1.7267   18.5934 Cl      1  UNL1       -0.0822
     16 C           3.8204   -0.2641   20.7395 C.ar    1  UNL1        0.0115
     17 C           3.1064    0.4751   21.8321 C.ar    1  UNL1        0.0039
     18 C           1.2034    3.5178   20.6492 C.3     1  UNL1        0.0297
     19 C           2.4377    4.1957   21.1663 C.3     1  UNL1        0.0024
     20 C           3.6207    4.3891   20.2646 C.3     1  UNL1        0.0001
     21 C           3.5695    3.9047   18.8459 C.3     1  UNL1        0.0000
     22 C           2.3354    3.2269   18.3289 C.3     1  UNL1        0.0001
     23 C           1.1523    3.0334   19.2305 C.3     1  UNL1        0.0024
     24 N          -2.4771    3.0315   20.8977 N.am    1  UNL1       -0.2824
     25 C          -1.3059    3.9230   21.1867 C.2     1  UNL1        0.2468
     26 O          -1.6356    5.3814   21.0662 O.2     1  UNL1       -0.2727
     27 H          -2.3753    2.0535   20.9470 H       1  UNL1        0.1549
     28 C          -6.4559    4.8275   19.8051 C.ar    1  UNL1        0.0140
     29 C          -5.4309    4.5714   18.7403 C.ar    1  UNL1        0.0024
     30 C          -4.1046    3.9727   19.1046 C.ar    1  UNL1        0.0147
     31 C          -3.8034    3.6301   20.5335 C.ar    1  UNL1        0.0542
     32 C          -4.8284    3.8863   21.5983 C.ar    1  UNL1        0.0849
     33 C          -6.1546    4.4849   21.2341 C.ar    1  UNL1        0.0062
     34 C          -4.5272    3.5437   23.0273 C.3     1  UNL1        0.4197
     35 F          -4.2260    3.2011   24.4562 F       1  UNL1       -0.1658
     36 F          -5.0289    2.1487   22.7986 F       1  UNL1       -0.1658
     37 F          -4.0659    4.9701   23.0800 F       1  UNL1       -0.1658
     38 O          -8.3884    6.4897   20.3077 O.co2   1  UNL1       -0.5446
     39 C          -7.7822    5.4262   19.4410 C.2     1  UNL1        0.0729
     40 O          -8.5022    4.9612   18.2100 O.co2   1  UNL1       -0.5446
@<TRIPOS>UNITY_ATOM_ATTR
38 1
charge -1
@<TRIPOS>BOND
     1    38    39   ar
     2    39    40   ar
     3    39    28    1
     4    28    29   ar
     5    29    30   ar
     6    30    31   ar
     7    31    24    1
     8    24    25   am
     9    25    26    2
    10    25     1    1
    11     1    18    1
    12    18    19    1
    13    19    20    1
    14    20    21    1
    15    21    22    1
    16    22    23    1
    17     1     2    1
    18     2     3   ar
    19     3    11    1
    20    11    12   ar
    21    12    13   ar
    22    13    14   ar
    23    14    15    1
    24    14    16   ar
    25    16    17   ar
    26     3     4   ar
    27     4     5   ar
    28     5     6   ar
    29     6     7   ar
    30     7     8   ar
    31     8     9   ar
    32     9    10   ar
    33    31    32   ar
    34    32    34    1
    35    34    35    1
    36    34    36    1
    37    34    37    1
    38    32    33   ar
    39    33    28   ar
    40    23    18    1
    41    10     2   ar
    42    17    11   ar
    43    10     5   ar
    44    24    27    1
@<TRIPOS>MOLECULE
*****
 40 44 0 0 0
SMALL
GASTEIGER

@<TRIPOS>ATOM
      1 C          -0.2042    2.8561   20.8017 C.3     1  UNL1        0.1631
      2 N          -1.1508    3.2537   21.8952 N.ar    1  UNL1       -0.3048
      3 C          -2.4440    3.9925   21.7164 C.ar    1  UNL1        0.1441
      4 N          -3.0629    4.1778   23.0701 N.ar    1  UNL1       -0.2268
      5 C          -2.1523    3.5536   24.0855 C.ar    1  UNL1        0.0987
      6 C          -2.2464    3.4314   25.5775 C.ar    1  UNL1        0.0206
      7 C          -1.1589    2.7381   26.3434 C.ar    1  UNL1        0.0016
      8 C           0.0229    2.1669   25.6173 C.ar    1  UNL1        0.0016
      9 C           0.1170    2.2891   24.1252 C.ar    1  UNL1        0.0188
     10 C          -0.9705    2.9824   23.3593 C.ar    1  UNL1        0.0792
     11 C          -3.0175    4.4633   20.4127 C.ar    1  UNL1        0.0342
     12 C          -3.8385    3.5296   19.5738 C.ar    1  UNL1        0.0039
     13 C          -4.4120    4.0004   18.2702 C.ar    1  UNL1        0.0115
     14 C          -4.1645    5.4049   17.8055 C.ar    1  UNL1        0.0577
     15 CL         -4.7380    5.8756   16.5018 Cl      1  UNL1       -0.0822
     16 C          -3.3434    6.3386   18.6445 C.ar    1  UNL1        0.0115
     17 C          -2.7699    5.8679   19.9481 C.ar    1  UNL1        0.0039
     18 C           0.0909    3.8091   19.6817 C.3     1  UNL1        0.0297
     19 C          -0.3633    3.4920   18.2876 C.3     1  UNL1        0.0024
     20 C          -0.0682    4.4450   17.1675 C.3     1  UNL1        0.0001
     21 C           0.6811    5.7153   17.4415 C.3     1  UNL1        0.0000
     22 C           1.1352    6.0325   18.8354 C.3     1  UNL1        0.0001
     23 C           0.8402    5.0794   19.9555 C.3     1  UNL1        0.0024
     24 N           1.9433    1.3942   20.8402 N.am    1  UNL1       -0.2824
     25 C           0.4475    1.5052   20.8282 C.2     1  UNL1        0.2468
     26 O          -0.2394    0.1718   20.8453 O.2     1  UNL1       -0.2727
     27 H           2.4974    2.2079   20.8307 H       1  UNL1        0.1549
     28 C           3.8979   -2.6584   20.9197 C.ar    1  UNL1        0.0140
     29 C           3.2281   -2.1732   19.6683 C.ar    1  UNL1        0.0024
     30 C           2.5766   -0.8222   19.6418 C.ar    1  UNL1        0.0147
     31 C           2.5949    0.0434   20.8668 C.ar    1  UNL1        0.0542
     32 C           3.2647   -0.4419   22.1181 C.ar    1  UNL1        0.0849
     33 C           3.9162   -1.7927   22.1446 C.ar    1  UNL1        0.0062
     34 C           3.2830    0.4238   23.3430 C.3     1  UNL1        0.4197
     35 F           3.3012    1.2894   24.5679 F       1  UNL1       -0.1658
     36 F           4.4763    1.1575   22.8067 F       1  UNL1       -0.1658
     37 F           2.0962   -0.4100   23.7260 F       1  UNL1       -0.1658
     38 O           5.8610   -4.1957   21.6499 O.co2   1  UNL1       -0.5446
     39 C           4.5495   -4.0092   20.9462 C.2     1  UNL1        0.0729
     40 O           3.8894   -5.1736   20.2690 O.co2   1  UNL1       -0.5446
@<TRIPOS>UNITY_ATOM_ATTR
38 1
charge -1
@<TRIPOS>BOND
     1    38    39   ar
     2    39    40   ar
     3    39    28    1
     4    28    29   ar
     5    29    30   ar
     6    30    31   ar
     7    31    24    1
     8    24    25   am
     9    25    26    2
    10    25     1    1
    11     1    18    1
    12    18    19    1
    13    19    20    1
    14    20    21    1
    15    21    22    1
    16    22    23    1
    17     1     2    1
    18     2     3   ar
    19     3    11    1
    20    11    12   ar
    21    12    13   ar
    22    13    14   ar
    23    14    15    1
    24    14    16   ar
    25    16    17   ar
    26     3     4   ar
    27     4     5   ar
    28     5     6   ar
    29     6     7   ar
    30     7     8   ar
    31     8     9   ar
    32     9    10   ar
    33    31    32   ar
    34    32    34    1
    35    34    35    1
    36    34    36    1
    37    34    37    1
    38    32    33   ar
    39    33    28   ar
    40    23    18    1
    41    10     2   ar
    42    17    11   ar
    43    10     5   ar
    44    24    27    1
@<TRIPOS>MOLECULE
*****
 40 44 0 0 0
SMALL
GASTEIGER

@<TRIPOS>ATOM
      1 C           1.9071    2.9931   23.0358 C.3     1  UNL1        0.1631
      2 N           0.4319    3.1573   22.8195 N.ar    1  UNL1       -0.3048
      3 C          -0.6285    3.0784   23.8775 C.ar    1  UNL1        0.1441
      4 N          -1.9577    3.3016   23.2191 N.ar    1  UNL1       -0.2268
      5 C          -1.7188    3.5184   21.7542 C.ar    1  UNL1        0.0987
      6 C          -2.6552    3.7856   20.6133 C.ar    1  UNL1        0.0206
      7 C          -2.1148    3.9635   19.2254 C.ar    1  UNL1        0.0016
      8 C          -0.6380    3.8743   18.9784 C.ar    1  UNL1        0.0016
      9 C           0.2985    3.6072   20.1193 C.ar    1  UNL1        0.0188
     10 C          -0.2419    3.4293   21.5072 C.ar    1  UNL1        0.0792
     11 C          -0.3998    2.8214   25.3375 C.ar    1  UNL1        0.0342
     12 C          -0.2779    1.4138   25.8412 C.ar    1  UNL1        0.0039
     13 C          -0.0492    1.1568   27.3012 C.ar    1  UNL1        0.0115
     14 C           0.0575    2.3074   28.2575 C.ar    1  UNL1        0.0577
     15 CL          0.2862    2.0504   29.7176 Cl      1  UNL1       -0.0822
     16 C          -0.0644    3.7150   27.7538 C.ar    1  UNL1        0.0115
     17 C          -0.2931    3.9721   26.2939 C.ar    1  UNL1        0.0039
     18 C           2.6571    3.9848   23.8746 C.3     1  UNL1        0.0297
     19 C           3.2642    3.5575   25.1782 C.3     1  UNL1        0.0024
     20 C           4.0142    4.5492   26.0171 C.3     1  UNL1        0.0001
     21 C           4.1573    5.9683   25.5525 C.3     1  UNL1        0.0000
     22 C           3.5504    6.3956   24.2491 C.3     1  UNL1        0.0001
     23 C           2.8003    5.4039   23.4102 C.3     1  UNL1        0.0024
     24 N           1.9983    0.4777   22.3916 N.am    1  UNL1       -0.2824
     25 C           2.6323    1.8370   22.4131 C.2     1  UNL1        0.2468
     26 O           3.9878    1.8617   21.7712 O.2     1  UNL1       -0.2727
     27 H           1.1062    0.3443   22.7861 H       1  UNL1        0.1549
     28 C           4.1741   -2.9904   20.5238 C.ar    1  UNL1        0.0140
     29 C           4.3837   -2.6663   21.9733 C.ar    1  UNL1        0.0024
     30 C           3.6584   -1.5102   22.5959 C.ar    1  UNL1        0.0147
     31 C           2.7235   -0.6783   21.7690 C.ar    1  UNL1        0.0542
     32 C           2.5139   -1.0023   20.3195 C.ar    1  UNL1        0.0849
     33 C           3.2392   -2.1583   19.6969 C.ar    1  UNL1        0.0062
     34 C           1.5790   -0.1704   19.4925 C.3     1  UNL1        0.4197
     35 F           0.6441    0.6616   18.6656 F       1  UNL1       -0.1658
     36 F           2.7493    0.5632   18.9075 F       1  UNL1       -0.1658
     37 F           0.5314   -0.9999   20.1740 F       1  UNL1       -0.1658
     38 O           4.3155   -4.8433   18.7081 O.co2   1  UNL1       -0.5446
     39 C           4.8993   -4.1463   19.9012 C.2     1  UNL1        0.0729
     40 O           6.2085   -4.6054   20.4717 O.co2   1  UNL1       -0.5446
@<TRIPOS>UNITY_ATOM_ATTR
38 1
charge -1
@<TRIPOS>BOND
     1    38    39   ar
     2    39    40   ar
     3    39    28    1
     4    28    29   ar
     5    29    30   ar
     6    30    31   ar
     7    31    24    1
     8    24    25   am
     9    25    26    2
    10    25     1    1
    11     1    18    1
    12    18    19    1
    13    19    20    1
    14    20    21    1
    15    21    22    1
    16    22    23    1
    17     1     2    1
    18     2     3   ar
    19     3    11    1
    20    11    12   ar
    21    12    13   ar
    22    13    14   ar
    23    14    15    1
    24    14    16   ar
    25    16    17   ar
    26     3     4   ar
    27     4     5   ar
    28     5     6   ar
    29     6     7   ar
    30     7     8   ar
    31     8     9   ar
    32     9    10   ar
    33    31    32   ar
    34    32    34    1
    35    34    35    1
    36    34    36    1
    37    34    37    1
    38    32    33   ar
    39    33    28   ar
    40    23    18    1
    41    10     2   ar
    42    17    11   ar
    43    10     5   ar
    44    24    27    1
@<TRIPOS>MOLECULE
*****
 40 44 0 0 0
SMALL
GASTEIGER

@<TRIPOS>ATOM
      1 C          -0.5974    2.9535   21.8187 C.3     1  UNL1        0.1631
      2 N          -1.6009    3.7170   21.0062 N.ar    1  UNL1       -0.3048
      3 C          -2.8505    4.3621   21.5280 C.ar    1  UNL1        0.1441
      4 N          -3.5528    5.0133   20.3736 N.ar    1  UNL1       -0.2268
      5 C          -2.7372    4.7706   19.1383 C.ar    1  UNL1        0.0987
      6 C          -2.9371    5.1757   17.7080 C.ar    1  UNL1        0.0206
      7 C          -1.9307    4.7796   16.6686 C.ar    1  UNL1        0.0016
      8 C          -0.7244    3.9785   17.0595 C.ar    1  UNL1        0.0016
      9 C          -0.5244    3.5734   18.4899 C.ar    1  UNL1        0.0188
     10 C          -1.5308    3.9695   19.5293 C.ar    1  UNL1        0.0792
     11 C          -3.3161    4.3569   22.9539 C.ar    1  UNL1        0.0342
     12 C          -4.1434    3.2164   23.4686 C.ar    1  UNL1        0.0039
     13 C          -4.6089    3.2112   24.8945 C.ar    1  UNL1        0.0115
     14 C          -4.2472    4.3464   25.8057 C.ar    1  UNL1        0.0577
     15 CL         -4.7128    4.3411   27.2316 Cl      1  UNL1       -0.0822
     16 C          -3.4199    5.4868   25.2910 C.ar    1  UNL1        0.0115
     17 C          -2.9543    5.4921   23.8652 C.ar    1  UNL1        0.0039
     18 C          -0.3106    3.3621   23.2331 C.3     1  UNL1        0.0297
     19 C           0.3851    4.6615   23.5120 C.3     1  UNL1        0.0024
     20 C           0.6720    5.0702   24.9265 C.3     1  UNL1        0.0001
     21 C           0.2632    4.1794   26.0621 C.3     1  UNL1        0.0000
     22 C          -0.4324    2.8801   25.7832 C.3     1  UNL1        0.0001
     23 C          -0.7193    2.4714   24.3687 C.3     1  UNL1        0.0024
     24 N           1.6122    1.6804   21.3214 N.am    1  UNL1       -0.2824
     25 C           0.1192    1.7812   21.2167 C.2     1  UNL1        0.2468
     26 O          -0.4959    0.6281   20.4803 O.2     1  UNL1       -0.2727
     27 H           2.1217    2.3836   21.7851 H       1  UNL1        0.1549
     28 C           3.7618   -1.8365   19.5155 C.ar    1  UNL1        0.0140
     29 C           3.1612   -1.9473   20.8855 C.ar    1  UNL1        0.0024
     30 C           2.4447   -0.7750   21.4875 C.ar    1  UNL1        0.0147
     31 C           2.3287    0.5082   20.7194 C.ar    1  UNL1        0.0542
     32 C           2.9292    0.6191   19.3493 C.ar    1  UNL1        0.0849
     33 C           3.6458   -0.5532   18.7474 C.ar    1  UNL1        0.0062
     34 C           2.8133    1.9023   18.5812 C.3     1  UNL1        0.4197
     35 F           2.6973    3.1854   17.8131 F       1  UNL1       -0.1658
     36 F           4.0273    2.4329   19.2844 F       1  UNL1       -0.1658
     37 F           1.6224    1.2191   17.9769 F       1  UNL1       -0.1658
     38 O           5.5205   -2.7890   17.8573 O.co2   1  UNL1       -0.5446
     39 C           4.4783   -3.0087   18.9135 C.2     1  UNL1        0.0729
     40 O           4.1526   -4.4007   19.3678 O.co2   1  UNL1       -0.5446
@<TRIPOS>UNITY_ATOM_ATTR
38 1
charge -1
@<TRIPOS>BOND
     1    38    39   ar
     2    39    40   ar
     3    39    28    1
     4    28    29   ar
     5    29    30   ar
     6    30    31   ar
     7    31    24    1
     8    24    25   am
     9    25    26    2
    10    25     1    1
    11     1    18    1
    12    18    19    1
    13    19    20    1
    14    20    21    1
    15    21    22    1
    16    22    23    1
    17     1     2    1
    18     2     3   ar
    19     3    11    1
    20    11    12   ar
    21    12    13   ar
    22    13    14   ar
    23    14    15    1
    24    14    16   ar
    25    16    17   ar
    26     3     4   ar
    27     4     5   ar
    28     5     6   ar
    29     6     7   ar
    30     7     8   ar
    31     8     9   ar
    32     9    10   ar
    33    31    32   ar
    34    32    34    1
    35    34    35    1
    36    34    36    1
    37    34    37    1
    38    32    33   ar
    39    33    28   ar
    40    23    18    1
    41    10     2   ar
    42    17    11   ar
    43    10     5   ar
    44    24    27    1
@<TRIPOS>MOLECULE
*****
 40 44 0 0 0
SMALL
GASTEIGER

@<TRIPOS>ATOM
      1 C          -0.3393    3.4648   22.2693 C.3     1  UNL1        0.1631
      2 N          -1.8006    3.5013   22.6060 N.ar    1  UNL1       -0.3048
      3 C          -2.3888    3.4602   23.9852 C.ar    1  UNL1        0.1441
      4 N          -3.8819    3.5189   23.8542 N.ar    1  UNL1       -0.2268
      5 C          -4.2164    3.5963   22.3941 C.ar    1  UNL1        0.0987
      6 C          -5.5262    3.6753   21.6672 C.ar    1  UNL1        0.0206
      7 C          -5.5496    3.7434   20.1690 C.ar    1  UNL1        0.0016
      8 C          -4.2632    3.7325   19.3975 C.ar    1  UNL1        0.0016
      9 C          -2.9535    3.6535   20.1243 C.ar    1  UNL1        0.0188
     10 C          -2.9301    3.5854   21.6226 C.ar    1  UNL1        0.0792
     11 C          -1.6191    3.3753   25.2699 C.ar    1  UNL1        0.0342
     12 C          -0.9639    2.0860   25.6678 C.ar    1  UNL1        0.0039
     13 C          -0.1942    2.0011   26.9524 C.ar    1  UNL1        0.0115
     14 C          -0.0796    3.2054   27.8391 C.ar    1  UNL1        0.0577
     15 CL          0.6901    3.1205   29.1238 Cl      1  UNL1       -0.0822
     16 C          -0.7348    4.4947   27.4412 C.ar    1  UNL1        0.0115
     17 C          -1.5046    4.5797   26.1566 C.ar    1  UNL1        0.0039
     18 C           0.5460    4.6159   22.6448 C.3     1  UNL1        0.0297
     19 C           0.6000    5.8358   21.7736 C.3     1  UNL1        0.0024
     20 C           1.4853    6.9870   22.1491 C.3     1  UNL1        0.0001
     21 C           2.3165    6.9183   23.3958 C.3     1  UNL1        0.0000
     22 C           2.2625    5.6985   24.2670 C.3     1  UNL1        0.0001
     23 C           1.3772    4.5473   23.8915 C.3     1  UNL1        0.0024
     24 N           1.7234    2.0858   21.4985 N.am    1  UNL1       -0.2824
     25 C           0.2368    2.2769   21.5570 C.2     1  UNL1        0.2468
     26 O          -0.5219    1.1905   20.8539 O.2     1  UNL1       -0.2727
     27 H           2.3211    2.7400   21.9275 H       1  UNL1        0.1549
     28 C           3.4513   -1.4778   19.3618 C.ar    1  UNL1        0.0140
     29 C           3.0853   -1.5783   20.8130 C.ar    1  UNL1        0.0024
     30 C           2.5093   -0.3903   21.5253 C.ar    1  UNL1        0.0147
     31 C           2.2994    0.8980   20.7862 C.ar    1  UNL1        0.0542
     32 C           2.6653    0.9985   19.3351 C.ar    1  UNL1        0.0849
     33 C           3.2413   -0.1894   18.6229 C.ar    1  UNL1        0.0062
     34 C           2.4554    2.2868   18.5961 C.3     1  UNL1        0.4197
     35 F           2.2454    3.5751   17.8570 F       1  UNL1       -0.1658
     36 F           3.7995    2.7691   19.0550 F       1  UNL1       -0.1658
     37 F           1.1468    1.6510   18.2306 F       1  UNL1       -0.1658
     38 O           5.0869   -2.4729   17.6056 O.co2   1  UNL1       -0.5446
     39 C           4.0272   -2.6656   18.6496 C.2     1  UNL1        0.0729
     40 O           3.5435   -4.0461   18.9814 O.co2   1  UNL1       -0.5446
@<TRIPOS>UNITY_ATOM_ATTR
38 1
charge -1
@<TRIPOS>BOND
     1    38    39   ar
     2    39    40   ar
     3    39    28    1
     4    28    29   ar
     5    29    30   ar
     6    30    31   ar
     7    31    24    1
     8    24    25   am
     9    25    26    2
    10    25     1    1
    11     1    18    1
    12    18    19    1
    13    19    20    1
    14    20    21    1
    15    21    22    1
    16    22    23    1
    17     1     2    1
    18     2     3   ar
    19     3    11    1
    20    11    12   ar
    21    12    13   ar
    22    13    14   ar
    23    14    15    1
    24    14    16   ar
    25    16    17   ar
    26     3     4   ar
    27     4     5   ar
    28     5     6   ar
    29     6     7   ar
    30     7     8   ar
    31     8     9   ar
    32     9    10   ar
    33    31    32   ar
    34    32    34    1
    35    34    35    1
    36    34    36    1
    37    34    37    1
    38    32    33   ar
    39    33    28   ar
    40    23    18    1
    41    10     2   ar
    42    17    11   ar
    43    10     5   ar
    44    24    27    1
@<TRIPOS>MOLECULE
*****
 40 44 0 0 0
SMALL
GASTEIGER

@<TRIPOS>ATOM
      1 C          -0.3920    2.9081   21.2955 C.3     1  UNL1        0.1631
      2 N          -1.3559    3.2783   22.3836 N.ar    1  UNL1       -0.3048
      3 C          -2.6853    3.9466   22.1939 C.ar    1  UNL1        0.1441
      4 N          -3.3107    4.1265   23.5454 N.ar    1  UNL1       -0.2268
      5 C          -2.3676    3.5695   24.5703 C.ar    1  UNL1        0.0987
      6 C          -2.4530    3.4719   26.0647 C.ar    1  UNL1        0.0206
      7 C          -1.3302    2.8501   26.8410 C.ar    1  UNL1        0.0016
      8 C          -0.1220    2.3259   26.1230 C.ar    1  UNL1        0.0016
      9 C          -0.0367    2.4235   24.6286 C.ar    1  UNL1        0.0188
     10 C          -1.1595    3.0453   23.8523 C.ar    1  UNL1        0.0792
     11 C          -3.2843    4.3619   20.8829 C.ar    1  UNL1        0.0342
     12 C          -3.1302    5.7743   20.4019 C.ar    1  UNL1        0.0039
     13 C          -3.7292    6.1896   19.0909 C.ar    1  UNL1        0.0115
     14 C          -4.4821    5.1926   18.2609 C.ar    1  UNL1        0.0577
     15 CL         -5.0811    5.6080   16.9498 Cl      1  UNL1       -0.0822
     16 C          -4.6362    3.7802   18.7419 C.ar    1  UNL1        0.0115
     17 C          -4.0373    3.3648   20.0529 C.ar    1  UNL1        0.0039
     18 C          -0.1743    3.8371   20.1382 C.3     1  UNL1        0.0297
     19 C          -0.5320    3.4005   18.7484 C.3     1  UNL1        0.0024
     20 C          -0.3144    4.3295   17.5910 C.3     1  UNL1        0.0001
     21 C           0.2609    5.6952   17.8234 C.3     1  UNL1        0.0000
     22 C           0.6186    6.1318   19.2131 C.3     1  UNL1        0.0001
     23 C           0.4010    5.2028   20.3705 C.3     1  UNL1        0.0024
     24 N           1.8244    1.6032   21.6630 N.am    1  UNL1       -0.2824
     25 C           0.3544    1.6087   21.3648 C.2     1  UNL1        0.2468
     26 O          -0.2080    0.2328   21.1634 O.2     1  UNL1       -0.2727
     27 H           2.2995    2.4523   21.8132 H       1  UNL1        0.1549
     28 C           4.0632   -2.2949   21.8710 C.ar    1  UNL1        0.0140
     29 C           3.5281   -1.6695   23.1250 C.ar    1  UNL1        0.0024
     30 C           2.7818   -0.3700   23.0556 C.ar    1  UNL1        0.0147
     31 C           2.5707    0.3039   21.7323 C.ar    1  UNL1        0.0542
     32 C           3.1057   -0.3216   20.4783 C.ar    1  UNL1        0.0849
     33 C           3.8520   -1.6209   20.5476 C.ar    1  UNL1        0.0062
     34 C           2.8946    0.3524   19.1549 C.3     1  UNL1        0.4197
     35 F           2.6834    1.0263   17.8316 F       1  UNL1       -0.1658
     36 F           1.6198   -0.4155   18.9673 F       1  UNL1       -0.1658
     37 F           4.1857    1.0324   19.5025 F       1  UNL1       -0.1658
     38 O           4.5550   -4.6608   20.9167 O.co2   1  UNL1       -0.5446
     39 C           4.8094   -3.5942   21.9402 C.2     1  UNL1        0.0729
     40 O           5.8101   -3.8270   23.0332 O.co2   1  UNL1       -0.5446
@<TRIPOS>UNITY_ATOM_ATTR
38 1
charge -1
@<TRIPOS>BOND
     1    38    39   ar
     2    39    40   ar
     3    39    28    1
     4    28    29   ar
     5    29    30   ar
     6    30    31   ar
     7    31    24    1
     8    24    25   am
     9    25    26    2
    10    25     1    1
    11     1    18    1
    12    18    19    1
    13    19    20    1
    14    20    21    1
    15    21    22    1
    16    22    23    1
    17     1     2    1
    18     2     3   ar
    19     3    11    1
    20    11    12   ar
    21    12    13   ar
    22    13    14   ar
    23    14    15    1
    24    14    16   ar
    25    16    17   ar
    26     3     4   ar
    27     4     5   ar
    28     5     6   ar
    29     6     7   ar
    30     7     8   ar
    31     8     9   ar
    32     9    10   ar
    33    31    32   ar
    34    32    34    1
    35    34    35    1
    36    34    36    1
    37    34    37    1
    38    32    33   ar
    39    33    28   ar
    40    23    18    1
    41    10     2   ar
    42    17    11   ar
    43    10     5   ar
    44    24    27    1
@<TRIPOS>MOLECULE
*****
 40 44 0 0 0
SMALL
GASTEIGER

@<TRIPOS>ATOM
      1 C          -0.4637    2.8451   20.8057 C.3     1  UNL1        0.1631
      2 N          -1.6155    3.1949   21.7007 N.ar    1  UNL1       -0.3048
      3 C          -1.5628    3.3286   23.1938 C.ar    1  UNL1        0.1441
      4 N          -2.9369    3.6887   23.6757 N.ar    1  UNL1       -0.2268
      5 C          -3.8388    3.7776   22.4804 C.ar    1  UNL1        0.0987
      6 C          -5.2982    4.0969   22.3458 C.ar    1  UNL1        0.0206
      7 C          -5.9409    4.1111   20.9905 C.ar    1  UNL1        0.0016
      8 C          -5.1243    3.8060   19.7699 C.ar    1  UNL1        0.0016
      9 C          -3.6649    3.4866   19.9046 C.ar    1  UNL1        0.0188
     10 C          -3.0221    3.4724   21.2598 C.ar    1  UNL1        0.0792
     11 C          -0.3491    3.1360   24.0540 C.ar    1  UNL1        0.0342
     12 C          -0.2557    1.9471   24.9638 C.ar    1  UNL1        0.0039
     13 C           0.9579    1.7545   25.8240 C.ar    1  UNL1        0.0115
     14 C           2.0781    2.7507   25.7743 C.ar    1  UNL1        0.0577
     15 CL          3.2919    2.5581   26.6345 Cl      1  UNL1       -0.0822
     16 C           1.9848    3.9396   24.8644 C.ar    1  UNL1        0.0115
     17 C           0.7712    4.1323   24.0043 C.ar    1  UNL1        0.0039
     18 C          -0.0820    3.7619   19.6816 C.3     1  UNL1        0.0297
     19 C          -0.2846    3.3298   18.2595 C.3     1  UNL1        0.0024
     20 C           0.0971    4.2466   17.1353 C.3     1  UNL1        0.0001
     21 C           0.6814    5.5956   17.4332 C.3     1  UNL1        0.0000
     22 C           0.8839    6.0278   18.8552 C.3     1  UNL1        0.0001
     23 C           0.5022    5.1110   19.9794 C.3     1  UNL1        0.0024
     24 N           1.7389    1.6409   21.4752 N.am    1  UNL1       -0.2824
     25 C           0.3064    1.5784   21.0348 C.2     1  UNL1        0.2468
     26 O          -0.1961    0.1744   20.8721 O.2     1  UNL1       -0.2727
     27 H           2.1737    2.5132   21.6139 H       1  UNL1        0.1549
     28 C           4.0491   -2.1593   22.1626 C.ar    1  UNL1        0.0140
     29 C           3.3871   -1.4650   23.3157 C.ar    1  UNL1        0.0024
     30 C           2.6170   -0.1982   23.0866 C.ar    1  UNL1        0.0147
     31 C           2.5090    0.3742   21.7043 C.ar    1  UNL1        0.0542
     32 C           3.1710   -0.3201   20.5512 C.ar    1  UNL1        0.0849
     33 C           3.9410   -1.5868   20.7803 C.ar    1  UNL1        0.0062
     34 C           3.0630    0.2523   19.1689 C.3     1  UNL1        0.4197
     35 F           2.9550    0.8247   17.7866 F       1  UNL1       -0.1658
     36 F           4.2007    1.1837   19.4657 F       1  UNL1       -0.1658
     37 F           1.9468   -0.7419   19.0429 F       1  UNL1       -0.1658
     38 O           4.8516   -4.4862   21.3311 O.co2   1  UNL1       -0.5446
     39 C           4.8191   -3.4259   22.3917 C.2     1  UNL1        0.0729
     40 O           5.5566   -3.6324   23.6814 O.co2   1  UNL1       -0.5446
@<TRIPOS>UNITY_ATOM_ATTR
38 1
charge -1
@<TRIPOS>BOND
     1    38    39   ar
     2    39    40   ar
     3    39    28    1
     4    28    29   ar
     5    29    30   ar
     6    30    31   ar
     7    31    24    1
     8    24    25   am
     9    25    26    2
    10    25     1    1
    11     1    18    1
    12    18    19    1
    13    19    20    1
    14    20    21    1
    15    21    22    1
    16    22    23    1
    17     1     2    1
    18     2     3   ar
    19     3    11    1
    20    11    12   ar
    21    12    13   ar
    22    13    14   ar
    23    14    15    1
    24    14    16   ar
    25    16    17   ar
    26     3     4   ar
    27     4     5   ar
    28     5     6   ar
    29     6     7   ar
    30     7     8   ar
    31     8     9   ar
    32     9    10   ar
    33    31    32   ar
    34    32    34    1
    35    34    35    1
    36    34    36    1
    37    34    37    1
    38    32    33   ar
    39    33    28   ar
    40    23    18    1
    41    10     2   ar
    42    17    11   ar
    43    10     5   ar
    44    24    27    1
@<TRIPOS>MOLECULE
*****
 40 44 0 0 0
SMALL
GASTEIGER

@<TRIPOS>ATOM
      1 C          -0.5567    3.2759   22.0609 C.3     1  UNL1        0.1631
      2 N          -1.0862    3.1255   23.4562 N.ar    1  UNL1       -0.3048
      3 C          -2.4434    3.5489   23.9345 C.ar    1  UNL1        0.1441
      4 N          -2.5476    3.2103   25.3921 N.ar    1  UNL1       -0.2268
      5 C          -1.2548    2.5777   25.8145 C.ar    1  UNL1        0.0987
      6 C          -0.7833    2.0426   27.1341 C.ar    1  UNL1        0.0206
      7 C           0.5914    1.4550   27.2573 C.ar    1  UNL1        0.0016
      8 C           1.4945    1.4026   26.0608 C.ar    1  UNL1        0.0016
      9 C           1.0231    1.9377   24.7412 C.ar    1  UNL1        0.0188
     10 C          -0.3516    2.5252   24.6181 C.ar    1  UNL1        0.0792
     11 C          -3.5092    4.1970   23.1015 C.ar    1  UNL1        0.0342
     12 C          -3.6582    5.6896   23.1031 C.ar    1  UNL1        0.0039
     13 C          -4.7241    6.3377   22.2701 C.ar    1  UNL1        0.0115
     14 C          -5.6409    5.4934   21.4356 C.ar    1  UNL1        0.0577
     15 CL         -6.7067    6.1416   20.6026 Cl      1  UNL1       -0.0822
     16 C          -5.4919    4.0008   21.4341 C.ar    1  UNL1        0.0115
     17 C          -4.4261    3.3526   22.2670 C.ar    1  UNL1        0.0039
     18 C          -0.6803    4.5905   21.3494 C.3     1  UNL1        0.0297
     19 C          -0.0322    5.8166   21.9210 C.3     1  UNL1        0.0024
     20 C          -0.1558    7.1314   21.2095 C.3     1  UNL1        0.0001
     21 C          -0.9276    7.2200   19.9263 C.3     1  UNL1        0.0000
     22 C          -1.5757    5.9940   19.3547 C.3     1  UNL1        0.0001
     23 C          -1.4521    4.6793   20.0662 C.3     1  UNL1        0.0024
     24 N           1.5921    1.9978   21.3541 N.am    1  UNL1       -0.2824
     25 C           0.0966    2.1115   21.3770 C.2     1  UNL1        0.2468
     26 O          -0.5882    0.9788   20.6712 O.2     1  UNL1       -0.2727
     27 H           2.1450    2.6873   21.7879 H       1  UNL1        0.1549
     28 C           3.5517   -1.4953   19.3026 C.ar    1  UNL1        0.0140
     29 C           3.1110   -1.6154   20.7313 C.ar    1  UNL1        0.0024
     30 C           2.4578   -0.4510   21.4152 C.ar    1  UNL1        0.0147
     31 C           2.2453    0.8335   20.6702 C.ar    1  UNL1        0.0542
     32 C           2.6859    0.9536   19.2414 C.ar    1  UNL1        0.0849
     33 C           3.3391   -0.2108   18.5576 C.ar    1  UNL1        0.0062
     34 C           2.4734    2.2381   18.4964 C.3     1  UNL1        0.4197
     35 F           2.2609    3.5225   17.7515 F       1  UNL1       -0.1658
     36 F           3.8280    2.7140   18.9306 F       1  UNL1       -0.1658
     37 F           1.1547    1.6090   18.1563 F       1  UNL1       -0.1658
     38 O           5.3411   -2.4294   17.6669 O.co2   1  UNL1       -0.5446
     39 C           4.2048   -2.6596   18.6187 C.2     1  UNL1        0.0729
     40 O           3.7217   -4.0542   18.8867 O.co2   1  UNL1       -0.5446
@<TRIPOS>UNITY_ATOM_ATTR
38 1
charge -1
@<TRIPOS>BOND
     1    38    39   ar
     2    39    40   ar
     3    39    28    1
     4    28    29   ar
     5    29    30   ar
     6    30    31   ar
     7    31    24    1
     8    24    25   am
     9    25    26    2
    10    25     1    1
    11     1    18    1
    12    18    19    1
    13    19    20    1
    14    20    21    1
    15    21    22    1
    16    22    23    1
    17     1     2    1
    18     2     3   ar
    19     3    11    1
    20    11    12   ar
    21    12    13   ar
    22    13    14   ar
    23    14    15    1
    24    14    16   ar
    25    16    17   ar
    26     3     4   ar
    27     4     5   ar
    28     5     6   ar
    29     6     7   ar
    30     7     8   ar
    31     8     9   ar
    32     9    10   ar
    33    31    32   ar
    34    32    34    1
    35    34    35    1
    36    34    36    1
    37    34    37    1
    38    32    33   ar
    39    33    28   ar
    40    23    18    1
    41    10     2   ar
    42    17    11   ar
    43    10     5   ar
    44    24    27    1
@<TRIPOS>MOLECULE
*****
 40 44 0 0 0
SMALL
GASTEIGER

@<TRIPOS>ATOM
      1 C          -0.2516    2.6158   22.2535 C.3     1  UNL1        0.1631
      2 N          -0.7048    3.8455   21.5238 N.ar    1  UNL1       -0.3048
      3 C           0.1133    5.0795   21.2828 C.ar    1  UNL1        0.1441
      4 N          -0.7320    6.0538   20.5170 N.ar    1  UNL1       -0.2268
      5 C          -2.0724    5.4219   20.2848 C.ar    1  UNL1        0.0987
      6 C          -3.3062    5.9130   19.5872 C.ar    1  UNL1        0.0206
      7 C          -4.5231    5.0393   19.5118 C.ar    1  UNL1        0.0016
      8 C          -4.5064    3.6746   20.1340 C.ar    1  UNL1        0.0016
      9 C          -3.2727    3.1835   20.8316 C.ar    1  UNL1        0.0188
     10 C          -2.0557    4.0572   20.9070 C.ar    1  UNL1        0.0792
     11 C           1.5282    5.3003   21.7291 C.ar    1  UNL1        0.0342
     12 C           1.8110    5.7415   23.1346 C.ar    1  UNL1        0.0039
     13 C           3.2259    5.9623   23.5809 C.ar    1  UNL1        0.0115
     14 C           4.3579    5.7420   22.6219 C.ar    1  UNL1        0.0577
     15 CL          5.7729    5.9629   23.0683 Cl      1  UNL1       -0.0822
     16 C           4.0751    5.3009   21.2164 C.ar    1  UNL1        0.0115
     17 C           2.6603    5.0800   20.7700 C.ar    1  UNL1        0.0039
     18 C          -0.5071    2.4801   23.7252 C.3     1  UNL1        0.0297
     19 C          -1.4790    3.3980   24.4056 C.3     1  UNL1        0.0024
     20 C          -1.7346    3.2623   25.8774 C.3     1  UNL1        0.0001
     21 C          -1.0181    2.2086   26.6689 C.3     1  UNL1        0.0000
     22 C          -0.0462    1.2907   25.9887 C.3     1  UNL1        0.0001
     23 C           0.2093    1.4264   24.5168 C.3     1  UNL1        0.0024
     24 N           1.9564    1.4891   21.4753 N.am    1  UNL1       -0.2824
     25 C           0.4572    1.5217   21.5113 C.2     1  UNL1        0.2468
     26 O          -0.1721    0.3890   20.7556 O.2     1  UNL1       -0.2727
     27 H           2.4752    2.1857   21.9387 H       1  UNL1        0.1549
     28 C           4.0824   -1.7932   19.2488 C.ar    1  UNL1        0.0140
     29 C           3.6421   -2.0114   20.6660 C.ar    1  UNL1        0.0024
     30 C           2.9334   -0.9173   21.4082 C.ar    1  UNL1        0.0147
     31 C           2.6651    0.3951   20.7331 C.ar    1  UNL1        0.0542
     32 C           3.1054    0.6133   19.3159 C.ar    1  UNL1        0.0849
     33 C           3.8141   -0.4808   18.5738 C.ar    1  UNL1        0.0062
     34 C           2.8371    1.9257   18.6408 C.3     1  UNL1        0.4197
     35 F           2.5688    3.2381   17.9657 F       1  UNL1       -0.1658
     36 F           4.1313    2.4647   19.1741 F       1  UNL1       -0.1658
     37 F           1.5852    1.2307   18.1938 F       1  UNL1       -0.1658
     38 O           4.3940   -4.3178   18.7204 O.co2   1  UNL1       -0.5446
     39 C           4.7911   -2.8872   18.5067 C.2     1  UNL1        0.0729
     40 O           5.8969   -2.5506   17.5507 O.co2   1  UNL1       -0.5446
@<TRIPOS>UNITY_ATOM_ATTR
38 1
charge -1
@<TRIPOS>BOND
     1    38    39   ar
     2    39    40   ar
     3    39    28    1
     4    28    29   ar
     5    29    30   ar
     6    30    31   ar
     7    31    24    1
     8    24    25   am
     9    25    26    2
    10    25     1    1
    11     1    18    1
    12    18    19    1
    13    19    20    1
    14    20    21    1
    15    21    22    1
    16    22    23    1
    17     1     2    1
    18     2     3   ar
    19     3    11    1
    20    11    12   ar
    21    12    13   ar
    22    13    14   ar
    23    14    15    1
    24    14    16   ar
    25    16    17   ar
    26     3     4   ar
    27     4     5   ar
    28     5     6   ar
    29     6     7   ar
    30     7     8   ar
    31     8     9   ar
    32     9    10   ar
    33    31    32   ar
    34    32    34    1
    35    34    35    1
    36    34    36    1
    37    34    37    1
    38    32    33   ar
    39    33    28   ar
    40    23    18    1
    41    10     2   ar
    42    17    11   ar
    43    10     5   ar
    44    24    27    1
