@<TRIPOS>MOLECULE
*****
 23 24 0 0 0
SMALL
GASTEIGER

@<TRIPOS>ATOM
      1 C          -3.9580  -19.0257   21.0055 C.ar    1  UNL1        0.0843
      2 C          -5.1601  -19.4323   20.2059 C.ar    1  UNL1        0.0104
      3 C          -6.5369  -19.0983   20.6990 C.ar    1  UNL1        0.0366
      4 C          -7.7391  -19.5050   19.8993 C.ar    1  UNL1        0.0112
      5 C          -9.1158  -19.1709   20.3923 C.ar    1  UNL1        0.0563
      6 BR        -10.3180  -19.5776   19.5928 Br      1  UNL1       -0.0475
      7 C          -9.2903  -18.4301   21.6850 C.ar    1  UNL1        0.1604
      8 N          -8.0881  -18.0234   22.4846 N.ar    1  UNL1       -0.2221
      9 C          -6.7114  -18.3575   21.9915 C.ar    1  UNL1        0.1636
     10 N          -5.5092  -17.9508   22.7911 N.ar    1  UNL1       -0.2122
     11 C          -4.1325  -18.2849   22.2980 C.ar    1  UNL1        0.1314
     12 N          -2.9303  -17.8782   23.0977 N.pl3   1  UNL1       -0.3425
     13 H          -3.0448  -17.3920   23.9461 H       1  UNL1        0.1437
     14 H          -2.0267  -18.0975   22.7741 H       1  UNL1        0.1437
     15 N          -2.0982  -18.8064   19.2046 N.am    1  UNL1       -0.3252
     16 C          -2.5813  -19.3597   20.5124 C.2     1  UNL1        0.2455
     17 O          -1.6876  -20.2471   21.3272 O.2     1  UNL1       -0.2703
     18 H          -1.1946  -19.0257   18.8811 H       1  UNL1        0.1453
     19 H          -2.6847  -18.2240   18.6698 H       1  UNL1        0.1453
     20 C         -10.6670  -18.0960   22.1780 C.3     1  UNL1        0.4354
     21 F         -12.0437  -17.7620   22.6711 F       1  UNL1       -0.1644
     22 F         -10.5971  -16.7722   21.4762 F       1  UNL1       -0.1644
     23 F         -10.7369  -19.4199   22.8799 F       1  UNL1       -0.1644
@<TRIPOS>BOND
     1    15    16   am
     2    16    17    2
     3    16     1    1
     4     1     2   ar
     5     2     3   ar
     6     3     4   ar
     7     4     5   ar
     8     5     6    1
     9     5     7   ar
    10     7    20    1
    11    20    21    1
    12    20    22    1
    13    20    23    1
    14     7     8   ar
    15     8     9   ar
    16     9    10   ar
    17    10    11   ar
    18    11    12    1
    19    11     1   ar
    20     9     3   ar
    21    15    18    1
    22    15    19    1
    23    12    13    1
    24    12    14    1
@<TRIPOS>MOLECULE
*****
 23 24 0 0 0
SMALL
GASTEIGER

@<TRIPOS>ATOM
      1 C          -4.2343  -18.9463   21.6664 C.ar    1  UNL1        0.0843
      2 C          -5.1999  -18.2509   22.5796 C.ar    1  UNL1        0.0104
      3 C          -6.6523  -18.1694   22.2137 C.ar    1  UNL1        0.0366
      4 C          -7.6179  -17.4740   23.1269 C.ar    1  UNL1        0.0112
      5 C          -9.0703  -17.3925   22.7610 C.ar    1  UNL1        0.0563
      6 BR        -10.0360  -16.6971   23.6742 Br      1  UNL1       -0.0475
      7 C          -9.5571  -18.0064   21.4819 C.ar    1  UNL1        0.1604
      8 N          -8.5915  -18.7018   20.5687 N.ar    1  UNL1       -0.2221
      9 C          -7.1391  -18.7833   20.9346 C.ar    1  UNL1        0.1636
     10 N          -6.1735  -19.4787   20.0214 N.ar    1  UNL1       -0.2122
     11 C          -4.7211  -19.5602   20.3873 C.ar    1  UNL1        0.1314
     12 N          -3.7554  -20.2556   19.4740 N.pl3   1  UNL1       -0.3425
     13 H          -4.0749  -20.6585   18.6345 H       1  UNL1        0.1437
     14 H          -2.8022  -20.3091   19.7141 H       1  UNL1        0.1437
     15 N          -2.1339  -17.9040   22.7853 N.am    1  UNL1       -0.3252
     16 C          -2.7819  -19.0278   22.0323 C.2     1  UNL1        0.2455
     17 O          -1.9774  -20.2332   21.6452 O.2     1  UNL1       -0.2703
     18 H          -1.1807  -17.9575   23.0254 H       1  UNL1        0.1453
     19 H          -2.6619  -17.1128   23.0393 H       1  UNL1        0.1453
     20 C         -11.0095  -17.9249   21.1160 C.3     1  UNL1        0.4354
     21 F         -12.4619  -17.8434   20.7500 F       1  UNL1       -0.1644
     22 F         -11.2619  -19.2202   21.8291 F       1  UNL1       -0.1644
     23 F         -10.7572  -16.6297   20.4028 F       1  UNL1       -0.1644
@<TRIPOS>BOND
     1    15    16   am
     2    16    17    2
     3    16     1    1
     4     1     2   ar
     5     2     3   ar
     6     3     4   ar
     7     4     5   ar
     8     5     6    1
     9     5     7   ar
    10     7    20    1
    11    20    21    1
    12    20    22    1
    13    20    23    1
    14     7     8   ar
    15     8     9   ar
    16     9    10   ar
    17    10    11   ar
    18    11    12    1
    19    11     1   ar
    20     9     3   ar
    21    15    18    1
    22    15    19    1
    23    12    13    1
    24    12    14    1
@<TRIPOS>MOLECULE
*****
 23 24 0 0 0
SMALL
GASTEIGER

@<TRIPOS>ATOM
      1 C          -6.9520  -15.7556   24.8745 C.ar    1  UNL1        0.0843
      2 C          -8.4366  -15.9249   24.7429 C.ar    1  UNL1        0.0104
      3 C          -9.0085  -16.6229   23.5447 C.ar    1  UNL1        0.0366
      4 C         -10.4932  -16.7922   23.4130 C.ar    1  UNL1        0.0112
      5 C         -11.0651  -17.4901   22.2148 C.ar    1  UNL1        0.0563
      6 BR        -12.5497  -17.6594   22.0832 Br      1  UNL1       -0.0475
      7 C         -10.1524  -18.0188   21.1482 C.ar    1  UNL1        0.1604
      8 N          -8.6678  -17.8495   21.2799 N.ar    1  UNL1       -0.2221
      9 C          -8.0959  -17.1515   22.4781 C.ar    1  UNL1        0.1636
     10 N          -6.6113  -16.9822   22.6098 N.ar    1  UNL1       -0.2122
     11 C          -6.0394  -16.2843   23.8080 C.ar    1  UNL1        0.1314
     12 N          -4.5548  -16.1150   23.9396 N.pl3   1  UNL1       -0.3425
     13 H          -3.9558  -16.4620   23.2396 H       1  UNL1        0.1437
     14 H          -4.1793  -15.6569   24.7260 H       1  UNL1        0.1437
     15 N          -7.1207  -15.0779   27.3770 N.am    1  UNL1       -0.3252
     16 C          -6.3801  -15.0577   26.0728 C.2     1  UNL1        0.2455
     17 O          -5.0675  -14.3394   25.9668 O.2     1  UNL1       -0.2703
     18 H          -6.7453  -14.6198   28.1634 H       1  UNL1        0.1453
     19 H          -7.9822  -15.5493   27.4466 H       1  UNL1        0.1453
     20 C         -10.7243  -18.7168   19.9500 C.3     1  UNL1        0.4354
     21 F         -11.2963  -19.4147   18.7518 F       1  UNL1       -0.1644
     22 F         -10.5473  -20.0391   20.6358 F       1  UNL1       -0.1644
     23 F         -10.9013  -17.3945   19.2643 F       1  UNL1       -0.1644
@<TRIPOS>BOND
     1    15    16   am
     2    16    17    2
     3    16     1    1
     4     1     2   ar
     5     2     3   ar
     6     3     4   ar
     7     4     5   ar
     8     5     6    1
     9     5     7   ar
    10     7    20    1
    11    20    21    1
    12    20    22    1
    13    20    23    1
    14     7     8   ar
    15     8     9   ar
    16     9    10   ar
    17    10    11   ar
    18    11    12    1
    19    11     1   ar
    20     9     3   ar
    21    15    18    1
    22    15    19    1
    23    12    13    1
    24    12    14    1
@<TRIPOS>MOLECULE
*****
 23 24 0 0 0
SMALL
GASTEIGER

@<TRIPOS>ATOM
      1 C          -9.9577  -17.7851   21.6695 C.ar    1  UNL1        0.0843
      2 C          -9.0572  -18.6991   20.8926 C.ar    1  UNL1        0.0104
      3 C          -7.5853  -18.7246   21.1805 C.ar    1  UNL1        0.0366
      4 C          -6.6848  -19.6387   20.4036 C.ar    1  UNL1        0.0112
      5 C          -5.2129  -19.6642   20.6915 C.ar    1  UNL1        0.0563
      6 BR         -4.3124  -20.5782   19.9147 Br      1  UNL1       -0.0475
      7 C          -4.6416  -18.7755   21.7564 C.ar    1  UNL1        0.1604
      8 N          -5.5420  -17.8615   22.5333 N.ar    1  UNL1       -0.2221
      9 C          -7.0139  -17.8360   22.2454 C.ar    1  UNL1        0.1636
     10 N          -7.9144  -16.9219   23.0222 N.ar    1  UNL1       -0.2122
     11 C          -9.3863  -16.8965   22.7343 C.ar    1  UNL1        0.1314
     12 N         -10.2868  -15.9823   23.5112 N.pl3   1  UNL1       -0.3425
     13 H          -9.9118  -15.3991   24.2101 H       1  UNL1        0.1437
     14 H         -11.2529  -15.9656   23.3222 H       1  UNL1        0.1437
     15 N         -11.9210  -17.3604   20.0217 N.am    1  UNL1       -0.3252
     16 C         -11.4296  -17.7596   21.3815 C.2     1  UNL1        0.2455
     17 O         -12.4101  -18.1333   22.4534 O.2     1  UNL1       -0.2703
     18 H         -12.8870  -17.3437   19.8327 H       1  UNL1        0.1453
     19 H         -11.2775  -17.1151   19.3182 H       1  UNL1        0.1453
     20 C          -3.1697  -18.8010   22.0444 C.3     1  UNL1        0.4354
     21 F          -1.6978  -18.8264   22.3323 F       1  UNL1       -0.1644
     22 F          -3.3819  -19.9108   23.0309 F       1  UNL1       -0.1644
     23 F          -2.9575  -17.6911   21.0578 F       1  UNL1       -0.1644
@<TRIPOS>BOND
     1    15    16   am
     2    16    17    2
     3    16     1    1
     4     1     2   ar
     5     2     3   ar
     6     3     4   ar
     7     4     5   ar
     8     5     6    1
     9     5     7   ar
    10     7    20    1
    11    20    21    1
    12    20    22    1
    13    20    23    1
    14     7     8   ar
    15     8     9   ar
    16     9    10   ar
    17    10    11   ar
    18    11    12    1
    19    11     1   ar
    20     9     3   ar
    21    15    18    1
    22    15    19    1
    23    12    13    1
    24    12    14    1
@<TRIPOS>MOLECULE
*****
 23 24 0 0 0
SMALL
GASTEIGER

@<TRIPOS>ATOM
      1 C          -9.0215  -19.1371   21.6578 C.ar    1  UNL1        0.0843
      2 C          -7.8178  -18.8258   22.4969 C.ar    1  UNL1        0.0104
      3 C          -6.4606  -18.7502   21.8626 C.ar    1  UNL1        0.0366
      4 C          -5.2569  -18.4388   22.7017 C.ar    1  UNL1        0.0112
      5 C          -3.8997  -18.3632   22.0674 C.ar    1  UNL1        0.0563
      6 BR         -2.6959  -18.0519   22.9065 Br      1  UNL1       -0.0475
      7 C          -3.7463  -18.5990   20.5940 C.ar    1  UNL1        0.1604
      8 N          -4.9500  -18.9103   19.7549 N.ar    1  UNL1       -0.2221
      9 C          -6.3072  -18.9859   20.3892 C.ar    1  UNL1        0.1636
     10 N          -7.5109  -19.2972   19.5502 N.ar    1  UNL1       -0.2122
     11 C          -8.8681  -19.3728   20.1845 C.ar    1  UNL1        0.1314
     12 N         -10.0718  -19.6842   19.3453 N.pl3   1  UNL1       -0.3425
     13 H          -9.9711  -19.8389   18.3783 H       1  UNL1        0.1437
     14 H         -10.9626  -19.7338   19.7616 H       1  UNL1        0.1437
     15 N         -10.5834  -20.0350   23.5298 N.am    1  UNL1       -0.3252
     16 C         -10.3787  -19.2127   22.2921 C.2     1  UNL1        0.2455
     17 O         -11.5312  -18.4660   21.6887 O.2     1  UNL1       -0.2703
     18 H         -11.4742  -20.0846   23.9461 H       1  UNL1        0.1453
     19 H          -9.8269  -20.5251   23.9258 H       1  UNL1        0.1453
     20 C          -2.3891  -18.5234   19.9597 C.3     1  UNL1        0.4354
     21 F          -1.0319  -18.4478   19.3254 F       1  UNL1       -0.1644
     22 F          -2.7018  -17.1459   19.4548 F       1  UNL1       -0.1644
     23 F          -2.0764  -19.9008   20.4645 F       1  UNL1       -0.1644
@<TRIPOS>BOND
     1    15    16   am
     2    16    17    2
     3    16     1    1
     4     1     2   ar
     5     2     3   ar
     6     3     4   ar
     7     4     5   ar
     8     5     6    1
     9     5     7   ar
    10     7    20    1
    11    20    21    1
    12    20    22    1
    13    20    23    1
    14     7     8   ar
    15     8     9   ar
    16     9    10   ar
    17    10    11   ar
    18    11    12    1
    19    11     1   ar
    20     9     3   ar
    21    15    18    1
    22    15    19    1
    23    12    13    1
    24    12    14    1
@<TRIPOS>MOLECULE
*****
 23 24 0 0 0
SMALL
GASTEIGER

@<TRIPOS>ATOM
      1 C          -8.8412  -17.4565   23.2809 C.ar    1  UNL1        0.0843
      2 C          -8.2963  -18.5440   22.4032 C.ar    1  UNL1        0.0104
      3 C          -6.8322  -18.5834   22.0792 C.ar    1  UNL1        0.0366
      4 C          -6.2873  -19.6710   21.2015 C.ar    1  UNL1        0.0112
      5 C          -4.8232  -19.7104   20.8775 C.ar    1  UNL1        0.0563
      6 BR         -4.2783  -20.7979   19.9998 Br      1  UNL1       -0.0475
      7 C          -3.9041  -18.6622   21.4312 C.ar    1  UNL1        0.1604
      8 N          -4.4490  -17.5747   22.3089 N.ar    1  UNL1       -0.2221
      9 C          -5.9130  -17.5353   22.6329 C.ar    1  UNL1        0.1636
     10 N          -6.4580  -16.4478   23.5105 N.ar    1  UNL1       -0.2122
     11 C          -7.9220  -16.4084   23.8345 C.ar    1  UNL1        0.1314
     12 N          -8.4669  -15.3208   24.7122 N.pl3   1  UNL1       -0.3425
     13 H          -7.8636  -14.6329   25.0756 H       1  UNL1        0.1437
     14 H          -9.4278  -15.2949   24.9249 H       1  UNL1        0.1437
     15 N         -10.9253  -18.5209   24.4093 N.am    1  UNL1       -0.3252
     16 C         -10.3052  -17.4171   23.6049 C.2     1  UNL1        0.2455
     17 O         -11.1492  -16.2739   23.1245 O.2     1  UNL1       -0.2703
     18 H         -11.8862  -18.4950   24.6219 H       1  UNL1        0.1453
     19 H         -10.3714  -19.2712   24.7246 H       1  UNL1        0.1453
     20 C          -2.4400  -18.7016   21.1072 C.3     1  UNL1        0.4354
     21 F          -0.9760  -18.7410   20.7832 F       1  UNL1       -0.1644
     22 F          -2.6620  -17.7304   19.9859 F       1  UNL1       -0.1644
     23 F          -2.2180  -19.6729   22.2285 F       1  UNL1       -0.1644
@<TRIPOS>BOND
     1    15    16   am
     2    16    17    2
     3    16     1    1
     4     1     2   ar
     5     2     3   ar
     6     3     4   ar
     7     4     5   ar
     8     5     6    1
     9     5     7   ar
    10     7    20    1
    11    20    21    1
    12    20    22    1
    13    20    23    1
    14     7     8   ar
    15     8     9   ar
    16     9    10   ar
    17    10    11   ar
    18    11    12    1
    19    11     1   ar
    20     9     3   ar
    21    15    18    1
    22    15    19    1
    23    12    13    1
    24    12    14    1
@<TRIPOS>MOLECULE
*****
 23 24 0 0 0
SMALL
GASTEIGER

@<TRIPOS>ATOM
      1 C         -17.7053   -8.7763   19.3977 C.ar    1  UNL1        0.0843
      2 C         -17.0093   -7.4661   19.6186 C.ar    1  UNL1        0.0104
      3 C         -15.5723   -7.3037   19.2202 C.ar    1  UNL1        0.0366
      4 C         -14.8762   -5.9934   19.4411 C.ar    1  UNL1        0.0112
      5 C         -13.4392   -5.8310   19.0427 C.ar    1  UNL1        0.0563
      6 BR        -12.7432   -4.5208   19.2636 Br      1  UNL1       -0.0475
      7 C         -12.6983   -6.9789   18.4234 C.ar    1  UNL1        0.1604
      8 N         -13.3944   -8.2891   18.2025 N.ar    1  UNL1       -0.2221
      9 C         -14.8313   -8.4515   18.6009 C.ar    1  UNL1        0.1636
     10 N         -15.5274   -9.7617   18.3800 N.ar    1  UNL1       -0.2122
     11 C         -16.9644   -9.9241   18.7784 C.ar    1  UNL1        0.1314
     12 N         -17.6604  -11.2344   18.5575 N.pl3   1  UNL1       -0.3425
     13 H         -17.1741  -11.9878   18.1510 H       1  UNL1        0.1437
     14 H         -18.6036  -11.3410   18.8189 H       1  UNL1        0.1437
     15 N         -19.6603   -8.2589   21.0287 N.am    1  UNL1       -0.3252
     16 C         -19.1423   -8.9387   19.7960 C.2     1  UNL1        0.2455
     17 O         -20.0613   -9.7809   18.9617 O.2     1  UNL1       -0.2703
     18 H         -20.6034   -8.3655   21.2902 H       1  UNL1        0.1453
     19 H         -19.0571   -7.7062   21.5763 H       1  UNL1        0.1453
     20 C         -11.2613   -6.8165   18.0250 C.3     1  UNL1        0.4354
     21 F          -9.8243   -6.6541   17.6267 F       1  UNL1       -0.1644
     22 F         -11.6914   -6.3130   16.6791 F       1  UNL1       -0.1644
     23 F         -10.8313   -7.3201   19.3710 F       1  UNL1       -0.1644
@<TRIPOS>BOND
     1    15    16   am
     2    16    17    2
     3    16     1    1
     4     1     2   ar
     5     2     3   ar
     6     3     4   ar
     7     4     5   ar
     8     5     6    1
     9     5     7   ar
    10     7    20    1
    11    20    21    1
    12    20    22    1
    13    20    23    1
    14     7     8   ar
    15     8     9   ar
    16     9    10   ar
    17    10    11   ar
    18    11    12    1
    19    11     1   ar
    20     9     3   ar
    21    15    18    1
    22    15    19    1
    23    12    13    1
    24    12    14    1
@<TRIPOS>MOLECULE
*****
 23 24 0 0 0
SMALL
GASTEIGER

@<TRIPOS>ATOM
      1 C         -12.1348   -5.7577   18.8867 C.ar    1  UNL1        0.0843
      2 C         -13.5337   -5.6522   19.4175 C.ar    1  UNL1        0.0104
      3 C         -14.5359   -6.7247   19.1089 C.ar    1  UNL1        0.0366
      4 C         -15.9349   -6.6192   19.6398 C.ar    1  UNL1        0.0112
      5 C         -16.9371   -7.6918   19.3312 C.ar    1  UNL1        0.0563
      6 BR        -18.3360   -7.5862   19.8621 Br      1  UNL1       -0.0475
      7 C         -16.5403   -8.8699   18.4918 C.ar    1  UNL1        0.1604
      8 N         -15.1413   -8.9755   17.9610 N.ar    1  UNL1       -0.2221
      9 C         -14.1392   -7.9029   18.2696 C.ar    1  UNL1        0.1636
     10 N         -12.7402   -8.0084   17.7387 N.ar    1  UNL1       -0.2122
     11 C         -11.7381   -6.9358   18.0473 C.ar    1  UNL1        0.1314
     12 N         -10.3391   -7.0414   17.5164 N.pl3   1  UNL1       -0.3425
     13 H         -10.0787   -7.8146   16.9655 H       1  UNL1        0.1437
     14 H          -9.6813   -6.3374   17.7189 H       1  UNL1        0.1437
     15 N         -11.5761   -3.2575   19.3191 N.am    1  UNL1       -0.3252
     16 C         -11.1326   -4.6851   19.1952 C.2     1  UNL1        0.2455
     17 O          -9.6870   -5.0400   19.3798 O.2     1  UNL1       -0.2703
     18 H         -10.9183   -2.5536   19.5217 H       1  UNL1        0.1453
     19 H         -12.5249   -3.0245   19.1980 H       1  UNL1        0.1453
     20 C         -17.5424   -9.9425   18.1833 C.3     1  UNL1        0.4354
     21 F         -18.5446  -11.0151   17.8747 F       1  UNL1       -0.1644
     22 F         -17.1241  -10.6880   19.4159 F       1  UNL1       -0.1644
     23 F         -17.9608   -9.1971   16.9507 F       1  UNL1       -0.1644
@<TRIPOS>BOND
     1    15    16   am
     2    16    17    2
     3    16     1    1
     4     1     2   ar
     5     2     3   ar
     6     3     4   ar
     7     4     5   ar
     8     5     6    1
     9     5     7   ar
    10     7    20    1
    11    20    21    1
    12    20    22    1
    13    20    23    1
    14     7     8   ar
    15     8     9   ar
    16     9    10   ar
    17    10    11   ar
    18    11    12    1
    19    11     1   ar
    20     9     3   ar
    21    15    18    1
    22    15    19    1
    23    12    13    1
    24    12    14    1
@<TRIPOS>MOLECULE
*****
 23 24 0 0 0
SMALL
GASTEIGER

@<TRIPOS>ATOM
      1 C         -11.6004   -5.4990   18.7812 C.ar    1  UNL1        0.0843
      2 C         -12.2061   -6.8368   18.4761 C.ar    1  UNL1        0.0104
      3 C         -13.6685   -7.0701   18.7148 C.ar    1  UNL1        0.0366
      4 C         -14.2742   -8.4080   18.4097 C.ar    1  UNL1        0.0112
      5 C         -15.7366   -8.6413   18.6484 C.ar    1  UNL1        0.0563
      6 BR        -16.3423   -9.9791   18.3433 Br      1  UNL1       -0.0475
      7 C         -16.5933   -7.5365   19.1922 C.ar    1  UNL1        0.1604
      8 N         -15.9876   -6.1986   19.4972 N.ar    1  UNL1       -0.2221
      9 C         -14.5252   -5.9654   19.2586 C.ar    1  UNL1        0.1636
     10 N         -13.9195   -4.6275   19.5636 N.ar    1  UNL1       -0.2122
     11 C         -12.4571   -4.3943   19.3249 C.ar    1  UNL1        0.1314
     12 N         -11.8514   -3.0563   19.6300 N.pl3   1  UNL1       -0.3425
     13 H         -12.4137   -2.3312   19.9869 H       1  UNL1        0.1437
     14 H         -10.8915   -2.9032   19.4734 H       1  UNL1        0.1437
     15 N          -9.6011   -5.2412   17.1421 N.am    1  UNL1       -0.3252
     16 C         -10.1379   -5.2657   18.5425 C.2     1  UNL1        0.2455
     17 O          -9.2123   -5.0571   19.7043 O.2     1  UNL1       -0.2703
     18 H          -8.6413   -5.0881   16.9855 H       1  UNL1        0.1453
     19 H         -10.2086   -5.3781   16.3796 H       1  UNL1        0.1453
     20 C         -18.0557   -7.7697   19.4308 C.3     1  UNL1        0.4354
     21 F         -19.5181   -8.0029   19.6695 F       1  UNL1       -0.1644
     22 F         -18.3550   -7.3272   18.0292 F       1  UNL1       -0.1644
     23 F         -17.7564   -8.2122   20.8325 F       1  UNL1       -0.1644
@<TRIPOS>BOND
     1    15    16   am
     2    16    17    2
     3    16     1    1
     4     1     2   ar
     5     2     3   ar
     6     3     4   ar
     7     4     5   ar
     8     5     6    1
     9     5     7   ar
    10     7    20    1
    11    20    21    1
    12    20    22    1
    13    20    23    1
    14     7     8   ar
    15     8     9   ar
    16     9    10   ar
    17    10    11   ar
    18    11    12    1
    19    11     1   ar
    20     9     3   ar
    21    15    18    1
    22    15    19    1
    23    12    13    1
    24    12    14    1
