@<TRIPOS>MOLECULE
*****
 45 49 0 0 0
SMALL
GASTEIGER

@<TRIPOS>ATOM
      1 N           5.8792   -2.6491   19.9247 N.am    1  UNL1       -0.2724
      2 C           5.9458   -3.4674   21.1800 C.2     1  UNL1        0.2491
      3 O           4.7974   -4.3551   21.5585 O.2     1  UNL1       -0.2727
      4 C           7.0276   -1.7614   19.5462 C.3     1  UNL1        0.1111
      5 C           7.0245   -0.3172   19.9515 C.3     1  UNL1        0.0939
      6 N           6.9130    0.7544   18.9078 N.3     1  UNL1       -0.2712
      7 C           6.6438    1.0338   16.3388 C.3     1  UNL1        0.0188
      8 C           7.4062    0.4985   17.5145 C.3     1  UNL1        0.0722
      9 C           6.3083    2.0818   19.2573 C.3     1  UNL1        0.0722
     10 C           7.1762    3.1858   19.7845 C.3     1  UNL1        0.0188
     11 C           4.6641   -2.7183   19.0479 C.3     1  UNL1        0.1202
     12 C           3.6358   -1.6277   19.1037 C.ar    1  UNL1       -0.0023
     13 C           3.6825   -0.5015   18.1140 C.ar    1  UNL1       -0.0026
     14 C           2.6542    0.5891   18.1698 C.ar    1  UNL1       -0.0003
     15 C           1.5792    0.5536   19.2153 C.ar    1  UNL1       -0.0000
     16 C           1.5325   -0.5725   20.2051 C.ar    1  UNL1       -0.0003
     17 C           2.5608   -1.6632   20.1493 C.ar    1  UNL1       -0.0026
     18 C           0.5510    1.6443   19.2711 C.ar    1  UNL1        0.0001
     19 C          -0.3617    1.7547   20.4563 C.ar    1  UNL1        0.0009
     20 C          -1.3900    2.8454   20.5121 C.ar    1  UNL1        0.0114
     21 C          -1.5056    3.8256   19.3827 C.ar    1  UNL1        0.0577
     22 CL         -2.5339    4.9163   19.4384 Cl      1  UNL1       -0.0822
     23 C          -0.5929    3.7153   18.1973 C.ar    1  UNL1        0.0114
     24 C           0.4354    2.6246   18.1415 C.ar    1  UNL1        0.0009
     25 C           7.1609   -3.3982   22.0568 C.3     1  UNL1        0.1931
     26 N           7.0864   -3.8662   23.4800 N.ar    1  UNL1       -0.3030
     27 C           6.4021   -3.0206   24.5128 C.ar    1  UNL1        0.1747
     28 N           6.3277   -3.4886   25.9360 N.ar    1  UNL1       -0.1847
     29 C           6.9375   -4.8022   26.3264 C.ar    1  UNL1        0.2779
     30 O           6.8631   -5.2702   27.7495 O.2     1  UNL1       -0.2654
     31 C           7.6219   -5.6479   25.2936 C.ar    1  UNL1        0.0474
     32 C           7.6964   -5.1799   23.8704 C.ar    1  UNL1        0.0399
     33 C           8.3807   -6.0255   22.8377 C.3     1  UNL1        0.0437
     34 C           8.9905   -7.3391   23.2281 C.3     1  UNL1        0.0066
     35 C           8.9161   -7.8071   24.6512 C.3     1  UNL1        0.0053
     36 C           8.2318   -6.9615   25.6840 C.3     1  UNL1        0.0324
     37 S           5.7922   -1.7069   24.1224 S.3     1  UNL1       -0.0724
     38 C           4.3140   -1.6063   23.8886 C.3     1  UNL1        0.0913
     39 C           3.7166   -0.3166   23.4093 C.ar    1  UNL1       -0.0108
     40 C           4.4614    0.5345   22.4239 C.ar    1  UNL1       -0.0011
     41 C           3.8639    1.8242   21.9447 C.ar    1  UNL1        0.0293
     42 C           2.5218    2.2628   22.4508 C.ar    1  UNL1        0.1401
     43 F           1.9243    3.5525   21.9715 F       1  UNL1       -0.2042
     44 C           1.7770    1.4118   23.4361 C.ar    1  UNL1        0.0293
     45 C           2.3744    0.1220   23.9154 C.ar    1  UNL1       -0.0011
@<TRIPOS>BOND
     1     7     8    1
     2     8     6    1
     3     6     9    1
     4     9    10    1
     5     6     5    1
     6     5     4    1
     7     4     1    1
     8     1    11    1
     9    11    12    1
    10    12    13   ar
    11    13    14   ar
    12    14    15   ar
    13    15    18    1
    14    18    19   ar
    15    19    20   ar
    16    20    21   ar
    17    21    22    1
    18    21    23   ar
    19    23    24   ar
    20    15    16   ar
    21    16    17   ar
    22     1     2   am
    23     2     3    2
    24     2    25    1
    25    25    26    1
    26    26    27   ar
    27    27    37    1
    28    37    38    1
    29    38    39    1
    30    39    40   ar
    31    40    41   ar
    32    41    42   ar
    33    42    43    1
    34    42    44   ar
    35    44    45   ar
    36    27    28   ar
    37    28    29   ar
    38    29    30    2
    39    29    31   ar
    40    31    32   ar
    41    32    33    1
    42    33    34    1
    43    34    35    1
    44    35    36    1
    45    17    12   ar
    46    32    26   ar
    47    24    18   ar
    48    45    39   ar
    49    36    31    1
@<TRIPOS>MOLECULE
*****
 45 49 0 0 0
SMALL
GASTEIGER

@<TRIPOS>ATOM
      1 N           6.0533   -2.8235   19.7671 N.am    1  UNL1       -0.2724
      2 C           6.1033   -3.6795   20.9979 C.2     1  UNL1        0.2491
      3 O           4.9442   -4.5677   21.3413 O.2     1  UNL1       -0.2727
      4 C           7.2123   -1.9354   19.4237 C.3     1  UNL1        0.1111
      5 C           7.3304   -0.5792   20.0536 C.3     1  UNL1        0.0939
      6 N           6.8282    0.6323   19.3254 N.3     1  UNL1       -0.2712
      7 C           6.8887    0.6589   16.7282 C.3     1  UNL1        0.0188
      8 C           7.4816    1.0625   18.0455 C.3     1  UNL1        0.0722
      9 C           5.6727    1.4135   19.8770 C.3     1  UNL1        0.0722
     10 C           5.0946    1.0544   21.2137 C.3     1  UNL1        0.0188
     11 C           4.8442   -2.8556   18.8799 C.3     1  UNL1        0.1202
     12 C           3.8098   -1.7741   18.9824 C.ar    1  UNL1       -0.0023
     13 C           3.6960   -0.7402   17.9016 C.ar    1  UNL1       -0.0026
     14 C           2.6616    0.3412   18.0041 C.ar    1  UNL1       -0.0003
     15 C           1.7411    0.3888   19.1874 C.ar    1  UNL1       -0.0000
     16 C           1.8549   -0.6451   20.2683 C.ar    1  UNL1       -0.0003
     17 C           2.8892   -1.7265   20.1658 C.ar    1  UNL1       -0.0026
     18 C           0.7067    1.4703   19.2899 C.ar    1  UNL1        0.0001
     19 C           0.4953    2.4168   18.1457 C.ar    1  UNL1        0.0009
     20 C          -0.5391    3.4983   18.2482 C.ar    1  UNL1        0.0114
     21 C          -1.3620    3.6332   19.4950 C.ar    1  UNL1        0.0577
     22 CL         -2.3964    4.7147   19.5975 Cl      1  UNL1       -0.0822
     23 C          -1.1507    2.6867   20.6393 C.ar    1  UNL1        0.0114
     24 C          -0.1163    1.6052   20.5368 C.ar    1  UNL1        0.0009
     25 C           7.3123   -3.6475   21.8851 C.3     1  UNL1        0.1931
     26 N           7.1933   -4.0355   23.3292 N.ar    1  UNL1       -0.3030
     27 C           6.4475   -3.1516   24.2843 C.ar    1  UNL1        0.1747
     28 N           6.3285   -3.5396   25.7284 N.ar    1  UNL1       -0.1847
     29 C           6.9554   -4.8116   26.2173 C.ar    1  UNL1        0.2779
     30 O           6.8364   -5.1996   27.6613 O.2     1  UNL1       -0.2654
     31 C           7.7013   -5.6956   25.2621 C.ar    1  UNL1        0.0474
     32 C           7.8202   -5.3076   23.8181 C.ar    1  UNL1        0.0399
     33 C           8.5661   -6.1915   22.8629 C.3     1  UNL1        0.0437
     34 C           9.1930   -7.4635   23.3519 C.3     1  UNL1        0.0066
     35 C           9.0740   -7.8515   24.7959 C.3     1  UNL1        0.0053
     36 C           8.3282   -6.9675   25.7511 C.3     1  UNL1        0.0324
     37 S           5.8206   -1.8795   23.7954 S.3     1  UNL1       -0.0724
     38 C           4.3375   -1.8079   23.5824 C.3     1  UNL1        0.0913
     39 C           3.5112   -0.8426   24.3794 C.ar    1  UNL1       -0.0108
     40 C           2.4648   -0.0108   23.6986 C.ar    1  UNL1       -0.0011
     41 C           1.6385    0.9545   24.4956 C.ar    1  UNL1        0.0293
     42 C           1.8583    1.0880   25.9734 C.ar    1  UNL1        0.1401
     43 F           1.0320    2.0533   26.7704 F       1  UNL1       -0.2042
     44 C           2.9046    0.2563   26.6542 C.ar    1  UNL1        0.0293
     45 C           3.7310   -0.7091   25.8572 C.ar    1  UNL1       -0.0011
@<TRIPOS>BOND
     1     7     8    1
     2     8     6    1
     3     6     9    1
     4     9    10    1
     5     6     5    1
     6     5     4    1
     7     4     1    1
     8     1    11    1
     9    11    12    1
    10    12    13   ar
    11    13    14   ar
    12    14    15   ar
    13    15    18    1
    14    18    19   ar
    15    19    20   ar
    16    20    21   ar
    17    21    22    1
    18    21    23   ar
    19    23    24   ar
    20    15    16   ar
    21    16    17   ar
    22     1     2   am
    23     2     3    2
    24     2    25    1
    25    25    26    1
    26    26    27   ar
    27    27    37    1
    28    37    38    1
    29    38    39    1
    30    39    40   ar
    31    40    41   ar
    32    41    42   ar
    33    42    43    1
    34    42    44   ar
    35    44    45   ar
    36    27    28   ar
    37    28    29   ar
    38    29    30    2
    39    29    31   ar
    40    31    32   ar
    41    32    33    1
    42    33    34    1
    43    34    35    1
    44    35    36    1
    45    17    12   ar
    46    32    26   ar
    47    24    18   ar
    48    45    39   ar
    49    36    31    1
@<TRIPOS>MOLECULE
*****
 45 49 0 0 0
SMALL
GASTEIGER

@<TRIPOS>ATOM
      1 N           3.5848    0.2363   29.4450 N.am    1  UNL1       -0.2724
      2 C           3.9860    0.5110   30.8640 C.2     1  UNL1        0.2491
      3 O           5.2541    1.2581   31.1536 O.2     1  UNL1       -0.2727
      4 C           2.3168   -0.5108   29.1554 C.3     1  UNL1        0.1111
      5 C           1.1728    0.1866   28.4809 C.3     1  UNL1        0.0939
      6 N           0.1399    0.8998   29.3022 N.3     1  UNL1       -0.2712
      7 C           1.1908    3.2340   29.7459 C.3     1  UNL1        0.0188
      8 C           0.5559    1.9762   30.2605 C.3     1  UNL1        0.0722
      9 C          -1.3090    0.5366   29.1653 C.3     1  UNL1        0.0722
     10 C          -1.7010   -0.8742   28.8397 C.3     1  UNL1        0.0188
     11 C           4.4517    0.7087   28.3156 C.3     1  UNL1        0.1202
     12 C           4.3565    0.0504   26.9711 C.ar    1  UNL1       -0.0023
     13 C           5.0248   -1.2714   26.7342 C.ar    1  UNL1       -0.0026
     14 C           4.9296   -1.9297   25.3897 C.ar    1  UNL1       -0.0003
     15 C           4.1662   -1.2661   24.2821 C.ar    1  UNL1       -0.0000
     16 C           3.4979    0.0558   24.5190 C.ar    1  UNL1       -0.0003
     17 C           3.5931    0.7141   25.8635 C.ar    1  UNL1       -0.0026
     18 C           4.0710   -1.9243   22.9376 C.ar    1  UNL1        0.0001
     19 C           3.4071   -1.2098   21.7981 C.ar    1  UNL1        0.0009
     20 C           3.3119   -1.8681   20.4536 C.ar    1  UNL1        0.0114
     21 C           3.8807   -3.2408   20.2487 C.ar    1  UNL1        0.0577
     22 CL          3.7855   -3.8991   18.9042 Cl      1  UNL1       -0.0822
     23 C           4.5447   -3.9554   21.3883 C.ar    1  UNL1        0.0114
     24 C           4.6398   -3.2971   22.7327 C.ar    1  UNL1        0.0009
     25 C           3.1192    0.0387   31.9933 C.3     1  UNL1        0.1931
     26 N           3.5530    0.2548   33.4129 N.ar    1  UNL1       -0.3030
     27 C           4.4236   -0.7593   34.0938 C.ar    1  UNL1        0.1747
     28 N           4.8574   -0.5431   35.5133 N.ar    1  UNL1       -0.1847
     29 C           4.4207    0.6872   36.2519 C.ar    1  UNL1        0.2779
     30 O           4.8545    0.9033   37.6715 O.2     1  UNL1       -0.2654
     31 C           3.5501    1.7014   35.5710 C.ar    1  UNL1        0.0474
     32 C           3.1163    1.4852   34.1515 C.ar    1  UNL1        0.0399
     33 C           2.2457    2.4993   33.4706 C.3     1  UNL1        0.0437
     34 C           1.8090    3.7296   34.2093 C.3     1  UNL1        0.0066
     35 C           2.2428    3.9458   35.6288 C.3     1  UNL1        0.0053
     36 C           3.1134    2.9316   36.3097 C.3     1  UNL1        0.0324
     37 S           4.8604   -1.9896   33.3551 S.3     1  UNL1       -0.0724
     38 C           6.1520   -1.9876   32.5924 C.3     1  UNL1        0.0913
     39 C           6.4122   -3.0397   31.5554 C.ar    1  UNL1       -0.0108
     40 C           6.3535   -2.6874   30.0985 C.ar    1  UNL1       -0.0011
     41 C           6.6137   -3.7394   29.0614 C.ar    1  UNL1        0.0293
     42 C           6.9326   -5.1437   29.4812 C.ar    1  UNL1        0.1401
     43 F           7.1928   -6.1957   28.4442 F       1  UNL1       -0.2042
     44 C           6.9912   -5.4960   30.9381 C.ar    1  UNL1        0.0293
     45 C           6.7310   -4.4440   31.9752 C.ar    1  UNL1       -0.0011
@<TRIPOS>BOND
     1     7     8    1
     2     8     6    1
     3     6     9    1
     4     9    10    1
     5     6     5    1
     6     5     4    1
     7     4     1    1
     8     1    11    1
     9    11    12    1
    10    12    13   ar
    11    13    14   ar
    12    14    15   ar
    13    15    18    1
    14    18    19   ar
    15    19    20   ar
    16    20    21   ar
    17    21    22    1
    18    21    23   ar
    19    23    24   ar
    20    15    16   ar
    21    16    17   ar
    22     1     2   am
    23     2     3    2
    24     2    25    1
    25    25    26    1
    26    26    27   ar
    27    27    37    1
    28    37    38    1
    29    38    39    1
    30    39    40   ar
    31    40    41   ar
    32    41    42   ar
    33    42    43    1
    34    42    44   ar
    35    44    45   ar
    36    27    28   ar
    37    28    29   ar
    38    29    30    2
    39    29    31   ar
    40    31    32   ar
    41    32    33    1
    42    33    34    1
    43    34    35    1
    44    35    36    1
    45    17    12   ar
    46    32    26   ar
    47    24    18   ar
    48    45    39   ar
    49    36    31    1
@<TRIPOS>MOLECULE
*****
 45 49 0 0 0
SMALL
GASTEIGER

@<TRIPOS>ATOM
      1 N           3.9074   -0.1133   29.6578 N.am    1  UNL1       -0.2724
      2 C           4.2348   -0.9910   28.4863 C.2     1  UNL1        0.2491
      3 O           3.1331   -1.6636   27.7221 O.2     1  UNL1       -0.2727
      4 C           5.0090    0.5593   30.4220 C.3     1  UNL1        0.1111
      5 C           4.8120    0.9136   31.8662 C.3     1  UNL1        0.0939
      6 N           5.2869   -0.0209   32.9392 N.3     1  UNL1       -0.2712
      7 C           7.7044   -0.9685   33.0264 C.3     1  UNL1        0.0188
      8 C           6.6988    0.0655   33.4382 C.3     1  UNL1        0.0722
      9 C           4.3497   -1.0418   33.5132 C.3     1  UNL1        0.0722
     10 C           4.3229   -2.4334   32.9541 C.3     1  UNL1        0.0188
     11 C           2.4783    0.0919   30.0651 C.3     1  UNL1        0.1202
     12 C           1.5187    0.7583   29.1244 C.ar    1  UNL1       -0.0023
     13 C           1.9327    1.9937   28.3812 C.ar    1  UNL1       -0.0026
     14 C           0.9730    2.6600   27.4405 C.ar    1  UNL1       -0.0003
     15 C          -0.4007    2.0910   27.2430 C.ar    1  UNL1       -0.0000
     16 C          -0.8148    0.8555   27.9861 C.ar    1  UNL1       -0.0003
     17 C           0.1449    0.1892   28.9268 C.ar    1  UNL1       -0.0026
     18 C          -1.3604    2.7574   26.3022 C.ar    1  UNL1        0.0001
     19 C          -2.6650    3.2911   26.8153 C.ar    1  UNL1        0.0009
     20 C          -3.6246    3.9575   25.8746 C.ar    1  UNL1        0.0114
     21 C          -3.2798    4.0902   24.4208 C.ar    1  UNL1        0.0577
     22 CL         -4.2394    4.7565   23.4801 Cl      1  UNL1       -0.0822
     23 C          -1.9751    3.5565   23.9077 C.ar    1  UNL1        0.0114
     24 C          -1.0155    2.8901   24.8484 C.ar    1  UNL1        0.0009
     25 C           5.6637   -1.1961   28.0790 C.3     1  UNL1        0.1931
     26 N           6.1163   -2.5362   27.5798 N.ar    1  UNL1       -0.3030
     27 C           6.1672   -2.8095   26.1058 C.ar    1  UNL1        0.1747
     28 N           6.6198   -4.1496   25.6066 N.ar    1  UNL1       -0.1847
     29 C           7.0216   -5.2165   26.5814 C.ar    1  UNL1        0.2779
     30 O           7.4742   -6.5566   26.0822 O.2     1  UNL1       -0.2654
     31 C           6.9707   -4.9433   28.0555 C.ar    1  UNL1        0.0474
     32 C           6.5181   -3.6032   28.5547 C.ar    1  UNL1        0.0399
     33 C           6.4673   -3.3299   30.0287 C.3     1  UNL1        0.0437
     34 C           6.8691   -4.3968   31.0035 C.3     1  UNL1        0.0066
     35 C           7.3217   -5.7369   30.5043 C.3     1  UNL1        0.0053
     36 C           7.3725   -6.0102   29.0303 C.3     1  UNL1        0.0324
     37 S           5.7654   -1.7426   25.1309 S.3     1  UNL1       -0.0724
     38 C           4.3902   -1.7532   24.5320 C.3     1  UNL1        0.0913
     39 C           4.1998   -2.1506   23.0982 C.ar    1  UNL1       -0.0108
     40 C           3.4833   -1.2312   22.1540 C.ar    1  UNL1       -0.0011
     41 C           3.2928   -1.6286   20.7202 C.ar    1  UNL1        0.0293
     42 C           3.8188   -2.9452   20.2305 C.ar    1  UNL1        0.1401
     43 F           3.6283   -3.3425   18.7968 F       1  UNL1       -0.2042
     44 C           4.5353   -3.8645   21.1747 C.ar    1  UNL1        0.0293
     45 C           4.7258   -3.4672   22.6086 C.ar    1  UNL1       -0.0011
@<TRIPOS>BOND
     1     7     8    1
     2     8     6    1
     3     6     9    1
     4     9    10    1
     5     6     5    1
     6     5     4    1
     7     4     1    1
     8     1    11    1
     9    11    12    1
    10    12    13   ar
    11    13    14   ar
    12    14    15   ar
    13    15    18    1
    14    18    19   ar
    15    19    20   ar
    16    20    21   ar
    17    21    22    1
    18    21    23   ar
    19    23    24   ar
    20    15    16   ar
    21    16    17   ar
    22     1     2   am
    23     2     3    2
    24     2    25    1
    25    25    26    1
    26    26    27   ar
    27    27    37    1
    28    37    38    1
    29    38    39    1
    30    39    40   ar
    31    40    41   ar
    32    41    42   ar
    33    42    43    1
    34    42    44   ar
    35    44    45   ar
    36    27    28   ar
    37    28    29   ar
    38    29    30    2
    39    29    31   ar
    40    31    32   ar
    41    32    33    1
    42    33    34    1
    43    34    35    1
    44    35    36    1
    45    17    12   ar
    46    32    26   ar
    47    24    18   ar
    48    45    39   ar
    49    36    31    1
@<TRIPOS>MOLECULE
*****
 45 49 0 0 0
SMALL
GASTEIGER

@<TRIPOS>ATOM
      1 N           3.6796   -0.2428   30.1566 N.am    1  UNL1       -0.2724
      2 C           4.1327   -0.9882   28.9363 C.2     1  UNL1        0.2491
      3 O           3.1212   -1.5359   27.9734 O.2     1  UNL1       -0.2727
      4 C           4.6909    0.3048   31.1195 C.3     1  UNL1        0.1111
      5 C           4.2600    0.7567   32.4834 C.3     1  UNL1        0.0939
      6 N           4.7167    0.0081   33.7005 N.3     1  UNL1       -0.2712
      7 C           4.1909   -2.5294   33.5150 C.3     1  UNL1        0.0188
      8 C           5.1879   -1.4104   33.5756 C.3     1  UNL1        0.0722
      9 C           4.7022    0.6782   35.0424 C.3     1  UNL1        0.0722
     10 C           4.9198   -0.1305   36.2868 C.3     1  UNL1        0.0188
     11 C           2.2150   -0.0450   30.4139 C.3     1  UNL1        0.1202
     12 C           1.3598    0.6414   29.3905 C.ar    1  UNL1       -0.0023
     13 C           0.0993   -0.0118   28.9065 C.ar    1  UNL1       -0.0026
     14 C          -0.7560    0.6746   27.8831 C.ar    1  UNL1       -0.0003
     15 C          -0.3508    2.0143   27.3437 C.ar    1  UNL1       -0.0000
     16 C           0.9098    2.6677   27.8278 C.ar    1  UNL1       -0.0003
     17 C           1.7651    1.9812   28.8512 C.ar    1  UNL1       -0.0026
     18 C          -1.2060    2.7008   26.3204 C.ar    1  UNL1        0.0001
     19 C          -0.7800    2.7267   24.8824 C.ar    1  UNL1        0.0009
     20 C          -1.6352    3.4131   23.8590 C.ar    1  UNL1        0.0114
     21 C          -2.9166    4.0736   24.2736 C.ar    1  UNL1        0.0577
     22 CL         -3.7718    4.7601   23.2502 Cl      1  UNL1       -0.0822
     23 C          -3.3427    4.0477   25.7116 C.ar    1  UNL1        0.0114
     24 C          -2.4874    3.3613   26.7350 C.ar    1  UNL1        0.0009
     25 C           5.5971   -1.1860   28.6790 C.3     1  UNL1        0.1931
     26 N           6.1013   -2.5143   28.1979 N.ar    1  UNL1       -0.3030
     27 C           6.1895   -2.7951   26.7271 C.ar    1  UNL1        0.1747
     28 N           6.6938   -4.1234   26.2461 N.ar    1  UNL1       -0.1847
     29 C           7.1099   -5.1708   27.2358 C.ar    1  UNL1        0.2779
     30 O           7.6142   -6.4991   26.7547 O.2     1  UNL1       -0.2654
     31 C           7.0218   -4.8901   28.7067 C.ar    1  UNL1        0.0474
     32 C           6.5175   -3.5618   29.1878 C.ar    1  UNL1        0.0399
     33 C           6.4293   -3.2810   30.6586 C.3     1  UNL1        0.0437
     34 C           6.8455   -4.3284   31.6483 C.3     1  UNL1        0.0066
     35 C           7.3497   -5.6567   31.1672 C.3     1  UNL1        0.0053
     36 C           7.4379   -5.9375   29.6964 C.3     1  UNL1        0.0324
     37 S           5.7734   -1.7476   25.7373 S.3     1  UNL1       -0.0724
     38 C           5.0447   -2.1440   24.4876 C.3     1  UNL1        0.0913
     39 C           3.9731   -1.2547   23.9302 C.ar    1  UNL1       -0.0108
     40 C           3.2610   -0.2857   24.8269 C.ar    1  UNL1       -0.0011
     41 C           2.1895    0.6037   24.2694 C.ar    1  UNL1        0.0293
     42 C           1.8300    0.5242   22.8153 C.ar    1  UNL1        0.1401
     43 F           0.7584    1.4135   22.2579 F       1  UNL1       -0.2042
     44 C           2.5420   -0.4448   21.9186 C.ar    1  UNL1        0.0293
     45 C           3.6136   -1.3342   22.4760 C.ar    1  UNL1       -0.0011
@<TRIPOS>BOND
     1     7     8    1
     2     8     6    1
     3     6     9    1
     4     9    10    1
     5     6     5    1
     6     5     4    1
     7     4     1    1
     8     1    11    1
     9    11    12    1
    10    12    13   ar
    11    13    14   ar
    12    14    15   ar
    13    15    18    1
    14    18    19   ar
    15    19    20   ar
    16    20    21   ar
    17    21    22    1
    18    21    23   ar
    19    23    24   ar
    20    15    16   ar
    21    16    17   ar
    22     1     2   am
    23     2     3    2
    24     2    25    1
    25    25    26    1
    26    26    27   ar
    27    27    37    1
    28    37    38    1
    29    38    39    1
    30    39    40   ar
    31    40    41   ar
    32    41    42   ar
    33    42    43    1
    34    42    44   ar
    35    44    45   ar
    36    27    28   ar
    37    28    29   ar
    38    29    30    2
    39    29    31   ar
    40    31    32   ar
    41    32    33    1
    42    33    34    1
    43    34    35    1
    44    35    36    1
    45    17    12   ar
    46    32    26   ar
    47    24    18   ar
    48    45    39   ar
    49    36    31    1
@<TRIPOS>MOLECULE
*****
 45 49 0 0 0
SMALL
GASTEIGER

@<TRIPOS>ATOM
      1 N           7.1992   -3.4157   26.0290 N.am    1  UNL1       -0.2724
      2 C           6.6076   -2.5761   24.9357 C.2     1  UNL1        0.2491
      3 O           7.0015   -1.1351   24.8002 O.2     1  UNL1       -0.2727
      4 C           6.8053   -4.8566   26.1646 C.3     1  UNL1        0.1111
      5 C           7.8599   -5.9228   26.1945 C.3     1  UNL1        0.0939
      6 N           8.0092   -6.7963   27.4048 N.3     1  UNL1       -0.2712
      7 C           9.0139   -9.1808   27.6389 C.3     1  UNL1        0.0188
      8 C           7.8668   -8.2842   27.2781 C.3     1  UNL1        0.0722
      9 C           8.3009   -6.1819   28.7418 C.3     1  UNL1        0.0722
     10 C           7.1743   -5.8335   29.6688 C.3     1  UNL1        0.0188
     11 C           8.1847   -2.8142   26.9866 C.3     1  UNL1        0.1202
     12 C           7.7486   -2.4317   28.3700 C.ar    1  UNL1       -0.0023
     13 C           6.2918   -2.2386   28.6705 C.ar    1  UNL1       -0.0026
     14 C           5.8557   -1.8561   30.0538 C.ar    1  UNL1       -0.0003
     15 C           6.8763   -1.6668   31.1366 C.ar    1  UNL1       -0.0000
     16 C           8.3332   -1.8600   30.8360 C.ar    1  UNL1       -0.0003
     17 C           8.7693   -2.2424   29.4527 C.ar    1  UNL1       -0.0026
     18 C           6.4402   -1.2844   32.5199 C.ar    1  UNL1        0.0001
     19 C           7.3856   -0.5584   33.4304 C.ar    1  UNL1        0.0009
     20 C           6.9495   -0.1759   34.8138 C.ar    1  UNL1        0.0114
     21 C           5.5680   -0.5195   35.2865 C.ar    1  UNL1        0.0577
     22 CL          5.1319   -0.1370   36.6698 Cl      1  UNL1       -0.0822
     23 C           4.6226   -1.2455   34.3759 C.ar    1  UNL1        0.0114
     24 C           5.0587   -1.6280   32.9926 C.ar    1  UNL1        0.0009
     25 C           5.6221   -3.1775   23.9781 C.3     1  UNL1        0.1931
     26 N           4.6109   -2.3046   23.2958 N.ar    1  UNL1       -0.3030
     27 C           3.7804   -1.3491   24.1003 C.ar    1  UNL1        0.1747
     28 N           2.7692   -0.4762   23.4180 N.ar    1  UNL1       -0.1847
     29 C           2.5884   -0.5589   21.9313 C.ar    1  UNL1        0.2779
     30 O           1.5771    0.3139   21.2490 O.2     1  UNL1       -0.2654
     31 C           3.4189   -1.5145   21.1267 C.ar    1  UNL1        0.0474
     32 C           4.4301   -2.3874   21.8090 C.ar    1  UNL1        0.0399
     33 C           5.2606   -3.3429   21.0045 C.3     1  UNL1        0.0437
     34 C           5.0798   -3.4256   19.5178 C.3     1  UNL1        0.0066
     35 C           4.0686   -2.5527   18.8355 C.3     1  UNL1        0.0053
     36 C           3.2381   -1.5972   19.6400 C.3     1  UNL1        0.0324
     37 S           3.9612   -1.2664   25.5871 S.3     1  UNL1       -0.0724
     38 C           4.0058    0.0715   26.2639 C.3     1  UNL1        0.0913
     39 C           3.6726    0.1858   27.7219 C.ar    1  UNL1       -0.0108
     40 C           2.6606   -0.7365   28.3346 C.ar    1  UNL1       -0.0011
     41 C           2.3275   -0.6221   29.7927 C.ar    1  UNL1        0.0293
     42 C           3.0063    0.4145   30.6381 C.ar    1  UNL1        0.1401
     43 F           2.6732    0.5288   32.0961 F       1  UNL1       -0.2042
     44 C           4.0183    1.3367   30.0254 C.ar    1  UNL1        0.0293
     45 C           4.3514    1.2224   28.5673 C.ar    1  UNL1       -0.0011
@<TRIPOS>BOND
     1     7     8    1
     2     8     6    1
     3     6     9    1
     4     9    10    1
     5     6     5    1
     6     5     4    1
     7     4     1    1
     8     1    11    1
     9    11    12    1
    10    12    13   ar
    11    13    14   ar
    12    14    15   ar
    13    15    18    1
    14    18    19   ar
    15    19    20   ar
    16    20    21   ar
    17    21    22    1
    18    21    23   ar
    19    23    24   ar
    20    15    16   ar
    21    16    17   ar
    22     1     2   am
    23     2     3    2
    24     2    25    1
    25    25    26    1
    26    26    27   ar
    27    27    37    1
    28    37    38    1
    29    38    39    1
    30    39    40   ar
    31    40    41   ar
    32    41    42   ar
    33    42    43    1
    34    42    44   ar
    35    44    45   ar
    36    27    28   ar
    37    28    29   ar
    38    29    30    2
    39    29    31   ar
    40    31    32   ar
    41    32    33    1
    42    33    34    1
    43    34    35    1
    44    35    36    1
    45    17    12   ar
    46    32    26   ar
    47    24    18   ar
    48    45    39   ar
    49    36    31    1
@<TRIPOS>MOLECULE
*****
 45 49 0 0 0
SMALL
GASTEIGER

@<TRIPOS>ATOM
      1 N           5.5969   -0.3144   30.3032 N.am    1  UNL1       -0.2724
      2 C           4.4146    0.2260   31.0518 C.2     1  UNL1        0.2491
      3 O           3.1271   -0.5432   31.0764 O.2     1  UNL1       -0.2727
      4 C           6.8844    0.4548   30.2786 C.3     1  UNL1        0.1111
      5 C           7.6947    0.5206   29.0181 C.3     1  UNL1        0.0939
      6 N           7.2646    1.4185   27.8960 N.3     1  UNL1       -0.2712
      7 C           5.3781    3.1021   28.4932 C.3     1  UNL1        0.0188
      8 C           6.8193    2.8211   28.1865 C.3     1  UNL1        0.0722
      9 C           7.2800    0.9138   26.4836 C.3     1  UNL1        0.0722
     10 C           6.3636    1.5180   25.4613 C.3     1  UNL1        0.0188
     11 C           5.4915   -1.6239   29.5792 C.3     1  UNL1        0.1202
     12 C           5.1471   -1.6482   28.1195 C.ar    1  UNL1       -0.0023
     13 C           6.0224   -2.3918   27.1547 C.ar    1  UNL1       -0.0026
     14 C           5.6780   -2.4161   25.6950 C.ar    1  UNL1       -0.0003
     15 C           4.4583   -1.6969   25.2001 C.ar    1  UNL1       -0.0000
     16 C           3.5829   -0.9533   26.1649 C.ar    1  UNL1       -0.0003
     17 C           3.9273   -0.9290   27.6246 C.ar    1  UNL1       -0.0026
     18 C           4.1139   -1.7213   23.7403 C.ar    1  UNL1        0.0001
     19 C           3.1691   -0.7023   23.1756 C.ar    1  UNL1        0.0009
     20 C           2.8247   -0.7266   21.7159 C.ar    1  UNL1        0.0114
     21 C           3.4251   -1.7699   20.8209 C.ar    1  UNL1        0.0577
     22 CL          3.0807   -1.7943   19.3612 Cl      1  UNL1       -0.0822
     23 C           4.3700   -2.7890   21.3857 C.ar    1  UNL1        0.0114
     24 C           4.7144   -2.7646   22.8454 C.ar    1  UNL1        0.0009
     25 C           4.5199    1.5354   31.7758 C.3     1  UNL1        0.1931
     26 N           3.9412    1.6802   33.1521 N.ar    1  UNL1       -0.3030
     27 C           2.6261    2.3758   33.3433 C.ar    1  UNL1        0.1747
     28 N           2.0474    2.5205   34.7196 N.ar    1  UNL1       -0.1847
     29 C           2.7838    1.9697   35.9046 C.ar    1  UNL1        0.2779
     30 O           2.2050    2.1145   37.2809 O.2     1  UNL1       -0.2654
     31 C           4.0989    1.2741   35.7134 C.ar    1  UNL1        0.0474
     32 C           4.6777    1.1293   34.3371 C.ar    1  UNL1        0.0399
     33 C           5.9928    0.4337   34.1459 C.3     1  UNL1        0.0437
     34 C           6.7291   -0.1171   35.3309 C.3     1  UNL1        0.0066
     35 C           6.1504    0.0277   36.7072 C.3     1  UNL1        0.0053
     36 C           4.8353    0.7233   36.8984 C.3     1  UNL1        0.0324
     37 S           1.8897    2.9266   32.1583 S.3     1  UNL1       -0.0724
     38 C           0.7547    2.1535   31.5549 C.3     1  UNL1        0.0913
     39 C           0.7516    1.8496   30.0860 C.ar    1  UNL1       -0.0108
     40 C           1.8107    2.4316   29.1974 C.ar    1  UNL1       -0.0011
     41 C           1.8075    2.1276   27.7285 C.ar    1  UNL1        0.0293
     42 C           0.7453    1.2416   27.1483 C.ar    1  UNL1        0.1401
     43 F           0.7422    0.9376   25.6794 F       1  UNL1       -0.2042
     44 C          -0.3137    0.6596   28.0368 C.ar    1  UNL1        0.0293
     45 C          -0.3106    0.9636   29.5058 C.ar    1  UNL1       -0.0011
@<TRIPOS>BOND
     1     7     8    1
     2     8     6    1
     3     6     9    1
     4     9    10    1
     5     6     5    1
     6     5     4    1
     7     4     1    1
     8     1    11    1
     9    11    12    1
    10    12    13   ar
    11    13    14   ar
    12    14    15   ar
    13    15    18    1
    14    18    19   ar
    15    19    20   ar
    16    20    21   ar
    17    21    22    1
    18    21    23   ar
    19    23    24   ar
    20    15    16   ar
    21    16    17   ar
    22     1     2   am
    23     2     3    2
    24     2    25    1
    25    25    26    1
    26    26    27   ar
    27    27    37    1
    28    37    38    1
    29    38    39    1
    30    39    40   ar
    31    40    41   ar
    32    41    42   ar
    33    42    43    1
    34    42    44   ar
    35    44    45   ar
    36    27    28   ar
    37    28    29   ar
    38    29    30    2
    39    29    31   ar
    40    31    32   ar
    41    32    33    1
    42    33    34    1
    43    34    35    1
    44    35    36    1
    45    17    12   ar
    46    32    26   ar
    47    24    18   ar
    48    45    39   ar
    49    36    31    1
@<TRIPOS>MOLECULE
*****
 45 49 0 0 0
SMALL
GASTEIGER

@<TRIPOS>ATOM
      1 N           0.9409    4.3684   26.1375 N.am    1  UNL1       -0.2724
      2 C           0.3222    4.4748   24.7751 C.2     1  UNL1        0.2491
      3 O           0.1749    5.8166   24.1210 O.2     1  UNL1       -0.2727
      4 C           1.0882    3.0267   26.7917 C.3     1  UNL1        0.1111
      5 C          -0.0066    2.4958   27.6689 C.3     1  UNL1        0.0939
      6 N           0.2983    1.4464   28.6966 N.3     1  UNL1       -0.2712
      7 C           0.5107    2.5406   31.0434 C.3     1  UNL1        0.0188
      8 C           1.1263    1.7920   29.8986 C.3     1  UNL1        0.0722
      9 C          -0.2250    0.0515   28.5221 C.3     1  UNL1        0.0722
     10 C          -1.5770   -0.3149   29.0584 C.3     1  UNL1        0.0188
     11 C           1.4122    5.6040   26.8456 C.3     1  UNL1        0.1202
     12 C           1.0328    5.8384   28.2778 C.ar    1  UNL1       -0.0023
     13 C          -0.3879    6.1618   28.6340 C.ar    1  UNL1       -0.0026
     14 C          -0.7673    6.3962   30.0662 C.ar    1  UNL1       -0.0003
     15 C           0.2740    6.3072   31.1421 C.ar    1  UNL1       -0.0000
     16 C           1.6948    5.9838   30.7860 C.ar    1  UNL1       -0.0003
     17 C           2.0742    5.7494   29.3538 C.ar    1  UNL1       -0.0026
     18 C          -0.1055    6.5416   32.5743 C.ar    1  UNL1        0.0001
     19 C          -1.5391    6.4237   32.9993 C.ar    1  UNL1        0.0009
     20 C          -1.9185    6.6581   34.4315 C.ar    1  UNL1        0.0114
     21 C          -0.8643    7.0105   35.4386 C.ar    1  UNL1        0.0577
     22 CL         -1.2437    7.2449   36.8708 Cl      1  UNL1       -0.0822
     23 C           0.5695    7.1284   35.0136 C.ar    1  UNL1        0.0114
     24 C           0.9489    6.8939   33.5815 C.ar    1  UNL1        0.0009
     25 C          -0.1491    3.2393   24.0670 C.3     1  UNL1        0.1931
     26 N          -1.4045    3.2778   23.2469 N.ar    1  UNL1       -0.3030
     27 C          -1.3361    3.0824   21.7613 C.ar    1  UNL1        0.1747
     28 N          -2.5914    3.1208   20.9411 N.ar    1  UNL1       -0.1847
     29 C          -3.9152    3.3546   21.6066 C.ar    1  UNL1        0.2779
     30 O          -5.1705    3.3930   20.7865 O.2     1  UNL1       -0.2654
     31 C          -3.9836    3.5500   23.0923 C.ar    1  UNL1        0.0474
     32 C          -2.7283    3.5116   23.9124 C.ar    1  UNL1        0.0399
     33 C          -2.7967    3.7070   25.3981 C.3     1  UNL1        0.0437
     34 C          -4.1204    3.9408   26.0636 C.3     1  UNL1        0.0066
     35 C          -5.3758    3.9792   25.2434 C.3     1  UNL1        0.0053
     36 C          -5.3074    3.7838   23.7578 C.3     1  UNL1        0.0324
     37 S          -0.0122    2.8485   21.0957 S.3     1  UNL1       -0.0724
     38 C           0.0468    2.1579   19.7655 C.3     1  UNL1        0.0913
     39 C           1.0502    1.0680   19.5302 C.ar    1  UNL1       -0.0108
     40 C           1.9694    1.1374   18.3469 C.ar    1  UNL1       -0.0011
     41 C           2.9727    0.0475   18.1116 C.ar    1  UNL1        0.0293
     42 C           3.0570   -1.1118   19.0597 C.ar    1  UNL1        0.1401
     43 F           4.0603   -2.2017   18.8245 F       1  UNL1       -0.2042
     44 C           2.1378   -1.1812   20.2431 C.ar    1  UNL1        0.0293
     45 C           1.1344   -0.0913   20.4783 C.ar    1  UNL1       -0.0011
@<TRIPOS>BOND
     1     7     8    1
     2     8     6    1
     3     6     9    1
     4     9    10    1
     5     6     5    1
     6     5     4    1
     7     4     1    1
     8     1    11    1
     9    11    12    1
    10    12    13   ar
    11    13    14   ar
    12    14    15   ar
    13    15    18    1
    14    18    19   ar
    15    19    20   ar
    16    20    21   ar
    17    21    22    1
    18    21    23   ar
    19    23    24   ar
    20    15    16   ar
    21    16    17   ar
    22     1     2   am
    23     2     3    2
    24     2    25    1
    25    25    26    1
    26    26    27   ar
    27    27    37    1
    28    37    38    1
    29    38    39    1
    30    39    40   ar
    31    40    41   ar
    32    41    42   ar
    33    42    43    1
    34    42    44   ar
    35    44    45   ar
    36    27    28   ar
    37    28    29   ar
    38    29    30    2
    39    29    31   ar
    40    31    32   ar
    41    32    33    1
    42    33    34    1
    43    34    35    1
    44    35    36    1
    45    17    12   ar
    46    32    26   ar
    47    24    18   ar
    48    45    39   ar
    49    36    31    1
@<TRIPOS>MOLECULE
*****
 45 49 0 0 0
SMALL
GASTEIGER

@<TRIPOS>ATOM
      1 N           4.1903    0.1827   31.2913 N.am    1  UNL1       -0.2724
      2 C           3.8037    1.4910   31.9149 C.2     1  UNL1        0.2491
      3 O           4.4462    2.7634   31.4477 O.2     1  UNL1       -0.2727
      4 C           3.5478   -1.0897   31.7583 C.3     1  UNL1        0.1111
      5 C           4.2832   -2.0011   32.6957 C.3     1  UNL1        0.0939
      6 N           5.6618   -1.6410   33.1645 N.3     1  UNL1       -0.2712
      7 C           6.7433   -3.5054   31.7140 C.3     1  UNL1        0.0188
      8 C           6.8628   -2.2195   32.4768 C.3     1  UNL1        0.0722
      9 C           5.8394   -0.7024   34.3210 C.3     1  UNL1        0.0722
     10 C           4.7392   -0.5348   35.3266 C.3     1  UNL1        0.0188
     11 C           5.2195    0.1468   30.2006 C.3     1  UNL1        0.1202
     12 C           4.7927   -0.0145   28.7717 C.ar    1  UNL1       -0.0023
     13 C           4.5507    1.1963   27.9200 C.ar    1  UNL1       -0.0026
     14 C           4.1239    1.0351   26.4911 C.ar    1  UNL1       -0.0003
     15 C           3.9390   -0.3370   25.9138 C.ar    1  UNL1       -0.0000
     16 C           4.1809   -1.5479   26.7655 C.ar    1  UNL1       -0.0003
     17 C           4.6078   -1.3866   28.1944 C.ar    1  UNL1       -0.0026
     18 C           3.5121   -0.4982   24.4849 C.ar    1  UNL1        0.0001
     19 C           4.0885   -1.6032   23.6501 C.ar    1  UNL1        0.0009
     20 C           3.6616   -1.7644   22.2212 C.ar    1  UNL1        0.0114
     21 C           2.6585   -0.8208   21.6271 C.ar    1  UNL1        0.0577
     22 CL          2.2316   -0.9820   20.1982 Cl      1  UNL1       -0.0822
     23 C           2.0821    0.2843   22.4619 C.ar    1  UNL1        0.0114
     24 C           2.5089    0.4455   23.8908 C.ar    1  UNL1        0.0009
     25 C           2.7746    1.5269   33.0055 C.3     1  UNL1        0.1931
     26 N           1.8347    2.6911   33.1118 N.ar    1  UNL1       -0.3030
     27 C           0.8079    2.9260   32.0439 C.ar    1  UNL1        0.1747
     28 N          -0.1319    4.0902   32.1502 N.ar    1  UNL1       -0.1847
     29 C          -0.0450    5.0195   33.3244 C.ar    1  UNL1        0.2779
     30 O          -0.9849    6.1837   33.4307 O.2     1  UNL1       -0.2654
     31 C           0.9818    4.7846   34.3925 C.ar    1  UNL1        0.0474
     32 C           1.9216    3.6204   34.2861 C.ar    1  UNL1        0.0399
     33 C           2.9484    3.3854   35.3541 C.3     1  UNL1        0.0437
     34 C           3.0353    4.3147   36.5283 C.3     1  UNL1        0.0066
     35 C           2.0954    5.4789   36.6346 C.3     1  UNL1        0.0053
     36 C           1.0686    5.7138   35.5667 C.3     1  UNL1        0.0324
     37 S           0.7210    1.9967   30.8696 S.3     1  UNL1       -0.0724
     38 C           1.3925    2.3562   29.5774 C.3     1  UNL1        0.0913
     39 C           0.5839    2.4744   28.3195 C.ar    1  UNL1       -0.0108
     40 C           0.5358    1.3320   27.3487 C.ar    1  UNL1       -0.0011
     41 C          -0.2728    1.4502   26.0908 C.ar    1  UNL1        0.0293
     42 C          -1.0333    2.7108   25.8038 C.ar    1  UNL1        0.1401
     43 F          -1.8419    2.8290   24.5460 F       1  UNL1       -0.2042
     44 C          -0.9852    3.8533   26.7746 C.ar    1  UNL1        0.0293
     45 C          -0.1766    3.7351   28.0325 C.ar    1  UNL1       -0.0011
@<TRIPOS>BOND
     1     7     8    1
     2     8     6    1
     3     6     9    1
     4     9    10    1
     5     6     5    1
     6     5     4    1
     7     4     1    1
     8     1    11    1
     9    11    12    1
    10    12    13   ar
    11    13    14   ar
    12    14    15   ar
    13    15    18    1
    14    18    19   ar
    15    19    20   ar
    16    20    21   ar
    17    21    22    1
    18    21    23   ar
    19    23    24   ar
    20    15    16   ar
    21    16    17   ar
    22     1     2   am
    23     2     3    2
    24     2    25    1
    25    25    26    1
    26    26    27   ar
    27    27    37    1
    28    37    38    1
    29    38    39    1
    30    39    40   ar
    31    40    41   ar
    32    41    42   ar
    33    42    43    1
    34    42    44   ar
    35    44    45   ar
    36    27    28   ar
    37    28    29   ar
    38    29    30    2
    39    29    31   ar
    40    31    32   ar
    41    32    33    1
    42    33    34    1
    43    34    35    1
    44    35    36    1
    45    17    12   ar
    46    32    26   ar
    47    24    18   ar
    48    45    39   ar
    49    36    31    1
