@<TRIPOS>MOLECULE
*****
 27 30 0 0 0
SMALL
GASTEIGER

@<TRIPOS>ATOM
      1 C           2.7475   -0.0755   31.1996 C.2     1  UNL1        0.1341
      2 C           2.8619    1.1645   32.0358 C.2     1  UNL1        0.0249
      3 C           3.5747    0.8035   33.3053 C.2     1  UNL1        0.0152
      4 C           3.9689    1.6180   34.5015 C.2     1  UNL1       -0.0033
      5 C           4.6893    0.9694   35.6462 C.2     1  UNL1       -0.0250
      6 C           5.0155   -0.4938   35.5946 C.2     1  UNL1       -0.0240
      7 C           4.6213   -1.3083   34.3983 C.3     1  UNL1        0.0714
      8 C           3.9009   -0.6597   33.2537 C.2     1  UNL1        0.0635
      9 N           3.3897   -1.2029   31.9523 N.2     1  UNL1       -0.2448
     10 C           5.0835    1.7840   36.8425 C.3     1  UNL1        0.0385
     11 C           5.1894    2.7188   38.0108 C.3     1  UNL1        0.0228
     12 C           6.5512    2.5508   38.6168 C.3     1  UNL1        0.0689
     13 N           7.2869    1.5122   37.8231 N.3     1  UNL1       -0.2972
     14 C           6.3798    1.0382   36.7265 C.3     1  UNL1        0.0729
     15 H           7.5387    0.7294   38.4267 H       1  UNL1        0.1233
     16 C           3.7048    2.3594   36.7084 C.3     1  UNL1        0.0317
     17 C           2.6542    2.0351   37.7288 C.ar    1  UNL1       -0.0218
     18 C           1.6382    3.0692   38.1139 C.ar    1  UNL1       -0.0043
     19 C           0.5876    2.7449   39.1343 C.ar    1  UNL1       -0.0003
     20 C           0.5531    1.3865   39.7695 C.ar    1  UNL1       -0.0000
     21 C           1.5691    0.3524   39.3844 C.ar    1  UNL1       -0.0003
     22 C           2.6197    0.6766   38.3640 C.ar    1  UNL1       -0.0043
     23 C           0.2169    0.5177   28.2006 C.3     1  UNL1        0.1110
     24 N           0.8605    0.6135   29.5521 N.am    1  UNL1       -0.2979
     25 C           2.1040   -0.1713   29.8480 C.2     1  UNL1        0.2636
     26 O           2.7041   -1.0519   28.7924 O.2     1  UNL1       -0.2685
     27 H           0.4666    1.1915   30.2450 H       1  UNL1        0.1498
@<TRIPOS>BOND
     1    23    24    1
     2    24    25   am
     3    25    26    2
     4    25     1    1
     5     1     2    2
     6     2     3    1
     7     3     4    2
     8     4     5    1
     9     5    10    1
    10    10    16    1
    11    16    17    1
    12    17    18   ar
    13    18    19   ar
    14    19    20   ar
    15    20    21   ar
    16    21    22   ar
    17    10    11    1
    18    11    12    1
    19    12    13    1
    20    13    14    1
    21     5     6    2
    22     6     7    1
    23     7     8    1
    24     8     9    2
    25     9     1    1
    26     8     3    1
    27    14    10    1
    28    22    17   ar
    29    24    27    1
    30    13    15    1
@<TRIPOS>MOLECULE
*****
 27 30 0 0 0
SMALL
GASTEIGER

@<TRIPOS>ATOM
      1 C           5.6686   -3.5913   23.4854 C.2     1  UNL1        0.1341
      2 C           4.9108   -2.2972   23.4532 C.2     1  UNL1        0.0249
      3 C           4.2298   -2.1918   22.1208 C.2     1  UNL1        0.0152
      4 C           3.3464   -1.1355   21.5259 C.2     1  UNL1       -0.0033
      5 C           2.8000   -1.3082   20.1398 C.2     1  UNL1       -0.0250
      6 C           3.1369   -2.5372   19.3485 C.2     1  UNL1       -0.0240
      7 C           4.0203   -3.5935   19.9434 C.3     1  UNL1        0.0714
      8 C           4.5667   -3.4208   21.3296 C.2     1  UNL1        0.0635
      9 N           5.4559   -4.2857   22.1729 N.2     1  UNL1       -0.2448
     10 C           1.9166   -0.2520   19.5448 C.3     1  UNL1        0.0385
     11 C           1.2038    0.7548   18.6913 C.3     1  UNL1        0.0228
     12 C           0.1322    1.3930   19.5246 C.3     1  UNL1        0.0689
     13 N           0.1827    0.7808   20.8930 N.3     1  UNL1       -0.2972
     14 C           1.2856   -0.2359   20.9055 C.3     1  UNL1        0.0729
     15 H          -0.7072    0.3288   21.1031 H       1  UNL1        0.1233
     16 C           2.7323   -0.4889   18.3085 C.3     1  UNL1        0.0317
     17 C           3.9493    0.3464   18.0414 C.ar    1  UNL1       -0.0218
     18 C           4.9851   -0.1279   17.0655 C.ar    1  UNL1       -0.0043
     19 C           6.2021    0.7074   16.7985 C.ar    1  UNL1       -0.0003
     20 C           6.3833    2.0168   17.5073 C.ar    1  UNL1       -0.0000
     21 C           5.3476    2.4911   18.4832 C.ar    1  UNL1       -0.0003
     22 C           4.1305    1.6558   18.7503 C.ar    1  UNL1       -0.0043
     23 C           6.9527   -4.2514   27.1820 C.3     1  UNL1        0.1110
     24 N           6.1271   -3.7412   26.0382 N.am    1  UNL1       -0.2979
     25 C           6.4941   -4.1014   24.6292 C.2     1  UNL1        0.2636
     26 O           7.6866   -4.9718   24.3639 O.2     1  UNL1       -0.2685
     27 H           5.3444   -3.1700   26.2124 H       1  UNL1        0.1498
@<TRIPOS>BOND
     1    23    24    1
     2    24    25   am
     3    25    26    2
     4    25     1    1
     5     1     2    2
     6     2     3    1
     7     3     4    2
     8     4     5    1
     9     5    10    1
    10    10    16    1
    11    16    17    1
    12    17    18   ar
    13    18    19   ar
    14    19    20   ar
    15    20    21   ar
    16    21    22   ar
    17    10    11    1
    18    11    12    1
    19    12    13    1
    20    13    14    1
    21     5     6    2
    22     6     7    1
    23     7     8    1
    24     8     9    2
    25     9     1    1
    26     8     3    1
    27    14    10    1
    28    22    17   ar
    29    24    27    1
    30    13    15    1
@<TRIPOS>MOLECULE
*****
 27 30 0 0 0
SMALL
GASTEIGER

@<TRIPOS>ATOM
      1 C         -12.7599   -0.0461   17.5742 C.2     1  UNL1        0.1341
      2 C         -11.9749   -1.0717   16.8114 C.2     1  UNL1        0.0249
      3 C         -12.0472   -2.3662   17.5658 C.2     1  UNL1        0.0152
      4 C         -11.4648   -3.7211   17.2925 C.2     1  UNL1       -0.0033
      5 C         -11.7121   -4.8505   18.2481 C.2     1  UNL1       -0.0250
      6 C         -12.5418   -4.6249   19.4772 C.2     1  UNL1       -0.0240
      7 C         -13.1243   -3.2699   19.7506 C.3     1  UNL1        0.0714
      8 C         -12.8770   -2.1406   18.7949 C.2     1  UNL1        0.0635
      9 N         -13.3175   -0.7067   18.8000 N.2     1  UNL1       -0.2448
     10 C         -11.1296   -6.2055   17.9748 C.3     1  UNL1        0.0385
     11 C         -10.7585   -7.5683   17.4699 C.3     1  UNL1        0.0228
     12 C          -9.6399   -8.0898   18.3225 C.3     1  UNL1        0.0689
     13 N          -9.3197   -7.0493   19.3543 N.3     1  UNL1       -0.2972
     14 C         -10.2404   -5.8847   19.1394 C.3     1  UNL1        0.0729
     15 H          -8.3506   -6.7477   19.2527 H       1  UNL1        0.1233
     16 C         -12.1405   -6.2430   16.8673 C.3     1  UNL1        0.0317
     17 C         -13.4009   -7.0400   17.0291 C.ar    1  UNL1       -0.0218
     18 C         -14.4731   -6.9687   15.9824 C.ar    1  UNL1       -0.0043
     19 C         -15.7334   -7.7657   16.1442 C.ar    1  UNL1       -0.0003
     20 C         -15.9218   -8.6340   17.3527 C.ar    1  UNL1       -0.0000
     21 C         -14.8498   -8.7053   18.3995 C.ar    1  UNL1       -0.0003
     22 C         -13.5893   -7.9083   18.2377 C.ar    1  UNL1       -0.0043
     23 C         -14.4944    3.3005   16.3323 C.3     1  UNL1        0.1110
     24 N         -14.3009    1.8661   16.7263 N.am    1  UNL1       -0.2979
     25 C         -12.9535    1.3883   17.1802 C.2     1  UNL1        0.2636
     26 O         -11.7996    2.3448   17.2403 O.2     1  UNL1       -0.2685
     27 H         -15.0582    1.2383   16.6869 H       1  UNL1        0.1498
@<TRIPOS>BOND
     1    23    24    1
     2    24    25   am
     3    25    26    2
     4    25     1    1
     5     1     2    2
     6     2     3    1
     7     3     4    2
     8     4     5    1
     9     5    10    1
    10    10    16    1
    11    16    17    1
    12    17    18   ar
    13    18    19   ar
    14    19    20   ar
    15    20    21   ar
    16    21    22   ar
    17    10    11    1
    18    11    12    1
    19    12    13    1
    20    13    14    1
    21     5     6    2
    22     6     7    1
    23     7     8    1
    24     8     9    2
    25     9     1    1
    26     8     3    1
    27    14    10    1
    28    22    17   ar
    29    24    27    1
    30    13    15    1
@<TRIPOS>MOLECULE
*****
 27 30 0 0 0
SMALL
GASTEIGER

@<TRIPOS>ATOM
      1 C         -15.6551   -0.9164   18.8348 C.2     1  UNL1        0.1341
      2 C         -15.8187   -2.0161   17.8280 C.2     1  UNL1        0.0249
      3 C         -15.2622   -3.2757   18.4227 C.2     1  UNL1        0.0152
      4 C         -15.1520   -4.6737   17.8904 C.2     1  UNL1       -0.0033
      5 C         -14.5343   -5.7504   18.7324 C.2     1  UNL1       -0.0250
      6 C         -14.0267   -5.4291   20.1069 C.2     1  UNL1       -0.0240
      7 C         -14.1368   -4.0311   20.6393 C.3     1  UNL1        0.0714
      8 C         -14.7546   -2.9544   19.7972 C.2     1  UNL1        0.0635
      9 N         -14.9974   -1.4963   20.0518 N.2     1  UNL1       -0.2448
     10 C         -14.4242   -7.1485   18.2000 C.3     1  UNL1        0.0385
     11 C         -14.1325   -8.4137   17.4491 C.3     1  UNL1        0.0228
     12 C         -14.8433   -9.5383   18.1419 C.3     1  UNL1        0.0689
     13 N         -15.5743   -8.9681   19.3211 N.3     1  UNL1       -0.2972
     14 C         -15.3152   -7.4911   19.3570 C.3     1  UNL1        0.0729
     15 H         -15.2350   -9.4000   20.1806 H       1  UNL1        0.1233
     16 C         -13.5561   -6.5136   17.1544 C.3     1  UNL1        0.0317
     17 C         -12.1088   -6.2454   17.4428 C.ar    1  UNL1       -0.0218
     18 C         -11.4243   -5.0680   16.8141 C.ar    1  UNL1       -0.0043
     19 C          -9.9769   -4.7998   17.1025 C.ar    1  UNL1       -0.0003
     20 C          -9.2140   -5.7091   18.0197 C.ar    1  UNL1       -0.0000
     21 C          -9.8984   -6.8865   18.6484 C.ar    1  UNL1       -0.0003
     22 C         -11.3458   -7.1547   18.3600 C.ar    1  UNL1       -0.0043
     23 C         -15.5349    3.0502   18.7890 C.3     1  UNL1        0.1110
     24 N         -15.1146    1.6214   18.9678 N.am    1  UNL1       -0.2979
     25 C         -16.0753    0.5124   18.6560 C.2     1  UNL1        0.2636
     26 O         -17.4562    0.8322   18.1654 O.2     1  UNL1       -0.2685
     27 H         -14.2083    1.4115   19.2898 H       1  UNL1        0.1498
@<TRIPOS>BOND
     1    23    24    1
     2    24    25   am
     3    25    26    2
     4    25     1    1
     5     1     2    2
     6     2     3    1
     7     3     4    2
     8     4     5    1
     9     5    10    1
    10    10    16    1
    11    16    17    1
    12    17    18   ar
    13    18    19   ar
    14    19    20   ar
    15    20    21   ar
    16    21    22   ar
    17    10    11    1
    18    11    12    1
    19    12    13    1
    20    13    14    1
    21     5     6    2
    22     6     7    1
    23     7     8    1
    24     8     9    2
    25     9     1    1
    26     8     3    1
    27    14    10    1
    28    22    17   ar
    29    24    27    1
    30    13    15    1
@<TRIPOS>MOLECULE
*****
 27 30 0 0 0
SMALL
GASTEIGER

@<TRIPOS>ATOM
      1 C           3.1260   -0.2581   25.6170 C.2     1  UNL1        0.1341
      2 C           3.9501   -1.3048   24.9278 C.2     1  UNL1        0.0249
      3 C           3.6084   -1.2768   23.4675 C.2     1  UNL1        0.0152
      4 C           4.1062   -2.0827   22.3045 C.2     1  UNL1       -0.0033
      5 C           3.5686   -1.8246   20.9282 C.2     1  UNL1       -0.0250
      6 C           2.5332   -0.7604   20.7149 C.2     1  UNL1       -0.0240
      7 C           2.0353    0.0455   21.8778 C.3     1  UNL1        0.0714
      8 C           2.5729   -0.2127   23.2542 C.2     1  UNL1        0.0635
      9 N           2.2748    0.4169   24.5826 N.2     1  UNL1       -0.2448
     10 C           4.0665   -2.6305   19.7651 C.3     1  UNL1        0.0385
     11 C           4.5275   -3.1686   18.4431 C.3     1  UNL1        0.0228
     12 C           4.8844   -4.6135   18.6298 C.3     1  UNL1        0.0689
     13 N           4.6439   -4.9685   20.0672 N.3     1  UNL1       -0.2972
     14 C           4.1384   -3.7428   20.7689 C.3     1  UNL1        0.0729
     15 H           5.5150   -5.2792   20.4974 H       1  UNL1        0.1233
     16 C           3.8905   -1.3497   19.0045 C.3     1  UNL1        0.0317
     17 C           5.0891   -0.6268   18.4655 C.ar    1  UNL1       -0.0218
     18 C           6.3253   -0.4942   19.3050 C.ar    1  UNL1       -0.0043
     19 C           7.5239    0.2287   18.7660 C.ar    1  UNL1       -0.0003
     20 C           7.4866    0.8192   17.3876 C.ar    1  UNL1       -0.0000
     21 C           6.2505    0.6867   16.5481 C.ar    1  UNL1       -0.0003
     22 C           5.0518   -0.0363   17.0871 C.ar    1  UNL1       -0.0043
     23 C           2.3106   -0.4051   29.4981 C.3     1  UNL1        0.1110
     24 N           2.2877   -0.7213   28.0320 N.am    1  UNL1       -0.2979
     25 C           3.1489    0.0582   27.0831 C.2     1  UNL1        0.2636
     26 O           4.0331    1.1540   27.6002 O.2     1  UNL1       -0.2685
     27 H           1.7073   -1.4405   27.6926 H       1  UNL1        0.1498
@<TRIPOS>BOND
     1    23    24    1
     2    24    25   am
     3    25    26    2
     4    25     1    1
     5     1     2    2
     6     2     3    1
     7     3     4    2
     8     4     5    1
     9     5    10    1
    10    10    16    1
    11    16    17    1
    12    17    18   ar
    13    18    19   ar
    14    19    20   ar
    15    20    21   ar
    16    21    22   ar
    17    10    11    1
    18    11    12    1
    19    12    13    1
    20    13    14    1
    21     5     6    2
    22     6     7    1
    23     7     8    1
    24     8     9    2
    25     9     1    1
    26     8     3    1
    27    14    10    1
    28    22    17   ar
    29    24    27    1
    30    13    15    1
@<TRIPOS>MOLECULE
*****
 27 30 0 0 0
SMALL
GASTEIGER

@<TRIPOS>ATOM
      1 C         -14.7710   -1.0011   18.9999 C.2     1  UNL1        0.1341
      2 C         -14.2234   -2.1962   19.7224 C.2     1  UNL1        0.0249
      3 C         -13.3205   -2.9346   18.7792 C.2     1  UNL1        0.0152
      4 C         -12.5066   -4.1841   18.9404 C.2     1  UNL1       -0.0033
      5 C         -11.6822   -4.6949   17.7961 C.2     1  UNL1       -0.0250
      6 C         -11.6717   -3.9562   16.4907 C.2     1  UNL1       -0.0240
      7 C         -12.4857   -2.7066   16.3295 C.3     1  UNL1        0.0714
      8 C         -13.3101   -2.1958   17.4738 C.2     1  UNL1        0.0635
      9 N         -14.2065   -1.0009   17.6102 N.2     1  UNL1       -0.2448
     10 C         -10.8681   -5.9446   17.9573 C.3     1  UNL1        0.0385
     11 C         -10.2210   -7.2951   17.8728 C.3     1  UNL1        0.0228
     12 C          -9.1932   -7.3855   18.9615 C.3     1  UNL1        0.0689
     13 N          -9.2051   -6.0909   19.7189 N.3     1  UNL1       -0.2972
     14 C         -10.2403   -5.2003   19.0982 C.3     1  UNL1        0.0729
     15 H          -8.2881   -5.6479   19.6617 H       1  UNL1        0.1233
     16 C         -11.6662   -6.4276   16.7826 C.3     1  UNL1        0.0317
     17 C         -13.0049   -7.0689   16.9981 C.ar    1  UNL1       -0.0218
     18 C         -14.0961   -6.8857   15.9853 C.ar    1  UNL1       -0.0043
     19 C         -15.4349   -7.5271   16.2008 C.ar    1  UNL1       -0.0003
     20 C         -15.6824   -8.3516   17.4292 C.ar    1  UNL1       -0.0000
     21 C         -14.5913   -8.5349   18.4420 C.ar    1  UNL1       -0.0003
     22 C         -13.2525   -7.8935   18.2265 C.ar    1  UNL1       -0.0043
     23 C         -17.8105    0.5906   20.9944 C.3     1  UNL1        0.1110
     24 N         -16.8645   -0.4258   20.4268 N.am    1  UNL1       -0.2979
     25 C         -15.7169    0.0152   19.5675 C.2     1  UNL1        0.2636
     26 O         -15.5153    1.4727   19.2758 O.2     1  UNL1       -0.2685
     27 H         -16.9969   -1.3824   20.6183 H       1  UNL1        0.1498
@<TRIPOS>BOND
     1    23    24    1
     2    24    25   am
     3    25    26    2
     4    25     1    1
     5     1     2    2
     6     2     3    1
     7     3     4    2
     8     4     5    1
     9     5    10    1
    10    10    16    1
    11    16    17    1
    12    17    18   ar
    13    18    19   ar
    14    19    20   ar
    15    20    21   ar
    16    21    22   ar
    17    10    11    1
    18    11    12    1
    19    12    13    1
    20    13    14    1
    21     5     6    2
    22     6     7    1
    23     7     8    1
    24     8     9    2
    25     9     1    1
    26     8     3    1
    27    14    10    1
    28    22    17   ar
    29    24    27    1
    30    13    15    1
@<TRIPOS>MOLECULE
*****
 27 30 0 0 0
SMALL
GASTEIGER

@<TRIPOS>ATOM
      1 C           0.0369    1.8378   21.5470 C.2     1  UNL1        0.1341
      2 C           0.2400    0.9877   20.3280 C.2     1  UNL1        0.0249
      3 C           1.4117    0.0861   20.5815 C.2     1  UNL1        0.0152
      4 C           2.0715   -0.9637   19.7373 C.2     1  UNL1       -0.0033
      5 C           3.2524   -1.7206   20.2689 C.2     1  UNL1       -0.0250
      6 C           3.7735   -1.4276   21.6447 C.2     1  UNL1       -0.0240
      7 C           3.1137   -0.3778   22.4888 C.3     1  UNL1        0.0714
      8 C           1.9329    0.3790   21.9572 C.2     1  UNL1        0.0635
      9 N           1.0832    1.4616   22.5539 N.2     1  UNL1       -0.2448
     10 C           3.9122   -2.7704   19.4248 C.3     1  UNL1        0.0385
     11 C           4.5722   -3.5965   18.3609 C.3     1  UNL1        0.0228
     12 C           4.8412   -4.9576   18.9311 C.3     1  UNL1        0.0689
     13 N           4.3474   -4.9727   20.3474 N.3     1  UNL1       -0.2972
     14 C           3.7733   -3.6209   20.6525 C.3     1  UNL1        0.0729
     15 H           5.1212   -5.1713   20.9816 H       1  UNL1        0.1233
     16 C           3.9131   -1.7004   18.3735 C.3     1  UNL1        0.0317
     17 C           5.1584   -0.9057   18.1135 C.ar    1  UNL1       -0.0218
     18 C           6.3413   -1.0452   19.0254 C.ar    1  UNL1       -0.0043
     19 C           7.5866   -0.2504   18.7654 C.ar    1  UNL1       -0.0003
     20 C           7.6490    0.6839   17.5935 C.ar    1  UNL1       -0.0000
     21 C           6.4662    0.8234   16.6817 C.ar    1  UNL1       -0.0003
     22 C           5.2208    0.0286   16.9417 C.ar    1  UNL1       -0.0043
     23 C          -3.3151    3.9022   21.0448 C.3     1  UNL1        0.1110
     24 N          -2.2523    2.8591   20.8643 N.am    1  UNL1       -0.2979
     25 C          -1.0258    2.8809   21.7275 C.2     1  UNL1        0.2636
     26 O          -0.8620    3.9458   22.7710 O.2     1  UNL1       -0.2685
     27 H          -2.3599    2.1602   20.1794 H       1  UNL1        0.1498
@<TRIPOS>BOND
     1    23    24    1
     2    24    25   am
     3    25    26    2
     4    25     1    1
     5     1     2    2
     6     2     3    1
     7     3     4    2
     8     4     5    1
     9     5    10    1
    10    10    16    1
    11    16    17    1
    12    17    18   ar
    13    18    19   ar
    14    19    20   ar
    15    20    21   ar
    16    21    22   ar
    17    10    11    1
    18    11    12    1
    19    12    13    1
    20    13    14    1
    21     5     6    2
    22     6     7    1
    23     7     8    1
    24     8     9    2
    25     9     1    1
    26     8     3    1
    27    14    10    1
    28    22    17   ar
    29    24    27    1
    30    13    15    1
@<TRIPOS>MOLECULE
*****
 27 30 0 0 0
SMALL
GASTEIGER

@<TRIPOS>ATOM
      1 C           0.5912    3.8778   18.1807 C.2     1  UNL1        0.1341
      2 C           0.2999    2.4081   18.2516 C.2     1  UNL1        0.0249
      3 C           1.5958    1.6893   18.4834 C.2     1  UNL1        0.0152
      4 C           1.9224    0.2334   18.6378 C.2     1  UNL1       -0.0033
      5 C           3.3413   -0.1969   18.8647 C.2     1  UNL1       -0.0250
      6 C           4.4336    0.8286   18.9371 C.2     1  UNL1       -0.0240
      7 C           4.1071    2.2844   18.7826 C.3     1  UNL1        0.0714
      8 C           2.6882    2.7147   18.5557 C.2     1  UNL1        0.0635
      9 N           2.0672    4.0673   18.3687 N.2     1  UNL1       -0.2448
     10 C           3.6679   -1.6528   19.0192 C.3     1  UNL1        0.0385
     11 C           3.7748   -3.1004   19.3973 C.3     1  UNL1        0.0228
     12 C           4.8235   -3.7300   18.5291 C.3     1  UNL1        0.0689
     13 N           5.3647   -2.6716   17.6144 N.3     1  UNL1       -0.2972
     14 C           4.6505   -1.3878   17.9173 C.3     1  UNL1        0.0729
     15 H           5.2022   -2.9373   16.6431 H       1  UNL1        0.1233
     16 C           2.6170   -1.6134   20.0888 C.3     1  UNL1        0.0317
     17 C           3.0069   -1.3561   21.5142 C.ar    1  UNL1       -0.0218
     18 C           2.4194   -0.1907   22.2538 C.ar    1  UNL1       -0.0043
     19 C           2.8093    0.0666   23.6792 C.ar    1  UNL1       -0.0003
     20 C           3.7868   -0.8413   24.3650 C.ar    1  UNL1       -0.0000
     21 C           4.3743   -2.0066   23.6254 C.ar    1  UNL1       -0.0003
     22 C           3.9844   -2.2640   22.2000 C.ar    1  UNL1       -0.0043
     23 C          -2.7801    5.7233   17.1914 C.3     1  UNL1        0.1110
     24 N          -1.7723    4.6343   17.4116 N.am    1  UNL1       -0.2979
     25 C          -0.4166    4.9668   17.9606 C.2     1  UNL1        0.2636
     26 O          -0.0686    6.3884   18.2893 O.2     1  UNL1       -0.2685
     27 H          -2.0007    3.7013   17.1958 H       1  UNL1        0.1498
@<TRIPOS>BOND
     1    23    24    1
     2    24    25   am
     3    25    26    2
     4    25     1    1
     5     1     2    2
     6     2     3    1
     7     3     4    2
     8     4     5    1
     9     5    10    1
    10    10    16    1
    11    16    17    1
    12    17    18   ar
    13    18    19   ar
    14    19    20   ar
    15    20    21   ar
    16    21    22   ar
    17    10    11    1
    18    11    12    1
    19    12    13    1
    20    13    14    1
    21     5     6    2
    22     6     7    1
    23     7     8    1
    24     8     9    2
    25     9     1    1
    26     8     3    1
    27    14    10    1
    28    22    17   ar
    29    24    27    1
    30    13    15    1
@<TRIPOS>MOLECULE
*****
 27 30 0 0 0
SMALL
GASTEIGER

@<TRIPOS>ATOM
      1 C          -0.3022    2.3620   20.0507 C.2     1  UNL1        0.1341
      2 C          -0.0246    1.0919   20.7988 C.2     1  UNL1        0.0249
      3 C           1.1835    0.4476   20.1861 C.2     1  UNL1        0.0152
      4 C           1.9171   -0.8204   20.5086 C.2     1  UNL1       -0.0033
      5 C           3.1197   -1.2164   19.7044 C.2     1  UNL1       -0.0250
      6 C           3.5887   -0.3444   18.5776 C.2     1  UNL1       -0.0240
      7 C           2.8552    0.9236   18.2551 C.3     1  UNL1        0.0714
      8 C           1.6526    1.3196   19.0593 C.2     1  UNL1        0.0635
      9 N           0.7344    2.5027   18.9757 N.2     1  UNL1       -0.2448
     10 C           3.8533   -2.4844   20.0269 C.3     1  UNL1        0.0385
     11 C           4.5235   -3.6747   20.6466 C.3     1  UNL1        0.0228
     12 C           5.0874   -4.5170   19.5408 C.3     1  UNL1        0.0689
     13 N           4.7656   -3.8473   18.2378 N.3     1  UNL1       -0.2972
     14 C           4.0029   -2.5911   18.5382 C.3     1  UNL1        0.0729
     15 H           4.1975   -4.4676   17.6608 H       1  UNL1        0.1233
     16 C           3.5503   -2.1127   21.4482 C.3     1  UNL1        0.0317
     17 C           4.6693   -1.7938   22.3948 C.ar    1  UNL1       -0.0218
     18 C           5.7718   -0.8701   21.9689 C.ar    1  UNL1       -0.0043
     19 C           6.8908   -0.5512   22.9155 C.ar    1  UNL1       -0.0003
     20 C           6.9074   -1.1560   24.2881 C.ar    1  UNL1       -0.0000
     21 C           5.8049   -2.0797   24.7141 C.ar    1  UNL1       -0.0003
     22 C           4.6858   -2.3986   23.7674 C.ar    1  UNL1       -0.0043
     23 C          -3.9084    3.7664   20.9300 C.3     1  UNL1        0.1110
     24 N          -2.7905    2.8056   20.6519 N.am    1  UNL1       -0.2979
     25 C          -1.4201    3.3228   20.3288 C.2     1  UNL1        0.2636
     26 O          -1.1675    4.8006   20.2839 O.2     1  UNL1       -0.2685
     27 H          -2.9563    1.8357   20.6814 H       1  UNL1        0.1498
@<TRIPOS>BOND
     1    23    24    1
     2    24    25   am
     3    25    26    2
     4    25     1    1
     5     1     2    2
     6     2     3    1
     7     3     4    2
     8     4     5    1
     9     5    10    1
    10    10    16    1
    11    16    17    1
    12    17    18   ar
    13    18    19   ar
    14    19    20   ar
    15    20    21   ar
    16    21    22   ar
    17    10    11    1
    18    11    12    1
    19    12    13    1
    20    13    14    1
    21     5     6    2
    22     6     7    1
    23     7     8    1
    24     8     9    2
    25     9     1    1
    26     8     3    1
    27    14    10    1
    28    22    17   ar
    29    24    27    1
    30    13    15    1
