@<TRIPOS>MOLECULE
*****
 24 26 0 0 0
SMALL
GASTEIGER

@<TRIPOS>ATOM
      1 C          -8.7829  -17.1342   22.5871 C.3     1  UNL1        0.0868
      2 C         -10.2158  -17.3946   22.9463 C.ar    1  UNL1        0.0200
      3 C         -10.5532  -18.4156   23.9920 C.ar    1  UNL1       -0.0007
      4 C         -11.9862  -18.6760   24.3512 C.ar    1  UNL1       -0.0001
      5 C         -13.0816  -17.9153   23.6646 C.ar    1  UNL1        0.0023
      6 C         -12.7441  -16.8943   22.6188 C.ar    1  UNL1        0.0294
      7 C         -11.3113  -16.6339   22.2597 C.ar    1  UNL1        0.1374
      8 F         -10.9738  -15.6129   21.2139 F       1  UNL1       -0.2045
      9 N          -8.0044  -18.1594   21.8170 N.3     1  UNL1       -0.2676
     10 C          -6.6280  -18.5499   22.2674 C.3     1  UNL1        0.0896
     11 C          -5.8495  -19.5750   21.4973 C.3     1  UNL1        0.0862
     12 N          -6.4476  -20.2098   20.2769 N.3     1  UNL1       -0.2951
     13 C          -7.8241  -19.8193   19.8266 C.3     1  UNL1        0.0862
     14 C          -8.6025  -18.7942   20.5966 C.3     1  UNL1        0.0896
     15 H          -6.4678  -21.2152   20.4479 H       1  UNL1        0.1233
     16 C          -8.1284  -15.8486   22.9980 C.3     1  UNL1        0.0500
     17 C          -6.1665  -15.5135   24.6680 C.ar    1  UNL1        0.1347
     18 C          -5.6723  -15.3392   26.0734 C.ar    1  UNL1        0.0366
     19 C          -6.6458  -15.3258   27.2145 C.ar    1  UNL1        0.0031
     20 C          -8.1135  -15.4867   26.9501 C.ar    1  UNL1       -0.0001
     21 C          -8.6077  -15.6609   25.5446 C.ar    1  UNL1       -0.0012
     22 C          -7.6342  -15.6743   24.4036 C.ar    1  UNL1        0.0135
     23 C          -4.0872  -16.5400   23.4962 C.3     1  UNL1        0.2525
     24 O          -5.1929  -15.5268   23.5268 O.3     1  UNL1       -0.4717
@<TRIPOS>BOND
     1    23    24    1
     2    24    17    1
     3    17    18   ar
     4    18    19   ar
     5    19    20   ar
     6    20    21   ar
     7    21    22   ar
     8    22    16    1
     9    16     1    1
    10     1     2    1
    11     2     3   ar
    12     3     4   ar
    13     4     5   ar
    14     5     6   ar
    15     6     7   ar
    16     7     8    1
    17     1     9    1
    18     9    10    1
    19    10    11    1
    20    11    12    1
    21    12    13    1
    22    13    14    1
    23    22    17   ar
    24     7     2   ar
    25    14     9    1
    26    12    15    1
@<TRIPOS>MOLECULE
*****
 24 26 0 0 0
SMALL
GASTEIGER

@<TRIPOS>ATOM
      1 C          -8.6648  -16.6591   23.4220 C.3     1  UNL1        0.0868
      2 C         -10.0924  -17.1149   23.4860 C.ar    1  UNL1        0.0200
      3 C         -11.1609  -16.3362   22.7776 C.ar    1  UNL1       -0.0007
      4 C         -12.5885  -16.7921   22.8416 C.ar    1  UNL1       -0.0001
      5 C         -12.9477  -18.0267   23.6141 C.ar    1  UNL1        0.0023
      6 C         -11.8792  -18.8054   24.3225 C.ar    1  UNL1        0.0294
      7 C         -10.4516  -18.3496   24.2585 C.ar    1  UNL1        0.1374
      8 F          -9.3831  -19.1283   24.9670 F       1  UNL1       -0.2045
      9 N          -7.9961  -16.1130   24.6487 N.3     1  UNL1       -0.2676
     10 C          -8.7791  -15.9424   25.9167 C.3     1  UNL1        0.0896
     11 C          -8.1105  -15.3964   27.1434 C.3     1  UNL1        0.0862
     12 N          -6.6589  -15.0210   27.1021 N.3     1  UNL1       -0.2951
     13 C          -5.8759  -15.1916   25.8341 C.3     1  UNL1        0.0862
     14 C          -6.5445  -15.7376   24.6074 C.3     1  UNL1        0.0896
     15 H          -6.1899  -15.5795   27.8152 H       1  UNL1        0.1233
     16 C          -7.9059  -16.7493   22.1314 C.3     1  UNL1        0.0500
     17 C          -7.9702  -18.8994   20.6743 C.ar    1  UNL1        0.1347
     18 C          -7.3578  -20.2025   20.2539 C.ar    1  UNL1        0.0366
     19 C          -6.0686  -20.6586   20.8701 C.ar    1  UNL1        0.0031
     20 C          -5.3917  -19.8117   21.9067 C.ar    1  UNL1       -0.0001
     21 C          -6.0041  -18.5086   22.3271 C.ar    1  UNL1       -0.0012
     22 C          -7.2934  -18.0524   21.7109 C.ar    1  UNL1        0.0135
     23 C         -10.5401  -19.1515   20.3874 C.3     1  UNL1        0.2525
     24 O          -9.2595  -18.4431   20.0581 O.3     1  UNL1       -0.4717
@<TRIPOS>BOND
     1    23    24    1
     2    24    17    1
     3    17    18   ar
     4    18    19   ar
     5    19    20   ar
     6    20    21   ar
     7    21    22   ar
     8    22    16    1
     9    16     1    1
    10     1     2    1
    11     2     3   ar
    12     3     4   ar
    13     4     5   ar
    14     5     6   ar
    15     6     7   ar
    16     7     8    1
    17     1     9    1
    18     9    10    1
    19    10    11    1
    20    11    12    1
    21    12    13    1
    22    13    14    1
    23    22    17   ar
    24     7     2   ar
    25    14     9    1
    26    12    15    1
@<TRIPOS>MOLECULE
*****
 24 26 0 0 0
SMALL
GASTEIGER

@<TRIPOS>ATOM
      1 C          -8.9376  -17.7634   23.5563 C.3     1  UNL1        0.0868
      2 C         -10.4321  -17.6382   23.5304 C.ar    1  UNL1        0.0200
      3 C         -11.0799  -16.5517   22.7243 C.ar    1  UNL1       -0.0007
      4 C         -12.5745  -16.4266   22.6984 C.ar    1  UNL1       -0.0001
      5 C         -13.4212  -17.3880   23.4785 C.ar    1  UNL1        0.0023
      6 C         -12.7734  -18.4745   24.2846 C.ar    1  UNL1        0.0294
      7 C         -11.2789  -18.5997   24.3106 C.ar    1  UNL1        0.1374
      8 F         -10.6311  -19.6862   25.1167 F       1  UNL1       -0.2045
      9 N          -8.1109  -16.7334   24.2675 N.3     1  UNL1       -0.2676
     10 C          -6.8780  -16.1807   23.6160 C.3     1  UNL1        0.0896
     11 C          -6.0514  -15.1508   24.3271 C.3     1  UNL1        0.0862
     12 N          -6.4576  -14.6735   25.6898 N.3     1  UNL1       -0.2951
     13 C          -7.6905  -15.2261   26.3414 C.3     1  UNL1        0.0862
     14 C          -8.5172  -16.2560   25.6303 C.3     1  UNL1        0.0896
     15 H          -6.5879  -13.6641   25.6216 H       1  UNL1        0.1233
     16 C          -8.2697  -18.9185   22.8710 C.3     1  UNL1        0.0500
     17 C          -7.5491  -19.2122   20.3922 C.ar    1  UNL1        0.1347
     18 C          -7.8930  -19.5410   18.9697 C.ar    1  UNL1        0.0366
     19 C          -9.3013  -19.9049   18.6034 C.ar    1  UNL1        0.0031
     20 C         -10.3657  -19.9400   19.6597 C.ar    1  UNL1       -0.0001
     21 C         -10.0219  -19.6112   21.0822 C.ar    1  UNL1       -0.0012
     22 C          -8.6136  -19.2473   21.4484 C.ar    1  UNL1        0.0135
     23 C          -5.0927  -19.9164   20.8613 C.3     1  UNL1        0.2525
     24 O          -6.1408  -18.8483   20.7585 O.3     1  UNL1       -0.4717
@<TRIPOS>BOND
     1    23    24    1
     2    24    17    1
     3    17    18   ar
     4    18    19   ar
     5    19    20   ar
     6    20    21   ar
     7    21    22   ar
     8    22    16    1
     9    16     1    1
    10     1     2    1
    11     2     3   ar
    12     3     4   ar
    13     4     5   ar
    14     5     6   ar
    15     6     7   ar
    16     7     8    1
    17     1     9    1
    18     9    10    1
    19    10    11    1
    20    11    12    1
    21    12    13    1
    22    13    14    1
    23    22    17   ar
    24     7     2   ar
    25    14     9    1
    26    12    15    1
@<TRIPOS>MOLECULE
*****
 24 26 0 0 0
SMALL
GASTEIGER

@<TRIPOS>ATOM
      1 C          -8.6044  -16.5936   23.5090 C.3     1  UNL1        0.0868
      2 C         -10.0318  -17.0545   23.5116 C.ar    1  UNL1        0.0200
      3 C         -11.0743  -16.2705   22.7709 C.ar    1  UNL1       -0.0007
      4 C         -12.5018  -16.7314   22.7735 C.ar    1  UNL1       -0.0001
      5 C         -12.8867  -17.9762   23.5167 C.ar    1  UNL1        0.0023
      6 C         -11.8441  -18.7601   24.2573 C.ar    1  UNL1        0.0294
      7 C         -10.4167  -18.2993   24.2548 C.ar    1  UNL1        0.1374
      8 F          -9.3742  -19.0832   24.9954 F       1  UNL1       -0.2045
      9 N          -7.9887  -16.0524   24.7653 N.3     1  UNL1       -0.2676
     10 C          -8.8158  -15.9216   26.0098 C.3     1  UNL1        0.0896
     11 C          -8.2002  -15.3804   27.2660 C.3     1  UNL1        0.0862
     12 N          -6.7575  -14.9699   27.2777 N.3     1  UNL1       -0.2951
     13 C          -5.9305  -15.1007   26.0331 C.3     1  UNL1        0.0862
     14 C          -6.5460  -15.6419   24.7769 C.3     1  UNL1        0.0896
     15 H          -6.2981  -15.5290   27.9966 H       1  UNL1        0.1233
     16 C          -7.7925  -16.6740   22.2503 C.3     1  UNL1        0.0500
     17 C          -5.8891  -18.4375   22.1194 C.ar    1  UNL1        0.1347
     18 C          -5.3776  -19.7637   21.6403 C.ar    1  UNL1        0.0366
     19 C          -6.2580  -20.6526   20.8129 C.ar    1  UNL1        0.0031
     20 C          -7.6499  -20.2153   20.4646 C.ar    1  UNL1       -0.0001
     21 C          -8.1614  -18.8891   20.9437 C.ar    1  UNL1       -0.0012
     22 C          -7.2810  -18.0002   21.7711 C.ar    1  UNL1        0.0135
     23 C          -3.5987  -17.9612   23.2496 C.3     1  UNL1        0.2525
     24 O          -5.0086  -17.5485   22.9469 O.3     1  UNL1       -0.4717
@<TRIPOS>BOND
     1    23    24    1
     2    24    17    1
     3    17    18   ar
     4    18    19   ar
     5    19    20   ar
     6    20    21   ar
     7    21    22   ar
     8    22    16    1
     9    16     1    1
    10     1     2    1
    11     2     3   ar
    12     3     4   ar
    13     4     5   ar
    14     5     6   ar
    15     6     7   ar
    16     7     8    1
    17     1     9    1
    18     9    10    1
    19    10    11    1
    20    11    12    1
    21    12    13    1
    22    13    14    1
    23    22    17   ar
    24     7     2   ar
    25    14     9    1
    26    12    15    1
@<TRIPOS>MOLECULE
*****
 24 26 0 0 0
SMALL
GASTEIGER

@<TRIPOS>ATOM
      1 C          -8.9459  -17.9863   22.8272 C.3     1  UNL1        0.0868
      2 C          -8.4052  -17.1135   23.9207 C.ar    1  UNL1        0.0200
      3 C          -7.3165  -16.1256   23.6227 C.ar    1  UNL1       -0.0007
      4 C          -6.7758  -15.2528   24.7163 C.ar    1  UNL1       -0.0001
      5 C          -7.3238  -15.3678   26.1078 C.ar    1  UNL1        0.0023
      6 C          -8.4126  -16.3556   26.4058 C.ar    1  UNL1        0.0294
      7 C          -8.9533  -17.2284   25.3123 C.ar    1  UNL1        0.1374
      8 F         -10.0421  -18.2162   25.6103 F       1  UNL1       -0.2045
      9 N         -10.1666  -17.5636   22.0646 N.3     1  UNL1       -0.2676
     10 C         -11.4469  -18.3309   22.2135 C.3     1  UNL1        0.0896
     11 C         -12.6675  -17.9083   21.4510 C.3     1  UNL1        0.0862
     12 N         -12.6078  -16.7185   20.5396 N.3     1  UNL1       -0.2951
     13 C         -11.3275  -15.9513   20.3907 C.3     1  UNL1        0.0862
     14 C         -10.1069  -16.3738   21.1532 C.3     1  UNL1        0.0896
     15 H         -13.3102  -16.0576   20.8717 H       1  UNL1        0.1233
     16 C          -8.2660  -19.2817   22.4962 C.3     1  UNL1        0.0500
     17 C          -6.9471  -19.1052   20.2648 C.ar    1  UNL1        0.1347
     18 C          -5.6431  -19.0999   19.5234 C.ar    1  UNL1        0.0366
     19 C          -4.3541  -19.2655   20.2723 C.ar    1  UNL1        0.0031
     20 C          -4.3689  -19.4366   21.7624 C.ar    1  UNL1       -0.0001
     21 C          -5.6729  -19.4420   22.5037 C.ar    1  UNL1       -0.0012
     22 C          -6.9620  -19.2763   21.7549 C.ar    1  UNL1        0.0135
     23 C          -8.8906  -20.1285   18.8770 C.3     1  UNL1        0.2525
     24 O          -8.2363  -18.9395   19.5160 O.3     1  UNL1       -0.4717
@<TRIPOS>BOND
     1    23    24    1
     2    24    17    1
     3    17    18   ar
     4    18    19   ar
     5    19    20   ar
     6    20    21   ar
     7    21    22   ar
     8    22    16    1
     9    16     1    1
    10     1     2    1
    11     2     3   ar
    12     3     4   ar
    13     4     5   ar
    14     5     6   ar
    15     6     7   ar
    16     7     8    1
    17     1     9    1
    18     9    10    1
    19    10    11    1
    20    11    12    1
    21    12    13    1
    22    13    14    1
    23    22    17   ar
    24     7     2   ar
    25    14     9    1
    26    12    15    1
@<TRIPOS>MOLECULE
*****
 24 26 0 0 0
SMALL
GASTEIGER

@<TRIPOS>ATOM
      1 C          -7.5709  -17.7682   21.9436 C.3     1  UNL1        0.0868
      2 C          -8.8609  -18.4795   21.6613 C.ar    1  UNL1        0.0200
      3 C          -9.6581  -18.1303   20.4396 C.ar    1  UNL1       -0.0007
      4 C         -10.9483  -18.8417   20.1573 C.ar    1  UNL1       -0.0001
      5 C         -11.4411  -19.9021   21.0967 C.ar    1  UNL1        0.0023
      6 C         -10.6439  -20.2513   22.3184 C.ar    1  UNL1        0.0294
      7 C          -9.3539  -19.5401   22.6007 C.ar    1  UNL1        0.1374
      8 F          -8.5567  -19.8893   23.8224 F       1  UNL1       -0.2045
      9 N          -6.2631  -18.4591   21.6933 N.3     1  UNL1       -0.2676
     10 C          -5.1693  -18.3880   22.7172 C.3     1  UNL1        0.0896
     11 C          -3.8616  -19.0788   22.4669 C.3     1  UNL1        0.0862
     12 N          -3.6477  -19.8406   21.1926 N.3     1  UNL1       -0.2951
     13 C          -4.7416  -19.9117   20.1687 C.3     1  UNL1        0.0862
     14 C          -6.0493  -19.2209   20.4190 C.3     1  UNL1        0.0896
     15 H          -3.4290  -20.8012   21.4570 H       1  UNL1        0.1233
     16 C          -7.5885  -16.3661   22.4764 C.3     1  UNL1        0.0500
     17 C          -8.5895  -16.4198   24.8733 C.ar    1  UNL1        0.1347
     18 C          -8.4470  -16.1754   26.3463 C.ar    1  UNL1        0.0366
     19 C          -7.1610  -15.6328   26.8956 C.ar    1  UNL1        0.0031
     20 C          -6.0174  -15.3347   25.9718 C.ar    1  UNL1       -0.0001
     21 C          -6.1599  -15.5791   24.4987 C.ar    1  UNL1       -0.0012
     22 C          -7.4459  -16.1217   23.9495 C.ar    1  UNL1        0.0135
     23 C         -10.7437  -16.0998   23.4564 C.3     1  UNL1        0.2525
     24 O          -9.8756  -16.9623   24.3240 O.3     1  UNL1       -0.4717
@<TRIPOS>BOND
     1    23    24    1
     2    24    17    1
     3    17    18   ar
     4    18    19   ar
     5    19    20   ar
     6    20    21   ar
     7    21    22   ar
     8    22    16    1
     9    16     1    1
    10     1     2    1
    11     2     3   ar
    12     3     4   ar
    13     4     5   ar
    14     5     6   ar
    15     6     7   ar
    16     7     8    1
    17     1     9    1
    18     9    10    1
    19    10    11    1
    20    11    12    1
    21    12    13    1
    22    13    14    1
    23    22    17   ar
    24     7     2   ar
    25    14     9    1
    26    12    15    1
@<TRIPOS>MOLECULE
*****
 24 26 0 0 0
SMALL
GASTEIGER

@<TRIPOS>ATOM
      1 C          -8.4195  -18.1664   22.6429 C.3     1  UNL1        0.0868
      2 C          -8.1166  -17.1218   23.6759 C.ar    1  UNL1        0.0200
      3 C          -7.0922  -16.0630   23.3939 C.ar    1  UNL1       -0.0007
      4 C          -6.7893  -15.0184   24.4270 C.ar    1  UNL1       -0.0001
      5 C          -7.5108  -15.0327   25.7420 C.ar    1  UNL1        0.0023
      6 C          -8.5352  -16.0915   26.0240 C.ar    1  UNL1        0.0294
      7 C          -8.8381  -17.1361   24.9910 C.ar    1  UNL1        0.1374
      8 F          -9.8625  -18.1949   25.2730 F       1  UNL1       -0.2045
      9 N          -9.4672  -17.9089   21.6007 N.3     1  UNL1       -0.2676
     10 C          -9.8474  -18.9926   20.6358 C.3     1  UNL1        0.0896
     11 C         -10.8950  -18.7352   19.5936 C.3     1  UNL1        0.0862
     12 N         -11.5623  -17.3941   19.5162 N.3     1  UNL1       -0.2951
     13 C         -11.1820  -16.3104   20.4811 C.3     1  UNL1        0.0862
     14 C         -10.1345  -16.5678   21.5233 C.3     1  UNL1        0.0896
     15 H         -12.5625  -17.5557   19.6341 H       1  UNL1        0.1233
     16 C          -7.6748  -19.4685   22.6521 C.3     1  UNL1        0.0500
     17 C          -5.1699  -19.0496   22.1044 C.ar    1  UNL1        0.1347
     18 C          -3.9873  -19.2436   21.2023 C.ar    1  UNL1        0.0366
     19 C          -4.1272  -20.0505   19.9456 C.ar    1  UNL1        0.0031
     20 C          -5.4495  -20.6634   19.5911 C.ar    1  UNL1       -0.0001
     21 C          -6.6321  -20.4694   20.4932 C.ar    1  UNL1       -0.0012
     22 C          -6.4922  -19.6625   21.7499 C.ar    1  UNL1        0.0135
     23 C          -3.7156  -17.6048   23.7006 C.3     1  UNL1        0.2525
     24 O          -5.0301  -18.2426   23.3612 O.3     1  UNL1       -0.4717
@<TRIPOS>BOND
     1    23    24    1
     2    24    17    1
     3    17    18   ar
     4    18    19   ar
     5    19    20   ar
     6    20    21   ar
     7    21    22   ar
     8    22    16    1
     9    16     1    1
    10     1     2    1
    11     2     3   ar
    12     3     4   ar
    13     4     5   ar
    14     5     6   ar
    15     6     7   ar
    16     7     8    1
    17     1     9    1
    18     9    10    1
    19    10    11    1
    20    11    12    1
    21    12    13    1
    22    13    14    1
    23    22    17   ar
    24     7     2   ar
    25    14     9    1
    26    12    15    1
@<TRIPOS>MOLECULE
*****
 24 26 0 0 0
SMALL
GASTEIGER

@<TRIPOS>ATOM
      1 C          -9.0250  -17.6027   22.9427 C.3     1  UNL1        0.0868
      2 C          -8.8307  -17.1051   24.3443 C.ar    1  UNL1        0.0200
      3 C          -8.2373  -15.7483   24.5830 C.ar    1  UNL1       -0.0007
      4 C          -8.0429  -15.2508   25.9847 C.ar    1  UNL1       -0.0001
      5 C          -8.4420  -16.1100   27.1476 C.ar    1  UNL1        0.0023
      6 C          -9.0354  -17.4667   26.9090 C.ar    1  UNL1        0.0294
      7 C          -9.2298  -17.9643   25.5073 C.ar    1  UNL1        0.1374
      8 F          -9.8232  -19.3211   25.2687 F       1  UNL1       -0.2045
      9 N         -10.2411  -17.1960   22.1643 N.3     1  UNL1       -0.2676
     10 C         -11.3304  -16.4098   22.8316 C.3     1  UNL1        0.0896
     11 C         -12.5465  -16.0031   22.0532 C.3     1  UNL1        0.0862
     12 N         -12.6731  -16.3826   20.6076 N.3     1  UNL1       -0.2951
     13 C         -11.5838  -17.1688   19.9403 C.3     1  UNL1        0.0862
     14 C         -10.3678  -17.5755   20.7186 C.3     1  UNL1        0.0896
     15 H         -12.7730  -15.5137   20.0828 H       1  UNL1        0.1233
     16 C          -8.0034  -18.5070   22.3194 C.3     1  UNL1        0.0500
     17 C          -5.5597  -19.3892   22.3025 C.ar    1  UNL1        0.1347
     18 C          -4.1015  -19.1811   22.5858 C.ar    1  UNL1        0.0366
     19 C          -3.6287  -17.8827   23.1694 C.ar    1  UNL1        0.0031
     20 C          -4.6142  -16.7924   23.4696 C.ar    1  UNL1       -0.0001
     21 C          -6.0724  -17.0005   23.1863 C.ar    1  UNL1       -0.0012
     22 C          -6.5451  -18.2989   22.6028 C.ar    1  UNL1        0.0135
     23 C          -5.9128  -20.9349   20.2443 C.3     1  UNL1        0.2525
     24 O          -6.0325  -20.6876   21.7189 O.3     1  UNL1       -0.4717
@<TRIPOS>BOND
     1    23    24    1
     2    24    17    1
     3    17    18   ar
     4    18    19   ar
     5    19    20   ar
     6    20    21   ar
     7    21    22   ar
     8    22    16    1
     9    16     1    1
    10     1     2    1
    11     2     3   ar
    12     3     4   ar
    13     4     5   ar
    14     5     6   ar
    15     6     7   ar
    16     7     8    1
    17     1     9    1
    18     9    10    1
    19    10    11    1
    20    11    12    1
    21    12    13    1
    22    13    14    1
    23    22    17   ar
    24     7     2   ar
    25    14     9    1
    26    12    15    1
@<TRIPOS>MOLECULE
*****
 24 26 0 0 0
SMALL
GASTEIGER

@<TRIPOS>ATOM
      1 C          -8.2796  -17.2007   23.3425 C.3     1  UNL1        0.0868
      2 C          -7.4084  -16.4786   24.3270 C.ar    1  UNL1        0.0200
      3 C          -8.0264  -15.7604   25.4898 C.ar    1  UNL1       -0.0007
      4 C          -7.1550  -15.0382   26.4744 C.ar    1  UNL1       -0.0001
      5 C          -5.6657  -15.0344   26.2962 C.ar    1  UNL1        0.0023
      6 C          -5.0476  -15.7527   25.1334 C.ar    1  UNL1        0.0294
      7 C          -5.9189  -16.4748   24.1488 C.ar    1  UNL1        0.1374
      8 F          -5.3009  -17.1931   22.9860 F       1  UNL1       -0.2045
      9 N          -9.3007  -18.1871   23.8268 N.3     1  UNL1       -0.2676
     10 C         -10.6887  -17.7268   24.1609 C.3     1  UNL1        0.0896
     11 C         -11.7097  -18.7131   24.6453 C.3     1  UNL1        0.0862
     12 N         -11.3428  -20.1597   24.7954 N.3     1  UNL1       -0.2951
     13 C          -9.9548  -20.6200   24.4613 C.3     1  UNL1        0.0862
     14 C          -8.9338  -19.6337   23.9770 C.3     1  UNL1        0.0896
     15 H         -11.9798  -20.6885   24.1996 H       1  UNL1        0.1233
     16 C          -8.1299  -16.9365   21.8735 C.3     1  UNL1        0.0500
     17 C          -9.9542  -18.0785   20.4183 C.ar    1  UNL1        0.1347
     18 C         -10.3539  -19.1272   19.4231 C.ar    1  UNL1        0.0366
     19 C          -9.3288  -20.0826   18.8879 C.ar    1  UNL1        0.0031
     20 C          -7.9042  -19.9894   19.3479 C.ar    1  UNL1       -0.0001
     21 C          -7.5045  -18.9407   20.3431 C.ar    1  UNL1       -0.0012
     22 C          -8.5295  -17.9852   20.8783 C.ar    1  UNL1        0.0135
     23 C         -12.4315  -17.4983   20.9440 C.3     1  UNL1        0.2525
     24 O         -10.9793  -17.1230   20.9535 O.3     1  UNL1       -0.4717
@<TRIPOS>BOND
     1    23    24    1
     2    24    17    1
     3    17    18   ar
     4    18    19   ar
     5    19    20   ar
     6    20    21   ar
     7    21    22   ar
     8    22    16    1
     9    16     1    1
    10     1     2    1
    11     2     3   ar
    12     3     4   ar
    13     4     5   ar
    14     5     6   ar
    15     6     7   ar
    16     7     8    1
    17     1     9    1
    18     9    10    1
    19    10    11    1
    20    11    12    1
    21    12    13    1
    22    13    14    1
    23    22    17   ar
    24     7     2   ar
    25    14     9    1
    26    12    15    1
