@<TRIPOS>MOLECULE
*****
 30 33 0 0 0
SMALL
GASTEIGER

@<TRIPOS>ATOM
      1 C           5.5111   -3.5630   22.1342 C.3     1  UNL1        0.0545
      2 C           6.3737   -3.8783   23.3202 C.3     1  UNL1        0.0161
      3 C           5.8754   -3.0723   24.4830 C.3     1  UNL1        0.0058
      4 C           4.7049   -2.2589   24.0157 C.3     1  UNL1        0.0237
      5 C           4.4798   -2.5622   22.5640 C.3     1  UNL1        0.0201
      6 C           3.9008   -1.3091   24.8530 C.ar    1  UNL1       -0.0225
      7 C           4.0511   -1.3133   26.3455 C.ar    1  UNL1       -0.0046
      8 C           3.2470   -0.3634   27.1829 C.ar    1  UNL1       -0.0046
      9 C           2.2927    0.5906   26.5278 C.ar    1  UNL1       -0.0218
     10 C           2.1425    0.5948   25.0353 C.ar    1  UNL1       -0.0046
     11 C           2.9465   -0.3551   24.1979 C.ar    1  UNL1       -0.0046
     12 C           1.4885    1.5405   27.3652 C.3     1  UNL1        0.0322
     13 C           0.0852    1.1881   27.7608 C.3     1  UNL1        0.0464
     14 C          -0.1615    0.0845   28.7462 C.2     1  UNL1        0.0507
     15 O           0.8575   -0.2176   29.8047 O.co2   1  UNL1       -0.5492
     16 O          -1.4272   -0.7171   28.6732 O.co2   1  UNL1       -0.5492
     17 N           5.6547   -4.1462   20.7596 N.3     1  UNL1       -0.2962
     18 H           6.5877   -3.8980   20.4305 H       1  UNL1        0.1235
     19 C           3.5815   -4.6837   19.2889 C.3     1  UNL1        0.0220
     20 C           4.6947   -3.7556   19.6752 C.3     1  UNL1        0.0768
     21 C           4.8481   -2.4368   18.9770 C.ar    1  UNL1       -0.0080
     22 C           6.0806   -2.1543   18.1702 C.ar    1  UNL1       -0.0030
     23 C           6.2340   -0.8355   17.4720 C.ar    1  UNL1       -0.0003
     24 C           5.1549    0.2006   17.5807 C.ar    1  UNL1       -0.0000
     25 C           3.9223   -0.0819   18.3877 C.ar    1  UNL1       -0.0003
     26 C           2.8432    0.9543   18.4964 C.ar    1  UNL1       -0.0000
     27 C           1.6107    0.6717   19.3033 C.ar    1  UNL1       -0.0000
     28 C           1.4574   -0.6471   20.0014 C.ar    1  UNL1       -0.0000
     29 C           2.5365   -1.6832   19.8927 C.ar    1  UNL1       -0.0003
     30 C           3.7689   -1.4006   19.0858 C.ar    1  UNL1       -0.0027
@<TRIPOS>UNITY_ATOM_ATTR
15 1
charge -1
@<TRIPOS>BOND
     1    20    19    1
     2    20    17    1
     3     1    17    1
     4     1     2    1
     5     2     3    1
     6     3     4    1
     7     4     6    1
     8     6     7   ar
     9     7     8   ar
    10     8     9   ar
    11     9    12    1
    12    12    13    1
    13    13    14    1
    14    14    15   ar
    15    14    16   ar
    16     9    10   ar
    17    10    11   ar
    18     4     5    1
    19    20    21    1
    20    21    22   ar
    21    22    23   ar
    22    23    24   ar
    23    24    25   ar
    24    25    26   ar
    25    26    27   ar
    26    27    28   ar
    27    28    29   ar
    28    29    30   ar
    29     5     1    1
    30    30    21   ar
    31    11     6   ar
    32    30    25   ar
    33    17    18    1
@<TRIPOS>MOLECULE
*****
 30 33 0 0 0
SMALL
GASTEIGER

@<TRIPOS>ATOM
      1 C           7.3077   -3.9169   20.9064 C.3     1  UNL1        0.0545
      2 C           8.4808   -4.8519   20.9059 C.3     1  UNL1        0.0161
      3 C           8.6620   -5.3687   22.3024 C.3     1  UNL1        0.0058
      4 C           7.6011   -4.7532   23.1659 C.3     1  UNL1        0.0237
      5 C           6.7641   -3.8559   22.3031 C.3     1  UNL1        0.0201
      6 C           7.4107   -4.9929   24.6342 C.ar    1  UNL1       -0.0225
      7 C           7.0122   -3.8605   25.5335 C.ar    1  UNL1       -0.0046
      8 C           6.8217   -4.1001   27.0019 C.ar    1  UNL1       -0.0046
      9 C           7.0298   -5.4722   27.5711 C.ar    1  UNL1       -0.0218
     10 C           7.4283   -6.6047   26.6718 C.ar    1  UNL1       -0.0046
     11 C           7.6188   -6.3651   25.2034 C.ar    1  UNL1       -0.0046
     12 C           6.8394   -5.7120   29.0396 C.3     1  UNL1        0.0322
     13 C           6.9789   -4.5760   30.0092 C.3     1  UNL1        0.0464
     14 C           6.8019   -4.8184   31.4788 C.2     1  UNL1        0.0507
     15 O           6.7643   -6.2213   32.0084 O.co2   1  UNL1       -0.5492
     16 O           6.6624   -3.6579   32.4189 O.co2   1  UNL1       -0.5492
     17 N           6.7724   -3.1734   19.7187 N.3     1  UNL1       -0.2962
     18 H           6.9109   -2.1804   19.9060 H       1  UNL1        0.1235
     19 C           4.7429   -4.7148   19.2133 C.3     1  UNL1        0.0220
     20 C           5.3381   -3.3416   19.3127 C.3     1  UNL1        0.0768
     21 C           4.4992   -2.1365   19.0061 C.ar    1  UNL1       -0.0080
     22 C           4.3838   -1.6425   17.5945 C.ar    1  UNL1       -0.0030
     23 C           3.5449   -0.4374   17.2879 C.ar    1  UNL1       -0.0003
     24 C           2.8214    0.2736   18.3928 C.ar    1  UNL1       -0.0000
     25 C           2.9368   -0.2204   19.8045 C.ar    1  UNL1       -0.0003
     26 C           2.2133    0.4906   20.9094 C.ar    1  UNL1       -0.0000
     27 C           2.3286   -0.0035   22.3210 C.ar    1  UNL1       -0.0000
     28 C           3.1676   -1.2085   22.6276 C.ar    1  UNL1       -0.0000
     29 C           3.8911   -1.9195   21.5227 C.ar    1  UNL1       -0.0003
     30 C           3.7757   -1.4255   20.1111 C.ar    1  UNL1       -0.0027
@<TRIPOS>UNITY_ATOM_ATTR
15 1
charge -1
@<TRIPOS>BOND
     1    20    19    1
     2    20    17    1
     3     1    17    1
     4     1     2    1
     5     2     3    1
     6     3     4    1
     7     4     6    1
     8     6     7   ar
     9     7     8   ar
    10     8     9   ar
    11     9    12    1
    12    12    13    1
    13    13    14    1
    14    14    15   ar
    15    14    16   ar
    16     9    10   ar
    17    10    11   ar
    18     4     5    1
    19    20    21    1
    20    21    22   ar
    21    22    23   ar
    22    23    24   ar
    23    24    25   ar
    24    25    26   ar
    25    26    27   ar
    26    27    28   ar
    27    28    29   ar
    28    29    30   ar
    29     5     1    1
    30    30    21   ar
    31    11     6   ar
    32    30    25   ar
    33    17    18    1
@<TRIPOS>MOLECULE
*****
 30 33 0 0 0
SMALL
GASTEIGER

@<TRIPOS>ATOM
      1 C           2.4772    0.8579   19.7892 C.3     1  UNL1        0.0545
      2 C           1.3499   -0.1113   19.5891 C.3     1  UNL1        0.0161
      3 C           0.3816    0.0639   20.7212 C.3     1  UNL1        0.0058
      4 C           0.9102    1.1414   21.6209 C.3     1  UNL1        0.0237
      5 C           2.2054    1.6321   21.0449 C.3     1  UNL1        0.0201
      6 C           0.2583    1.6404   22.8762 C.ar    1  UNL1       -0.0225
      7 C          -0.6488    2.8341   22.8266 C.ar    1  UNL1       -0.0046
      8 C          -1.3009    3.3332   24.0819 C.ar    1  UNL1       -0.0046
      9 C          -1.0458    2.6386   25.3867 C.ar    1  UNL1       -0.0218
     10 C          -0.1388    1.4449   25.4362 C.ar    1  UNL1       -0.0046
     11 C           0.5133    0.9458   24.1810 C.ar    1  UNL1       -0.0046
     12 C          -1.6979    3.1377   26.6421 C.3     1  UNL1        0.0322
     13 C          -2.5539    4.3689   26.6041 C.3     1  UNL1        0.0464
     14 C          -4.0480    4.2452   26.6505 C.2     1  UNL1        0.0507
     15 O          -4.8328    5.0124   27.6731 O.co2   1  UNL1       -0.5492
     16 O          -4.7574    3.3543   25.6743 O.co2   1  UNL1       -0.5492
     17 N           3.6672    1.0239   18.8912 N.3     1  UNL1       -0.2962
     18 H           3.3324    0.9097   17.9345 H       1  UNL1        0.1235
     19 C           6.2370    0.6514   18.8064 C.3     1  UNL1        0.0220
     20 C           4.8547    0.1204   19.0452 C.3     1  UNL1        0.0768
     21 C           4.6597   -1.3141   19.4379 C.ar    1  UNL1       -0.0080
     22 C           4.4147   -2.3534   18.3845 C.ar    1  UNL1       -0.0030
     23 C           4.2198   -3.7879   18.7772 C.ar    1  UNL1       -0.0003
     24 C           4.2699   -4.1831   20.2233 C.ar    1  UNL1       -0.0000
     25 C           4.5149   -3.1437   21.2768 C.ar    1  UNL1       -0.0003
     26 C           4.5649   -3.5389   22.7229 C.ar    1  UNL1       -0.0000
     27 C           4.8100   -2.4996   23.7763 C.ar    1  UNL1       -0.0000
     28 C           5.0049   -1.0651   23.3836 C.ar    1  UNL1       -0.0000
     29 C           4.9548   -0.6699   21.9375 C.ar    1  UNL1       -0.0003
     30 C           4.7098   -1.7092   20.8841 C.ar    1  UNL1       -0.0027
@<TRIPOS>UNITY_ATOM_ATTR
15 1
charge -1
@<TRIPOS>BOND
     1    20    19    1
     2    20    17    1
     3     1    17    1
     4     1     2    1
     5     2     3    1
     6     3     4    1
     7     4     6    1
     8     6     7   ar
     9     7     8   ar
    10     8     9   ar
    11     9    12    1
    12    12    13    1
    13    13    14    1
    14    14    15   ar
    15    14    16   ar
    16     9    10   ar
    17    10    11   ar
    18     4     5    1
    19    20    21    1
    20    21    22   ar
    21    22    23   ar
    22    23    24   ar
    23    24    25   ar
    24    25    26   ar
    25    26    27   ar
    26    27    28   ar
    27    28    29   ar
    28    29    30   ar
    29     5     1    1
    30    30    21   ar
    31    11     6   ar
    32    30    25   ar
    33    17    18    1
@<TRIPOS>MOLECULE
*****
 30 33 0 0 0
SMALL
GASTEIGER

@<TRIPOS>ATOM
      1 C           4.5752   -3.0177   22.5776 C.3     1  UNL1        0.0545
      2 C           4.5796   -3.8365   21.3208 C.3     1  UNL1        0.0161
      3 C           3.8521   -3.0631   20.2612 C.3     1  UNL1        0.0058
      4 C           3.3980   -1.7664   20.8632 C.3     1  UNL1        0.0237
      5 C           3.8449   -1.7384   22.2948 C.3     1  UNL1        0.0201
      6 C           2.6316   -0.6874   20.1575 C.ar    1  UNL1       -0.0225
      7 C           3.2761    0.0851   19.0448 C.ar    1  UNL1       -0.0046
      8 C           2.5098    1.1642   18.3390 C.ar    1  UNL1       -0.0046
      9 C           1.0990    1.4709   18.7459 C.ar    1  UNL1       -0.0218
     10 C           0.4545    0.6985   19.8585 C.ar    1  UNL1       -0.0046
     11 C           1.2208   -0.3807   20.5643 C.ar    1  UNL1       -0.0046
     12 C           0.3325    2.5501   18.0400 C.3     1  UNL1        0.0322
     13 C          -0.6396    3.4008   18.8025 C.3     1  UNL1        0.0464
     14 C          -1.6619    4.2148   18.0662 C.2     1  UNL1        0.0507
     15 O          -2.3638    5.3438   18.7609 O.co2   1  UNL1       -0.5492
     16 O          -1.9824    3.8996   16.6351 O.co2   1  UNL1       -0.5492
     17 N           5.1926   -3.4095   23.8873 N.3     1  UNL1       -0.2962
     18 H           4.8211   -2.7710   24.5907 H       1  UNL1        0.1235
     19 C           7.3867   -2.1653   24.5102 C.3     1  UNL1        0.0220
     20 C           6.6844   -3.4060   24.0441 C.3     1  UNL1        0.0768
     21 C           7.4740   -4.6433   23.7346 C.ar    1  UNL1       -0.0080
     22 C           8.1216   -4.8033   22.3911 C.ar    1  UNL1       -0.0030
     23 C           8.9111   -6.0406   22.0817 C.ar    1  UNL1       -0.0003
     24 C           9.0530   -7.1179   23.1157 C.ar    1  UNL1       -0.0000
     25 C           8.4054   -6.9579   24.4593 C.ar    1  UNL1       -0.0003
     26 C           8.5473   -8.0352   25.4933 C.ar    1  UNL1       -0.0000
     27 C           7.8998   -7.8752   26.8368 C.ar    1  UNL1       -0.0000
     28 C           7.1102   -6.6379   27.1462 C.ar    1  UNL1       -0.0000
     29 C           6.9683   -5.5606   26.1122 C.ar    1  UNL1       -0.0003
     30 C           7.6159   -5.7206   24.7687 C.ar    1  UNL1       -0.0027
@<TRIPOS>UNITY_ATOM_ATTR
15 1
charge -1
@<TRIPOS>BOND
     1    20    19    1
     2    20    17    1
     3     1    17    1
     4     1     2    1
     5     2     3    1
     6     3     4    1
     7     4     6    1
     8     6     7   ar
     9     7     8   ar
    10     8     9   ar
    11     9    12    1
    12    12    13    1
    13    13    14    1
    14    14    15   ar
    15    14    16   ar
    16     9    10   ar
    17    10    11   ar
    18     4     5    1
    19    20    21    1
    20    21    22   ar
    21    22    23   ar
    22    23    24   ar
    23    24    25   ar
    24    25    26   ar
    25    26    27   ar
    26    27    28   ar
    27    28    29   ar
    28    29    30   ar
    29     5     1    1
    30    30    21   ar
    31    11     6   ar
    32    30    25   ar
    33    17    18    1
@<TRIPOS>MOLECULE
*****
 30 33 0 0 0
SMALL
GASTEIGER

@<TRIPOS>ATOM
      1 C           0.1500    1.9234   26.5026 C.3     1  UNL1        0.0545
      2 C           1.1677    2.9891   26.2223 C.3     1  UNL1        0.0161
      3 C           1.9058    2.6081   24.9732 C.3     1  UNL1        0.0058
      4 C           1.3443    1.3069   24.4816 C.3     1  UNL1        0.0237
      5 C           0.2591    0.8838   25.4268 C.3     1  UNL1        0.0201
      6 C           1.7897    0.5602   23.2594 C.ar    1  UNL1       -0.0225
      7 C           1.1490    0.8427   21.9329 C.ar    1  UNL1       -0.0046
      8 C           1.5943    0.0960   20.7106 C.ar    1  UNL1       -0.0046
      9 C           2.6805   -0.9333   20.8148 C.ar    1  UNL1       -0.0218
     10 C           3.3212   -1.2158   22.1414 C.ar    1  UNL1       -0.0046
     11 C           2.8758   -0.4691   23.3637 C.ar    1  UNL1       -0.0046
     12 C           3.1259   -1.6801   19.5925 C.3     1  UNL1        0.0322
     13 C           3.5906   -3.1015   19.7099 C.3     1  UNL1        0.0464
     14 C           4.5409   -3.6660   18.6959 C.2     1  UNL1        0.0507
     15 O           5.3233   -2.7453   17.8071 O.co2   1  UNL1       -0.5492
     16 O           4.7087   -5.1514   18.5708 O.co2   1  UNL1       -0.5492
     17 N          -0.8086    1.9012   27.6562 N.3     1  UNL1       -0.2962
     18 H          -0.7830    2.8294   28.0781 H       1  UNL1        0.1235
     19 C          -1.5221   -0.2792   28.8755 C.3     1  UNL1        0.0220
     20 C          -0.6194    0.9140   28.7696 C.3     1  UNL1        0.0768
     21 C           0.4726    1.1201   29.7771 C.ar    1  UNL1       -0.0080
     22 C           0.2224    1.9627   30.9925 C.ar    1  UNL1       -0.0030
     23 C           1.3144    2.1688   32.0001 C.ar    1  UNL1       -0.0003
     24 C           2.6566    1.5322   31.7922 C.ar    1  UNL1       -0.0000
     25 C           2.9068    0.6895   30.5767 C.ar    1  UNL1       -0.0003
     26 C           4.2490    0.0529   30.3689 C.ar    1  UNL1       -0.0000
     27 C           4.4992   -0.7898   29.1535 C.ar    1  UNL1       -0.0000
     28 C           3.4072   -0.9959   28.1459 C.ar    1  UNL1       -0.0000
     29 C           2.0651   -0.3593   28.3538 C.ar    1  UNL1       -0.0003
     30 C           1.8149    0.4834   29.5692 C.ar    1  UNL1       -0.0027
@<TRIPOS>UNITY_ATOM_ATTR
15 1
charge -1
@<TRIPOS>BOND
     1    20    19    1
     2    20    17    1
     3     1    17    1
     4     1     2    1
     5     2     3    1
     6     3     4    1
     7     4     6    1
     8     6     7   ar
     9     7     8   ar
    10     8     9   ar
    11     9    12    1
    12    12    13    1
    13    13    14    1
    14    14    15   ar
    15    14    16   ar
    16     9    10   ar
    17    10    11   ar
    18     4     5    1
    19    20    21    1
    20    21    22   ar
    21    22    23   ar
    22    23    24   ar
    23    24    25   ar
    24    25    26   ar
    25    26    27   ar
    26    27    28   ar
    27    28    29   ar
    28    29    30   ar
    29     5     1    1
    30    30    21   ar
    31    11     6   ar
    32    30    25   ar
    33    17    18    1
@<TRIPOS>MOLECULE
*****
 30 33 0 0 0
SMALL
GASTEIGER

@<TRIPOS>ATOM
      1 C           0.5610    1.1992   25.7181 C.3     1  UNL1        0.0545
      2 C           0.3788    1.4474   27.1862 C.3     1  UNL1        0.0161
      3 C          -0.8307    2.3168   27.3627 C.3     1  UNL1        0.0058
      4 C          -1.3961    2.6060   26.0037 C.3     1  UNL1        0.0237
      5 C          -0.5359    1.9153   24.9873 C.3     1  UNL1        0.0201
      6 C          -2.6086    3.4395   25.7124 C.ar    1  UNL1       -0.0225
      7 C          -2.9102    3.8581   24.3039 C.ar    1  UNL1       -0.0046
      8 C          -4.1227    4.6916   24.0125 C.ar    1  UNL1       -0.0046
      9 C          -5.0337    5.1066   25.1296 C.ar    1  UNL1       -0.0218
     10 C          -4.7321    4.6880   26.5381 C.ar    1  UNL1       -0.0046
     11 C          -3.5195    3.8545   26.8295 C.ar    1  UNL1       -0.0046
     12 C          -6.2463    5.9401   24.8382 C.3     1  UNL1        0.0322
     13 C          -7.4800    5.2985   24.2758 C.3     1  UNL1        0.0464
     14 C          -8.8220    5.6022   24.8730 C.2     1  UNL1        0.0507
     15 O          -8.9253    6.5088   26.0636 O.co2   1  UNL1       -0.5492
     16 O         -10.0607    4.9993   24.2796 O.co2   1  UNL1       -0.5492
     17 N           1.6491    0.3790   25.0909 N.3     1  UNL1       -0.2962
     18 H           2.3358    0.1927   25.8217 H       1  UNL1        0.1235
     19 C           3.5188    1.8982   24.1179 C.3     1  UNL1        0.0220
     20 C           2.4061    0.9136   23.9114 C.3     1  UNL1        0.0768
     21 C           2.0505    0.4637   22.5254 C.ar    1  UNL1       -0.0080
     22 C           0.9906    1.1888   21.7503 C.ar    1  UNL1       -0.0030
     23 C           0.6349    0.7388   20.3643 C.ar    1  UNL1       -0.0003
     24 C           1.3391   -0.4362   19.7533 C.ar    1  UNL1       -0.0000
     25 C           2.3991   -1.1614   20.5284 C.ar    1  UNL1       -0.0003
     26 C           3.1033   -2.3365   19.9175 C.ar    1  UNL1       -0.0000
     27 C           4.1632   -3.0616   20.6926 C.ar    1  UNL1       -0.0000
     28 C           4.5188   -2.6116   22.0786 C.ar    1  UNL1       -0.0000
     29 C           3.8146   -1.4366   22.6896 C.ar    1  UNL1       -0.0003
     30 C           2.7548   -0.7115   21.9145 C.ar    1  UNL1       -0.0027
@<TRIPOS>UNITY_ATOM_ATTR
15 1
charge -1
@<TRIPOS>BOND
     1    20    19    1
     2    20    17    1
     3     1    17    1
     4     1     2    1
     5     2     3    1
     6     3     4    1
     7     4     6    1
     8     6     7   ar
     9     7     8   ar
    10     8     9   ar
    11     9    12    1
    12    12    13    1
    13    13    14    1
    14    14    15   ar
    15    14    16   ar
    16     9    10   ar
    17    10    11   ar
    18     4     5    1
    19    20    21    1
    20    21    22   ar
    21    22    23   ar
    22    23    24   ar
    23    24    25   ar
    24    25    26   ar
    25    26    27   ar
    26    27    28   ar
    27    28    29   ar
    28    29    30   ar
    29     5     1    1
    30    30    21   ar
    31    11     6   ar
    32    30    25   ar
    33    17    18    1
@<TRIPOS>MOLECULE
*****
 30 33 0 0 0
SMALL
GASTEIGER

@<TRIPOS>ATOM
      1 C           2.5585    0.8487   19.6924 C.3     1  UNL1        0.0545
      2 C           1.2356    0.2116   19.3849 C.3     1  UNL1        0.0161
      3 C           0.3554    0.3667   20.5897 C.3     1  UNL1        0.0058
      4 C           1.1342    1.0995   21.6416 C.3     1  UNL1        0.0237
      5 C           2.4958    1.3974   21.0870 C.3     1  UNL1        0.0201
      6 C           0.6385    1.4695   23.0080 C.ar    1  UNL1       -0.0225
      7 C           1.1687    0.7565   24.2166 C.ar    1  UNL1       -0.0046
      8 C           0.6730    1.1264   25.5831 C.ar    1  UNL1       -0.0046
      9 C          -0.3529    2.2093   25.7411 C.ar    1  UNL1       -0.0218
     10 C          -0.8831    2.9222   24.5325 C.ar    1  UNL1       -0.0046
     11 C          -0.3874    2.5523   23.1660 C.ar    1  UNL1       -0.0046
     12 C          -0.8487    2.5792   27.1077 C.3     1  UNL1        0.0322
     13 C          -0.0679    2.1761   28.3233 C.3     1  UNL1        0.0464
     14 C          -0.4070    0.9057   29.0452 C.2     1  UNL1        0.0507
     15 O          -1.7894    0.3323   28.9452 O.co2   1  UNL1       -0.5492
     16 O           0.6365    0.2087   29.8670 O.co2   1  UNL1       -0.5492
     17 N           3.7370    0.9237   18.7675 N.3     1  UNL1       -0.2962
     18 H           3.3779    0.7940   17.8217 H       1  UNL1        0.1235
     19 C           6.2795    0.4103   18.6183 C.3     1  UNL1        0.0220
     20 C           4.8811   -0.0326   18.9313 C.3     1  UNL1        0.0768
     21 C           4.6265   -1.4318   19.4081 C.ar    1  UNL1       -0.0080
     22 C           4.2210   -2.4951   18.4308 C.ar    1  UNL1       -0.0030
     23 C           3.9665   -3.8943   18.9076 C.ar    1  UNL1       -0.0003
     24 C           4.1173   -4.2303   20.3616 C.ar    1  UNL1       -0.0000
     25 C           4.5228   -3.1671   21.3390 C.ar    1  UNL1       -0.0003
     26 C           4.6737   -3.5031   22.7930 C.ar    1  UNL1       -0.0000
     27 C           5.0792   -2.4399   23.7703 C.ar    1  UNL1       -0.0000
     28 C           5.3337   -1.0406   23.2935 C.ar    1  UNL1       -0.0000
     29 C           5.1828   -0.7046   21.8395 C.ar    1  UNL1       -0.0003
     30 C           4.7774   -1.7678   20.8622 C.ar    1  UNL1       -0.0027
@<TRIPOS>UNITY_ATOM_ATTR
15 1
charge -1
@<TRIPOS>BOND
     1    20    19    1
     2    20    17    1
     3     1    17    1
     4     1     2    1
     5     2     3    1
     6     3     4    1
     7     4     6    1
     8     6     7   ar
     9     7     8   ar
    10     8     9   ar
    11     9    12    1
    12    12    13    1
    13    13    14    1
    14    14    15   ar
    15    14    16   ar
    16     9    10   ar
    17    10    11   ar
    18     4     5    1
    19    20    21    1
    20    21    22   ar
    21    22    23   ar
    22    23    24   ar
    23    24    25   ar
    24    25    26   ar
    25    26    27   ar
    26    27    28   ar
    27    28    29   ar
    28    29    30   ar
    29     5     1    1
    30    30    21   ar
    31    11     6   ar
    32    30    25   ar
    33    17    18    1
@<TRIPOS>MOLECULE
*****
 30 33 0 0 0
SMALL
GASTEIGER

@<TRIPOS>ATOM
      1 C           5.3182   -2.8186   22.1023 C.3     1  UNL1        0.0545
      2 C           6.4388   -1.9386   22.5715 C.3     1  UNL1        0.0161
      3 C           5.8684   -0.9303   23.5245 C.3     1  UNL1        0.0058
      4 C           4.3954   -1.1871   23.6443 C.3     1  UNL1        0.0237
      5 C           4.0554   -2.3541   22.7653 C.3     1  UNL1        0.0201
      6 C           3.4317   -0.4129   24.4938 C.ar    1  UNL1       -0.0225
      7 C           3.6187   -0.3593   25.9811 C.ar    1  UNL1       -0.0046
      8 C           2.6550    0.4150   26.8308 C.ar    1  UNL1       -0.0046
      9 C           1.5044    1.1356   26.1931 C.ar    1  UNL1       -0.0218
     10 C           1.3174    1.0820   24.7057 C.ar    1  UNL1       -0.0046
     11 C           2.2811    0.3078   23.8561 C.ar    1  UNL1       -0.0046
     12 C           0.5407    1.9099   27.0427 C.3     1  UNL1        0.0322
     13 C          -0.9308    1.8418   26.7598 C.3     1  UNL1        0.0464
     14 C          -1.6317    3.0173   26.1458 C.2     1  UNL1        0.0507
     15 O          -1.0556    3.6837   24.9318 O.co2   1  UNL1       -0.5492
     16 O          -2.9087    3.5263   26.7459 O.co2   1  UNL1       -0.5492
     17 N           5.4392   -3.9622   21.1392 N.3     1  UNL1       -0.2962
     18 H           6.4263   -4.2172   21.1075 H       1  UNL1        0.1235
     19 C           4.3848   -4.9562   18.9828 C.3     1  UNL1        0.0220
     20 C           4.9888   -3.7967   19.7180 C.3     1  UNL1        0.0768
     21 C           5.1425   -2.4716   19.0320 C.ar    1  UNL1       -0.0080
     22 C           6.4111   -2.1488   18.2996 C.ar    1  UNL1       -0.0030
     23 C           6.5647   -0.8238   17.6136 C.ar    1  UNL1       -0.0003
     24 C           5.4498    0.1786   17.6601 C.ar    1  UNL1       -0.0000
     25 C           4.1812   -0.1441   18.3926 C.ar    1  UNL1       -0.0003
     26 C           3.0663    0.8582   18.4391 C.ar    1  UNL1       -0.0000
     27 C           1.7977    0.5355   19.1715 C.ar    1  UNL1       -0.0000
     28 C           1.6440   -0.7896   19.8574 C.ar    1  UNL1       -0.0000
     29 C           2.7589   -1.7919   19.8110 C.ar    1  UNL1       -0.0003
     30 C           4.0275   -1.4692   19.0785 C.ar    1  UNL1       -0.0027
@<TRIPOS>UNITY_ATOM_ATTR
15 1
charge -1
@<TRIPOS>BOND
     1    20    19    1
     2    20    17    1
     3     1    17    1
     4     1     2    1
     5     2     3    1
     6     3     4    1
     7     4     6    1
     8     6     7   ar
     9     7     8   ar
    10     8     9   ar
    11     9    12    1
    12    12    13    1
    13    13    14    1
    14    14    15   ar
    15    14    16   ar
    16     9    10   ar
    17    10    11   ar
    18     4     5    1
    19    20    21    1
    20    21    22   ar
    21    22    23   ar
    22    23    24   ar
    23    24    25   ar
    24    25    26   ar
    25    26    27   ar
    26    27    28   ar
    27    28    29   ar
    28    29    30   ar
    29     5     1    1
    30    30    21   ar
    31    11     6   ar
    32    30    25   ar
    33    17    18    1
@<TRIPOS>MOLECULE
*****
 30 33 0 0 0
SMALL
GASTEIGER

@<TRIPOS>ATOM
      1 C           3.3734   -1.3935   19.3935 C.3     1  UNL1        0.0545
      2 C           3.6642    0.0320   19.0280 C.3     1  UNL1        0.0161
      3 C           3.2230    0.9019   20.1677 C.3     1  UNL1        0.0058
      4 C           2.6596    0.0141   21.2374 C.3     1  UNL1        0.0237
      5 C           2.7526   -1.4045   20.7590 C.3     1  UNL1        0.0201
      6 C           2.1014    0.4656   22.5543 C.ar    1  UNL1       -0.0225
      7 C           0.8627    1.3107   22.5937 C.ar    1  UNL1       -0.0046
      8 C           0.3043    1.7623   23.9106 C.ar    1  UNL1       -0.0046
      9 C           0.9847    1.3688   25.1882 C.ar    1  UNL1       -0.0218
     10 C           2.2234    0.5238   25.1489 C.ar    1  UNL1       -0.0046
     11 C           2.7817    0.0722   23.8319 C.ar    1  UNL1       -0.0046
     12 C           0.4263    1.8204   26.5052 C.3     1  UNL1        0.0322
     13 C          -0.4158    0.8863   27.3227 C.3     1  UNL1        0.0464
     14 C           0.1267    0.3067   28.5953 C.2     1  UNL1        0.0507
     15 O           1.4354   -0.4264   28.5875 O.co2   1  UNL1       -0.5492
     16 O          -0.6394    0.4601   29.8757 O.co2   1  UNL1       -0.5492
     17 N           3.6542   -2.5966   18.5429 N.3     1  UNL1       -0.2962
     18 H           2.7986   -3.1517   18.5263 H       1  UNL1        0.1235
     19 C           4.6066   -5.0082   18.7087 C.3     1  UNL1        0.0220
     20 C           4.7692   -3.5307   18.9095 C.3     1  UNL1        0.0768
     21 C           6.0469   -2.9871   19.4770 C.ar    1  UNL1       -0.0080
     22 C           7.0944   -2.4249   18.5623 C.ar    1  UNL1       -0.0030
     23 C           8.3721   -1.8813   19.1298 C.ar    1  UNL1       -0.0003
     24 C           8.6023   -1.8999   20.6119 C.ar    1  UNL1       -0.0000
     25 C           7.5548   -2.4621   21.5266 C.ar    1  UNL1       -0.0003
     26 C           7.7850   -2.4808   23.0087 C.ar    1  UNL1       -0.0000
     27 C           6.7375   -3.0430   23.9233 C.ar    1  UNL1       -0.0000
     28 C           5.4598   -3.5866   23.3558 C.ar    1  UNL1       -0.0000
     29 C           5.2296   -3.5680   21.8738 C.ar    1  UNL1       -0.0003
     30 C           6.2771   -3.0057   20.9591 C.ar    1  UNL1       -0.0027
@<TRIPOS>UNITY_ATOM_ATTR
15 1
charge -1
@<TRIPOS>BOND
     1    20    19    1
     2    20    17    1
     3     1    17    1
     4     1     2    1
     5     2     3    1
     6     3     4    1
     7     4     6    1
     8     6     7   ar
     9     7     8   ar
    10     8     9   ar
    11     9    12    1
    12    12    13    1
    13    13    14    1
    14    14    15   ar
    15    14    16   ar
    16     9    10   ar
    17    10    11   ar
    18     4     5    1
    19    20    21    1
    20    21    22   ar
    21    22    23   ar
    22    23    24   ar
    23    24    25   ar
    24    25    26   ar
    25    26    27   ar
    26    27    28   ar
    27    28    29   ar
    28    29    30   ar
    29     5     1    1
    30    30    21   ar
    31    11     6   ar
    32    30    25   ar
    33    17    18    1
