@<TRIPOS>MOLECULE
*****
 37 41 0 0 0
SMALL
GASTEIGER

@<TRIPOS>ATOM
      1 C           1.6585    0.8477   19.6560 C.3     1  UNL1        0.0933
      2 C           0.5229    0.9030   20.6346 C.3     1  UNL1        0.0442
      3 C          -0.4928    2.0030   20.5435 C.3     1  UNL1        0.0953
      4 N          -0.3730    3.0478   19.4739 N.am    1  UNL1       -0.2794
      5 C          -1.3886    4.1478   19.3828 C.2     1  UNL1        0.2252
      6 O          -1.2688    5.1925   18.3131 O.2     1  UNL1       -0.2749
      7 C           0.7625    2.9924   18.4953 C.3     1  UNL1        0.0953
      8 C           1.7782    1.8924   18.5864 C.3     1  UNL1        0.0442
      9 N           4.2863   -1.9616   19.1391 N.ar    1  UNL1       -0.2799
     10 C           3.3508   -0.9256   18.5900 C.ar    1  UNL1        0.3315
     11 O           3.1306   -0.6171   17.1387 O.2     1  UNL1       -0.2463
     12 N           2.6742   -0.2524   19.7471 N.ar    1  UNL1       -0.2817
     13 C           3.1915   -0.8722   21.0113 C.ar    1  UNL1        0.0796
     14 C           2.8840   -0.6112   22.4560 C.ar    1  UNL1        0.0188
     15 C           3.5729   -1.4066   23.5249 C.ar    1  UNL1        0.0016
     16 C           4.5693   -2.4630   23.1492 C.ar    1  UNL1        0.0016
     17 C           4.8768   -2.7240   21.7045 C.ar    1  UNL1        0.0188
     18 C           4.1879   -1.9286   20.6355 C.ar    1  UNL1        0.0797
     19 C           5.1659   -2.8710   18.3333 C.3     1  UNL1        0.1132
     20 C           6.5978   -2.5013   18.0828 C.3     1  UNL1        0.0567
     21 C           7.0105   -1.0591   18.0790 C.3     1  UNL1        0.1442
     22 O           6.8816   -0.2454   16.8255 O.3     1  UNL1       -0.3537
     23 C           6.1293    1.9153   18.0565 C.3     1  UNL1        0.0346
     24 C           6.1041    1.0373   16.8406 C.3     1  UNL1        0.1422
     25 C          -2.5241    4.2030   20.3614 C.3     1  UNL1        0.0795
     26 C          -2.5029    5.2030   21.4792 C.3     1  UNL1        0.0264
     27 C          -3.6384    5.2582   22.4578 C.3     1  UNL1        0.0729
     28 N          -4.7951    4.3134   22.3186 N.3     1  UNL1       -0.2689
     29 C          -4.8163    3.3134   21.2007 C.3     1  UNL1        0.0729
     30 C          -3.6808    3.2582   20.2222 C.3     1  UNL1        0.0264
     31 C          -5.9306    4.3686   23.2972 C.3     1  UNL1        0.0992
     32 C          -5.6605    4.6593   24.7437 C.ar    1  UNL1       -0.0031
     33 C          -4.5977    3.8955   25.4765 C.ar    1  UNL1        0.0178
     34 C          -4.3277    4.1862   26.9231 C.ar    1  UNL1        0.0986
     35 N          -5.1205    5.2407   27.6368 N.ar    1  UNL1       -0.2423
     36 C          -6.1833    6.0045   26.9040 C.ar    1  UNL1        0.0986
     37 C          -6.4533    5.7138   25.4575 C.ar    1  UNL1        0.0178
@<TRIPOS>BOND
     1    23    24    1
     2    24    22    1
     3    22    21    1
     4    21    20    1
     5    20    19    1
     6    19     9    1
     7     9    10   ar
     8    10    11    2
     9    10    12   ar
    10    12     1    1
    11     1     2    1
    12     2     3    1
    13     3     4    1
    14     4     5   am
    15     5     6    2
    16     5    25    1
    17    25    26    1
    18    26    27    1
    19    27    28    1
    20    28    31    1
    21    31    32    1
    22    32    33   ar
    23    33    34   ar
    24    34    35   ar
    25    35    36   ar
    26    36    37   ar
    27    28    29    1
    28    29    30    1
    29     4     7    1
    30     7     8    1
    31    12    13   ar
    32    13    14   ar
    33    14    15   ar
    34    15    16   ar
    35    16    17   ar
    36    17    18   ar
    37    18     9   ar
    38     8     1    1
    39    18    13   ar
    40    30    25    1
    41    37    32   ar
@<TRIPOS>MOLECULE
*****
 37 41 0 0 0
SMALL
GASTEIGER

@<TRIPOS>ATOM
      1 C           6.5425   -3.7297   26.2558 C.3     1  UNL1        0.0933
      2 C           6.6675   -2.5956   27.2296 C.3     1  UNL1        0.0442
      3 C           6.7687   -2.8769   28.6995 C.3     1  UNL1        0.0953
      4 N           6.7450   -4.2923   29.1956 N.am    1  UNL1       -0.2794
      5 C           6.8462   -4.5736   30.6655 C.2     1  UNL1        0.2252
      6 O           6.8224   -5.9889   31.1617 O.2     1  UNL1       -0.2749
      7 C           6.6200   -5.4263   28.2218 C.3     1  UNL1        0.0953
      8 C           6.5188   -5.1450   26.7519 C.3     1  UNL1        0.0442
      9 N           5.7552   -2.5027   22.6586 N.ar    1  UNL1       -0.2799
     10 C           5.5236   -2.4532   24.1398 C.ar    1  UNL1        0.3315
     11 O           4.5459   -1.5647   24.8501 O.2     1  UNL1       -0.2463
     12 N           6.4413   -3.4484   24.7859 N.ar    1  UNL1       -0.2817
     13 C           7.2402   -4.1128   23.7040 C.ar    1  UNL1        0.0796
     14 C           8.2989   -5.1746   23.7462 C.ar    1  UNL1        0.0188
     15 C           8.9335   -5.6518   22.4737 C.ar    1  UNL1        0.0016
     16 C           8.5095   -5.0673   21.1589 C.ar    1  UNL1        0.0016
     17 C           7.4508   -4.0056   21.1167 C.ar    1  UNL1        0.0188
     18 C           6.8161   -3.5284   22.3893 C.ar    1  UNL1        0.0797
     19 C           5.0498   -1.6722   21.6277 C.3     1  UNL1        0.1132
     20 C           3.6579   -2.0313   21.1996 C.3     1  UNL1        0.0567
     21 C           3.3508   -2.2414   19.7464 C.3     1  UNL1        0.1442
     22 O           4.4608   -2.2415   18.7376 O.3     1  UNL1       -0.3537
     23 C           4.5479   -4.8371   18.8094 C.3     1  UNL1        0.0346
     24 C           5.1272   -3.5300   18.3558 C.3     1  UNL1        0.1422
     25 C           6.9711   -3.4395   31.6393 C.3     1  UNL1        0.0795
     26 C           5.7400   -2.8212   32.2326 C.3     1  UNL1        0.0264
     27 C           5.8650   -1.6870   33.2063 C.3     1  UNL1        0.0729
     28 N           7.2212   -1.1712   33.5867 N.3     1  UNL1       -0.2689
     29 C           8.4523   -1.7895   32.9934 C.3     1  UNL1        0.0729
     30 C           8.3273   -2.9236   32.0197 C.3     1  UNL1        0.0264
     31 C           7.3461   -0.0371   34.5605 C.3     1  UNL1        0.0992
     32 C           6.1233    0.5107   35.2348 C.ar    1  UNL1       -0.0031
     33 C           5.3743    1.6537   34.6165 C.ar    1  UNL1        0.0178
     34 C           4.1515    2.2015   35.2908 C.ar    1  UNL1        0.0986
     35 N           3.6778    1.6062   36.5835 N.ar    1  UNL1       -0.2423
     36 C           4.4268    0.4631   37.2019 C.ar    1  UNL1        0.0986
     37 C           5.6496   -0.0846   36.5275 C.ar    1  UNL1        0.0178
@<TRIPOS>BOND
     1    23    24    1
     2    24    22    1
     3    22    21    1
     4    21    20    1
     5    20    19    1
     6    19     9    1
     7     9    10   ar
     8    10    11    2
     9    10    12   ar
    10    12     1    1
    11     1     2    1
    12     2     3    1
    13     3     4    1
    14     4     5   am
    15     5     6    2
    16     5    25    1
    17    25    26    1
    18    26    27    1
    19    27    28    1
    20    28    31    1
    21    31    32    1
    22    32    33   ar
    23    33    34   ar
    24    34    35   ar
    25    35    36   ar
    26    36    37   ar
    27    28    29    1
    28    29    30    1
    29     4     7    1
    30     7     8    1
    31    12    13   ar
    32    13    14   ar
    33    14    15   ar
    34    15    16   ar
    35    16    17   ar
    36    17    18   ar
    37    18     9   ar
    38     8     1    1
    39    18    13   ar
    40    30    25    1
    41    37    32   ar
@<TRIPOS>MOLECULE
*****
 37 41 0 0 0
SMALL
GASTEIGER

@<TRIPOS>ATOM
      1 C           7.9854   -4.9135   23.8884 C.3     1  UNL1        0.0933
      2 C           6.7451   -4.2632   23.3508 C.3     1  UNL1        0.0442
      3 C           6.7871   -3.5379   22.0384 C.3     1  UNL1        0.0953
      4 N           8.0694   -3.4630   21.2636 N.am    1  UNL1       -0.2794
      5 C           8.1114   -2.7377   19.9513 C.2     1  UNL1        0.2252
      6 O           9.3936   -2.6627   19.1765 O.2     1  UNL1       -0.2749
      7 C           9.3096   -4.1132   21.8012 C.3     1  UNL1        0.0953
      8 C           9.2675   -4.8385   23.1136 C.3     1  UNL1        0.0442
      9 N           8.1813   -7.3595   26.8957 N.ar    1  UNL1       -0.2799
     10 C           8.4082   -7.0435   25.4470 C.ar    1  UNL1        0.3315
     11 O           8.9967   -7.9696   24.4243 O.2     1  UNL1       -0.2463
     12 N           7.9434   -5.6388   25.2007 N.ar    1  UNL1       -0.2817
     13 C           7.4292   -5.0866   26.4971 C.ar    1  UNL1        0.0796
     14 C           6.8460   -3.7529   26.8590 C.ar    1  UNL1        0.0188
     15 C           6.4099   -3.4826   28.2685 C.ar    1  UNL1        0.0016
     16 C           6.5570   -4.5461   29.3161 C.ar    1  UNL1        0.0016
     17 C           7.1401   -5.8798   28.9542 C.ar    1  UNL1        0.0188
     18 C           7.5762   -6.1501   27.5447 C.ar    1  UNL1        0.0797
     19 C           8.5029   -8.6571   27.5760 C.3     1  UNL1        0.1132
     20 C           7.4839   -9.7570   27.6135 C.3     1  UNL1        0.0567
     21 C           7.8967  -11.1495   27.9887 C.3     1  UNL1        0.1442
     22 O           6.9801  -12.3039   27.7109 O.3     1  UNL1       -0.3537
     23 C           4.9394  -12.2217   29.3167 C.3     1  UNL1        0.0346
     24 C           5.5031  -12.1581   27.9281 C.3     1  UNL1        0.1422
     25 C           6.8711   -2.0874   19.4138 C.3     1  UNL1        0.0795
     26 C           5.8818   -2.8948   18.6268 C.3     1  UNL1        0.0264
     27 C           4.6415   -2.2444   18.0893 C.3     1  UNL1        0.0729
     28 N           4.3906   -0.7867   18.3389 N.3     1  UNL1       -0.2689
     29 C           5.3799    0.0206   19.1259 C.3     1  UNL1        0.0729
     30 C           6.6202   -0.6297   19.6634 C.3     1  UNL1        0.0264
     31 C           3.1504   -0.1365   17.8014 C.3     1  UNL1        0.0992
     32 C           2.0526    0.2739   18.7376 C.ar    1  UNL1       -0.0031
     33 C           1.3650    1.5944   18.5543 C.ar    1  UNL1        0.0178
     34 C           0.2673    2.0048   19.4905 C.ar    1  UNL1        0.0986
     35 N          -0.1428    1.0947   20.6102 N.ar    1  UNL1       -0.2423
     36 C           0.5448   -0.2257   20.7935 C.ar    1  UNL1        0.0986
     37 C           1.6425   -0.6361   19.8573 C.ar    1  UNL1        0.0178
@<TRIPOS>BOND
     1    23    24    1
     2    24    22    1
     3    22    21    1
     4    21    20    1
     5    20    19    1
     6    19     9    1
     7     9    10   ar
     8    10    11    2
     9    10    12   ar
    10    12     1    1
    11     1     2    1
    12     2     3    1
    13     3     4    1
    14     4     5   am
    15     5     6    2
    16     5    25    1
    17    25    26    1
    18    26    27    1
    19    27    28    1
    20    28    31    1
    21    31    32    1
    22    32    33   ar
    23    33    34   ar
    24    34    35   ar
    25    35    36   ar
    26    36    37   ar
    27    28    29    1
    28    29    30    1
    29     4     7    1
    30     7     8    1
    31    12    13   ar
    32    13    14   ar
    33    14    15   ar
    34    15    16   ar
    35    16    17   ar
    36    17    18   ar
    37    18     9   ar
    38     8     1    1
    39    18    13   ar
    40    30    25    1
    41    37    32   ar
@<TRIPOS>MOLECULE
*****
 37 41 0 0 0
SMALL
GASTEIGER

@<TRIPOS>ATOM
      1 C           6.4780   -2.9384   26.5130 C.3     1  UNL1        0.0933
      2 C           5.6273   -2.1655   25.5491 C.3     1  UNL1        0.0442
      3 C           5.6839   -2.4763   24.0828 C.3     1  UNL1        0.0953
      4 N           6.5913   -3.5598   23.5802 N.am    1  UNL1       -0.2794
      5 C           6.6480   -3.8706   22.1139 C.2     1  UNL1        0.2252
      6 O           7.5553   -4.9541   21.6113 O.2     1  UNL1       -0.2749
      7 C           7.4420   -4.3327   24.5441 C.3     1  UNL1        0.0953
      8 C           7.3853   -4.0220   26.0105 C.3     1  UNL1        0.0442
      9 N           6.1980   -1.4292   30.0780 N.ar    1  UNL1       -0.2799
     10 C           6.1677   -1.2794   28.5858 C.ar    1  UNL1        0.3315
     11 O           5.9261   -0.0051   27.8323 O.2     1  UNL1       -0.2463
     12 N           6.4214   -2.6277   27.9794 N.ar    1  UNL1       -0.2817
     13 C           6.6084   -3.6108   29.0968 C.ar    1  UNL1        0.0796
     14 C           6.8867   -5.0847   29.1008 C.ar    1  UNL1        0.0188
     15 C           7.0268   -5.8179   30.4019 C.ar    1  UNL1        0.0016
     16 C           6.8888   -5.0772   31.6989 C.ar    1  UNL1        0.0016
     17 C           6.6105   -3.6032   31.6949 C.ar    1  UNL1        0.0188
     18 C           6.4704   -2.8700   30.3938 C.ar    1  UNL1        0.0797
     19 C           5.9920   -0.3309   31.0787 C.3     1  UNL1        0.1132
     20 C           4.6580    0.3464   31.1850 C.3     1  UNL1        0.0567
     21 C           3.7173   -0.0194   32.2946 C.3     1  UNL1        0.1442
     22 O           3.6379   -1.4388   32.7732 O.3     1  UNL1       -0.3537
     23 C           5.0559   -0.8150   34.8589 C.3     1  UNL1        0.0346
     24 C           4.2988   -1.8343   34.0604 C.3     1  UNL1        0.1422
     25 C           5.7972   -3.0977   21.1501 C.3     1  UNL1        0.0795
     26 C           6.2744   -1.7783   20.6196 C.3     1  UNL1        0.0264
     27 C           5.4236   -1.0054   19.6557 C.3     1  UNL1        0.0729
     28 N           4.0956   -1.5520   19.2225 N.3     1  UNL1       -0.2689
     29 C           3.6184   -2.8714   19.7531 C.3     1  UNL1        0.0729
     30 C           4.4692   -3.6442   20.7168 C.3     1  UNL1        0.0264
     31 C           3.2449   -0.7791   18.2588 C.3     1  UNL1        0.0992
     32 C           2.2664    0.2366   18.7696 C.ar    1  UNL1       -0.0031
     33 C           2.3990    1.6751   18.3658 C.ar    1  UNL1        0.0178
     34 C           1.4206    2.6908   18.8767 C.ar    1  UNL1        0.0986
     35 N           0.3094    2.2679   19.7913 N.ar    1  UNL1       -0.2423
     36 C           0.1768    0.8294   20.1951 C.ar    1  UNL1        0.0986
     37 C           1.1553   -0.1863   19.6843 C.ar    1  UNL1        0.0178
@<TRIPOS>BOND
     1    23    24    1
     2    24    22    1
     3    22    21    1
     4    21    20    1
     5    20    19    1
     6    19     9    1
     7     9    10   ar
     8    10    11    2
     9    10    12   ar
    10    12     1    1
    11     1     2    1
    12     2     3    1
    13     3     4    1
    14     4     5   am
    15     5     6    2
    16     5    25    1
    17    25    26    1
    18    26    27    1
    19    27    28    1
    20    28    31    1
    21    31    32    1
    22    32    33   ar
    23    33    34   ar
    24    34    35   ar
    25    35    36   ar
    26    36    37   ar
    27    28    29    1
    28    29    30    1
    29     4     7    1
    30     7     8    1
    31    12    13   ar
    32    13    14   ar
    33    14    15   ar
    34    15    16   ar
    35    16    17   ar
    36    17    18   ar
    37    18     9   ar
    38     8     1    1
    39    18    13   ar
    40    30    25    1
    41    37    32   ar
@<TRIPOS>MOLECULE
*****
 37 41 0 0 0
SMALL
GASTEIGER

@<TRIPOS>ATOM
      1 C           6.4764   -3.0198   26.8153 C.3     1  UNL1        0.0933
      2 C           5.6299   -2.2762   25.8249 C.3     1  UNL1        0.0442
      3 C           5.7337   -2.5928   24.3624 C.3     1  UNL1        0.0953
      4 N           6.6840   -3.6530   23.8901 N.am    1  UNL1       -0.2794
      5 C           6.7878   -3.9696   22.4276 C.2     1  UNL1        0.2252
      6 O           7.7381   -5.0297   21.9554 O.2     1  UNL1       -0.2749
      7 C           7.5304   -4.3965   24.8804 C.3     1  UNL1        0.0953
      8 C           7.4266   -4.0799   26.3429 C.3     1  UNL1        0.0442
      9 N           6.0464   -1.5039   30.3624 N.ar    1  UNL1       -0.2799
     10 C           6.0423   -1.3647   28.8689 C.ar    1  UNL1        0.3315
     11 O           5.7579   -0.1078   28.1012 O.2     1  UNL1       -0.2463
     12 N           6.3726   -2.7032   28.2778 N.ar    1  UNL1       -0.2817
     13 C           6.5808   -3.6696   29.4060 C.ar    1  UNL1        0.0796
     14 C           6.9279   -5.1287   29.4266 C.ar    1  UNL1        0.0188
     15 C           7.0734   -5.8465   30.7356 C.ar    1  UNL1        0.0016
     16 C           6.8718   -5.1053   32.0239 C.ar    1  UNL1        0.0016
     17 C           6.5247   -3.6462   32.0033 C.ar    1  UNL1        0.0188
     18 C           6.3792   -2.9283   30.6944 C.ar    1  UNL1        0.0797
     19 C           5.7668   -0.4105   31.3505 C.3     1  UNL1        0.1132
     20 C           4.6286   -0.5468   32.3179 C.3     1  UNL1        0.0567
     21 C           3.2673   -0.0346   31.9513 C.3     1  UNL1        0.1442
     22 O           2.3834   -0.8373   31.0433 O.3     1  UNL1       -0.3537
     23 C           2.4306    0.8163   29.0399 C.3     1  UNL1        0.0346
     24 C           2.4044   -0.5889   29.5642 C.3     1  UNL1        0.1422
     25 C           5.9413   -3.2260   21.4374 C.3     1  UNL1        0.0795
     26 C           4.6896   -3.8537   20.8999 C.3     1  UNL1        0.0264
     27 C           3.8431   -3.1100   19.9096 C.3     1  UNL1        0.0729
     28 N           4.2484   -1.7386   19.4570 N.3     1  UNL1       -0.2689
     29 C           5.5002   -1.1108   19.9945 C.3     1  UNL1        0.0729
     30 C           6.3466   -1.8545   20.9847 C.3     1  UNL1        0.0264
     31 C           3.4019   -0.9950   18.4668 C.3     1  UNL1        0.0992
     32 C           2.3036   -0.0932   18.9468 C.ar    1  UNL1       -0.0031
     33 C           2.1274    1.2651   18.3353 C.ar    1  UNL1        0.0178
     34 C           1.0291    2.1670   18.8152 C.ar    1  UNL1        0.0986
     35 N           0.1070    1.7105   19.9066 N.ar    1  UNL1       -0.2423
     36 C           0.2832    0.3522   20.5181 C.ar    1  UNL1        0.0986
     37 C           1.3815   -0.5497   20.0382 C.ar    1  UNL1        0.0178
@<TRIPOS>BOND
     1    23    24    1
     2    24    22    1
     3    22    21    1
     4    21    20    1
     5    20    19    1
     6    19     9    1
     7     9    10   ar
     8    10    11    2
     9    10    12   ar
    10    12     1    1
    11     1     2    1
    12     2     3    1
    13     3     4    1
    14     4     5   am
    15     5     6    2
    16     5    25    1
    17    25    26    1
    18    26    27    1
    19    27    28    1
    20    28    31    1
    21    31    32    1
    22    32    33   ar
    23    33    34   ar
    24    34    35   ar
    25    35    36   ar
    26    36    37   ar
    27    28    29    1
    28    29    30    1
    29     4     7    1
    30     7     8    1
    31    12    13   ar
    32    13    14   ar
    33    14    15   ar
    34    15    16   ar
    35    16    17   ar
    36    17    18   ar
    37    18     9   ar
    38     8     1    1
    39    18    13   ar
    40    30    25    1
    41    37    32   ar
@<TRIPOS>MOLECULE
*****
 37 41 0 0 0
SMALL
GASTEIGER

@<TRIPOS>ATOM
      1 C           8.1308   -3.9762   24.4578 C.3     1  UNL1        0.0933
      2 C           6.8963   -3.3370   23.8942 C.3     1  UNL1        0.0442
      3 C           6.8590   -2.9185   22.4542 C.3     1  UNL1        0.0953
      4 N           8.0562   -3.1392   21.5778 N.am    1  UNL1       -0.2794
      5 C           8.0190   -2.7207   20.1379 C.2     1  UNL1        0.2252
      6 O           9.2162   -2.9414   19.2615 O.2     1  UNL1       -0.2749
      7 C           9.2906   -3.7784   22.1414 C.3     1  UNL1        0.0953
      8 C           9.3278   -4.1969   23.5814 C.3     1  UNL1        0.0442
      9 N           8.1858   -4.3198   28.3235 N.ar    1  UNL1       -0.2799
     10 C           8.1260   -3.4774   27.0839 C.ar    1  UNL1        0.3315
     11 O           8.0395   -1.9806   27.0383 O.2     1  UNL1       -0.2463
     12 N           8.1680   -4.3947   25.8978 N.ar    1  UNL1       -0.2817
     13 C           8.2537   -5.8040   26.4044 C.ar    1  UNL1        0.0796
     14 C           8.3231   -7.1233   25.6942 C.ar    1  UNL1        0.0188
     15 C           8.4036   -8.3964   26.4833 C.ar    1  UNL1        0.0016
     16 C           8.4146   -8.3501   27.9826 C.ar    1  UNL1        0.0016
     17 C           8.3452   -7.0308   28.6927 C.ar    1  UNL1        0.0188
     18 C           8.2647   -5.7577   27.9036 C.ar    1  UNL1        0.0797
     19 C           8.1695   -3.8133   29.7353 C.3     1  UNL1        0.1132
     20 C           6.9133   -3.9028   30.5499 C.3     1  UNL1        0.0567
     21 C           6.9183   -3.4709   31.9864 C.3     1  UNL1        0.1442
     22 O           5.6567   -3.5399   32.7948 O.3     1  UNL1       -0.3537
     23 C           4.3461   -1.6358   33.9808 C.3     1  UNL1        0.0346
     24 C           4.6677   -2.4135   32.7391 C.3     1  UNL1        0.1422
     25 C           6.7846   -2.0815   19.5744 C.3     1  UNL1        0.0795
     26 C           6.5336   -0.6181   19.7876 C.3     1  UNL1        0.0264
     27 C           5.2990    0.0210   19.2240 C.3     1  UNL1        0.0729
     28 N           4.3156   -0.8032   18.4472 N.3     1  UNL1       -0.2689
     29 C           4.5666   -2.2666   18.2340 C.3     1  UNL1        0.0729
     30 C           5.8010   -2.9057   18.7975 C.3     1  UNL1        0.0264
     31 C           3.0811   -0.1641   17.8837 C.3     1  UNL1        0.0992
     32 C           1.9827    0.2841   18.8017 C.ar    1  UNL1       -0.0031
     33 C           1.3228    1.6141   18.5883 C.ar    1  UNL1        0.0178
     34 C           0.2244    2.0622   19.5063 C.ar    1  UNL1        0.0986
     35 N          -0.2141    1.1803   20.6376 N.ar    1  UNL1       -0.2423
     36 C           0.4459   -0.1497   20.8510 C.ar    1  UNL1        0.0986
     37 C           1.5443   -0.5978   19.9331 C.ar    1  UNL1        0.0178
@<TRIPOS>BOND
     1    23    24    1
     2    24    22    1
     3    22    21    1
     4    21    20    1
     5    20    19    1
     6    19     9    1
     7     9    10   ar
     8    10    11    2
     9    10    12   ar
    10    12     1    1
    11     1     2    1
    12     2     3    1
    13     3     4    1
    14     4     5   am
    15     5     6    2
    16     5    25    1
    17    25    26    1
    18    26    27    1
    19    27    28    1
    20    28    31    1
    21    31    32    1
    22    32    33   ar
    23    33    34   ar
    24    34    35   ar
    25    35    36   ar
    26    36    37   ar
    27    28    29    1
    28    29    30    1
    29     4     7    1
    30     7     8    1
    31    12    13   ar
    32    13    14   ar
    33    14    15   ar
    34    15    16   ar
    35    16    17   ar
    36    17    18   ar
    37    18     9   ar
    38     8     1    1
    39    18    13   ar
    40    30    25    1
    41    37    32   ar
@<TRIPOS>MOLECULE
*****
 37 41 0 0 0
SMALL
GASTEIGER

@<TRIPOS>ATOM
      1 C           6.3751   -3.7013   26.1724 C.3     1  UNL1        0.0933
      2 C           6.5507   -2.5875   27.1618 C.3     1  UNL1        0.0442
      3 C           6.7346   -2.8995   28.6175 C.3     1  UNL1        0.0953
      4 N           6.7429   -4.3251   29.0837 N.am    1  UNL1       -0.2794
      5 C           6.9268   -4.6371   30.5394 C.2     1  UNL1        0.2252
      6 O           6.9352   -6.0628   31.0056 O.2     1  UNL1       -0.2749
      7 C           6.5674   -5.4388   28.0943 C.3     1  UNL1        0.0953
      8 C           6.3835   -5.1268   26.6387 C.3     1  UNL1        0.0442
      9 N           6.4776   -3.3666   22.3068 N.ar    1  UNL1       -0.2799
     10 C           7.0046   -3.9461   23.5861 C.ar    1  UNL1        0.3315
     11 O           8.1446   -4.9127   23.7126 O.2     1  UNL1       -0.2463
     12 N           6.1912   -3.3893   24.7168 N.ar    1  UNL1       -0.2817
     13 C           5.1616   -2.4657   24.1363 C.ar    1  UNL1        0.0796
     14 C           4.0858   -1.6357   24.7715 C.ar    1  UNL1        0.0188
     15 C           3.1870   -0.7916   23.9173 C.ar    1  UNL1        0.0016
     16 C           3.3640   -0.7776   22.4279 C.ar    1  UNL1        0.0016
     17 C           4.4399   -1.6077   21.7926 C.ar    1  UNL1        0.0188
     18 C           5.3386   -2.4517   22.6468 C.ar    1  UNL1        0.0797
     19 C           6.9983   -3.6520   20.9293 C.3     1  UNL1        0.1132
     20 C           7.4324   -2.5227   20.0427 C.3     1  UNL1        0.0567
     21 C           6.8175   -2.3562   18.6847 C.3     1  UNL1        0.1442
     22 O           5.7615   -3.3135   18.2171 O.3     1  UNL1       -0.3537
     23 C           3.5157   -4.1594   19.2124 C.3     1  UNL1        0.0346
     24 C           4.3229   -3.0725   18.5666 C.3     1  UNL1        0.1422
     25 C           7.1024   -3.5234   31.5286 C.3     1  UNL1        0.0795
     26 C           8.4785   -3.1243   31.9723 C.3     1  UNL1        0.0264
     27 C           8.6540   -2.0104   32.9617 C.3     1  UNL1        0.0729
     28 N           7.4533   -1.2958   33.5073 N.3     1  UNL1       -0.2689
     29 C           6.0772   -1.6950   33.0636 C.3     1  UNL1        0.0729
     30 C           5.9017   -2.8087   32.0743 C.3     1  UNL1        0.0264
     31 C           7.6288   -0.1821   34.4966 C.3     1  UNL1        0.0992
     32 C           6.4305    0.4210   35.1675 C.ar    1  UNL1       -0.0031
     33 C           5.8199    1.6785   34.6234 C.ar    1  UNL1        0.0178
     34 C           4.6215    2.2816   35.2943 C.ar    1  UNL1        0.0986
     35 N           4.0337    1.6273   36.5094 N.ar    1  UNL1       -0.2423
     36 C           4.6443    0.3698   37.0535 C.ar    1  UNL1        0.0986
     37 C           5.8427   -0.2333   36.3826 C.ar    1  UNL1        0.0178
@<TRIPOS>BOND
     1    23    24    1
     2    24    22    1
     3    22    21    1
     4    21    20    1
     5    20    19    1
     6    19     9    1
     7     9    10   ar
     8    10    11    2
     9    10    12   ar
    10    12     1    1
    11     1     2    1
    12     2     3    1
    13     3     4    1
    14     4     5   am
    15     5     6    2
    16     5    25    1
    17    25    26    1
    18    26    27    1
    19    27    28    1
    20    28    31    1
    21    31    32    1
    22    32    33   ar
    23    33    34   ar
    24    34    35   ar
    25    35    36   ar
    26    36    37   ar
    27    28    29    1
    28    29    30    1
    29     4     7    1
    30     7     8    1
    31    12    13   ar
    32    13    14   ar
    33    14    15   ar
    34    15    16   ar
    35    16    17   ar
    36    17    18   ar
    37    18     9   ar
    38     8     1    1
    39    18    13   ar
    40    30    25    1
    41    37    32   ar
@<TRIPOS>MOLECULE
*****
 37 41 0 0 0
SMALL
GASTEIGER

@<TRIPOS>ATOM
      1 C           5.8785   -2.4389   27.1461 C.3     1  UNL1        0.0933
      2 C           6.5073   -2.3527   28.5053 C.3     1  UNL1        0.0442
      3 C           5.7826   -1.6659   29.6247 C.3     1  UNL1        0.0953
      4 N           4.4292   -1.0653   29.3850 N.am    1  UNL1       -0.2794
      5 C           3.7045   -0.3784   30.5044 C.2     1  UNL1        0.2252
      6 O           2.3510    0.2222   30.2647 O.2     1  UNL1       -0.2749
      7 C           3.8004   -1.1514   28.0259 C.3     1  UNL1        0.0953
      8 C           4.5251   -1.8382   26.9064 C.3     1  UNL1        0.0442
      9 N           7.7880   -3.5269   23.9468 N.ar    1  UNL1       -0.2799
     10 C           7.1418   -2.4684   24.7906 C.ar    1  UNL1        0.3315
     11 O           7.0503   -1.0088   24.4570 O.2     1  UNL1       -0.2463
     12 N           6.6032   -3.1257   26.0266 N.ar    1  UNL1       -0.2817
     13 C           6.9165   -4.5905   25.9468 C.ar    1  UNL1        0.0796
     14 C           6.6296   -5.7305   26.8784 C.ar    1  UNL1        0.0188
     15 C           7.0749   -7.1184   26.5247 C.ar    1  UNL1        0.0016
     16 C           7.8072   -7.3664   25.2393 C.ar    1  UNL1        0.0016
     17 C           8.0941   -6.2264   24.3076 C.ar    1  UNL1        0.0188
     18 C           7.6487   -4.8384   24.6614 C.ar    1  UNL1        0.0797
     19 C           8.4562   -3.3117   22.6212 C.3     1  UNL1        0.1132
     20 C           7.8132   -3.8216   21.3657 C.3     1  UNL1        0.0567
     21 C           6.4276   -3.3789   20.9994 C.3     1  UNL1        0.1442
     22 O           5.2560   -4.2726   21.2800 O.3     1  UNL1       -0.3537
     23 C           4.2370   -4.8584   18.9630 C.3     1  UNL1        0.0346
     24 C           4.0849   -4.2904   20.3429 C.3     1  UNL1        0.1422
     25 C           4.3332   -0.2923   31.8635 C.3     1  UNL1        0.0795
     26 C           5.1649    0.9007   32.2310 C.3     1  UNL1        0.0264
     27 C           5.7937    0.9868   33.5902 C.3     1  UNL1        0.0729
     28 N           5.5908   -0.1202   34.5818 N.3     1  UNL1       -0.2689
     29 C           4.7591   -1.3133   34.2144 C.3     1  UNL1        0.0729
     30 C           4.1304   -1.3993   32.8553 C.3     1  UNL1        0.0264
     31 C           6.2196   -0.0341   35.9409 C.3     1  UNL1        0.0992
     32 C           5.5343    0.7259   37.0376 C.ar    1  UNL1       -0.0031
     33 C           6.3138    1.6889   37.8832 C.ar    1  UNL1        0.0178
     34 C           5.6285    2.4489   38.9799 C.ar    1  UNL1        0.0986
     35 N           4.1637    2.2458   39.2310 N.ar    1  UNL1       -0.2423
     36 C           3.3842    1.2828   38.3855 C.ar    1  UNL1        0.0986
     37 C           4.0695    0.5228   37.2888 C.ar    1  UNL1        0.0178
@<TRIPOS>BOND
     1    23    24    1
     2    24    22    1
     3    22    21    1
     4    21    20    1
     5    20    19    1
     6    19     9    1
     7     9    10   ar
     8    10    11    2
     9    10    12   ar
    10    12     1    1
    11     1     2    1
    12     2     3    1
    13     3     4    1
    14     4     5   am
    15     5     6    2
    16     5    25    1
    17    25    26    1
    18    26    27    1
    19    27    28    1
    20    28    31    1
    21    31    32    1
    22    32    33   ar
    23    33    34   ar
    24    34    35   ar
    25    35    36   ar
    26    36    37   ar
    27    28    29    1
    28    29    30    1
    29     4     7    1
    30     7     8    1
    31    12    13   ar
    32    13    14   ar
    33    14    15   ar
    34    15    16   ar
    35    16    17   ar
    36    17    18   ar
    37    18     9   ar
    38     8     1    1
    39    18    13   ar
    40    30    25    1
    41    37    32   ar
@<TRIPOS>MOLECULE
*****
 37 41 0 0 0
SMALL
GASTEIGER

@<TRIPOS>ATOM
      1 C           4.9255   -1.1303   32.3186 C.3     1  UNL1        0.0933
      2 C           5.1958   -1.0782   30.8439 C.3     1  UNL1        0.0442
      3 C           5.8562   -2.2391   30.1610 C.3     1  UNL1        0.0953
      4 N           6.2463   -3.4519   30.9527 N.am    1  UNL1       -0.2794
      5 C           6.9067   -4.6128   30.2698 C.2     1  UNL1        0.2252
      6 O           7.2968   -5.8257   31.0614 O.2     1  UNL1       -0.2749
      7 C           5.9760   -3.5040   32.4272 C.3     1  UNL1        0.0953
      8 C           5.3156   -2.3431   33.1101 C.3     1  UNL1        0.0442
      9 N           3.7272    1.7514   34.6262 N.ar    1  UNL1       -0.2799
     10 C           4.6509    0.6069   34.3315 C.ar    1  UNL1        0.3315
     11 O           5.7648    0.1235   35.2122 O.2     1  UNL1       -0.2463
     12 N           4.2651    0.0306   33.0014 N.ar    1  UNL1       -0.2817
     13 C           3.1030    0.8189   32.4741 C.ar    1  UNL1        0.0796
     14 C           2.3046    0.7057   31.2093 C.ar    1  UNL1        0.0188
     15 C           1.1738    1.6561   30.9487 C.ar    1  UNL1        0.0016
     16 C           0.8413    2.7196   31.9529 C.ar    1  UNL1        0.0016
     17 C           1.6397    2.8328   33.2177 C.ar    1  UNL1        0.0188
     18 C           2.7706    1.8824   33.4783 C.ar    1  UNL1        0.0797
     19 C           3.7552    2.6135   35.8534 C.3     1  UNL1        0.1132
     20 C           2.9896    2.2029   37.0761 C.3     1  UNL1        0.0567
     21 C           3.5115    1.1045   37.9542 C.3     1  UNL1        0.1442
     22 O           2.8739    0.8423   39.2864 O.3     1  UNL1       -0.3537
     23 C           0.4577    1.7657   39.5301 C.3     1  UNL1        0.0346
     24 C           1.3955    0.6051   39.3766 C.3     1  UNL1        0.1422
     25 C           7.1769   -4.5607   28.7953 C.3     1  UNL1        0.0795
     26 C           6.5030   -5.5341   27.8743 C.3     1  UNL1        0.0264
     27 C           6.7733   -5.4819   26.3997 C.3     1  UNL1        0.0729
     28 N           7.7175   -4.4562   25.8462 N.3     1  UNL1       -0.2689
     29 C           8.3914   -3.4828   26.7671 C.3     1  UNL1        0.0729
     30 C           8.1211   -3.5350   28.2416 C.3     1  UNL1        0.0264
     31 C           7.9877   -4.4041   24.3717 C.3     1  UNL1        0.0992
     32 C           6.9275   -3.9118   23.4317 C.ar    1  UNL1       -0.0031
     33 C           5.6747   -3.2899   23.9737 C.ar    1  UNL1        0.0178
     34 C           4.6144   -2.7976   23.0338 C.ar    1  UNL1        0.0986
     35 N           4.8069   -2.9272   21.5519 N.ar    1  UNL1       -0.2423
     36 C           6.0598   -3.5490   21.0099 C.ar    1  UNL1        0.0986
     37 C           7.1200   -4.0413   21.9498 C.ar    1  UNL1        0.0178
@<TRIPOS>BOND
     1    23    24    1
     2    24    22    1
     3    22    21    1
     4    21    20    1
     5    20    19    1
     6    19     9    1
     7     9    10   ar
     8    10    11    2
     9    10    12   ar
    10    12     1    1
    11     1     2    1
    12     2     3    1
    13     3     4    1
    14     4     5   am
    15     5     6    2
    16     5    25    1
    17    25    26    1
    18    26    27    1
    19    27    28    1
    20    28    31    1
    21    31    32    1
    22    32    33   ar
    23    33    34   ar
    24    34    35   ar
    25    35    36   ar
    26    36    37   ar
    27    28    29    1
    28    29    30    1
    29     4     7    1
    30     7     8    1
    31    12    13   ar
    32    13    14   ar
    33    14    15   ar
    34    15    16   ar
    35    16    17   ar
    36    17    18   ar
    37    18     9   ar
    38     8     1    1
    39    18    13   ar
    40    30    25    1
    41    37    32   ar
