@<TRIPOS>MOLECULE
*****
 26 28 0 0 0
SMALL
GASTEIGER

@<TRIPOS>ATOM
      1 C         -10.1927  -18.9717   25.3621 C.3     1  UNL1        0.1152
      2 N          -9.4109  -18.2903   24.2784 N.am    1  UNL1       -0.2740
      3 C          -8.8158  -19.0968   23.1624 C.2     1  UNL1        0.2303
      4 O          -9.0026  -20.5848   23.1302 O.2     1  UNL1       -0.2745
      5 C          -8.0340  -18.4154   22.0787 C.3     1  UNL1        0.1116
      6 C          -6.6063  -18.8011   21.8281 C.ar    1  UNL1       -0.0122
      7 C          -6.2775  -19.8153   20.7729 C.ar    1  UNL1       -0.0029
      8 C          -4.8498  -20.2010   20.5223 C.ar    1  UNL1        0.0119
      9 C          -3.7508  -19.5725   21.3269 C.ar    1  UNL1        0.0682
     10 CL         -2.3231  -19.9582   21.0762 Cl      1  UNL1       -0.0814
     11 C          -4.0796  -18.5583   22.3820 C.ar    1  UNL1        0.0679
     12 CL         -2.9806  -17.9298   23.1865 Cl      1  UNL1       -0.0814
     13 C          -5.5073  -18.1727   22.6326 C.ar    1  UNL1        0.0085
     14 C          -9.2242  -16.8023   24.3107 C.3     1  UNL1        0.1138
     15 C          -8.0526  -16.2090   25.0354 C.ar    1  UNL1       -0.0029
     16 C          -8.0684  -16.1101   26.5320 C.ar    1  UNL1       -0.0026
     17 C          -6.8968  -15.5167   27.2569 C.ar    1  UNL1       -0.0003
     18 C          -5.7094  -15.0223   26.4851 C.ar    1  UNL1       -0.0000
     19 C          -5.6937  -15.1213   24.9884 C.ar    1  UNL1       -0.0003
     20 C          -6.8652  -15.7146   24.2636 C.ar    1  UNL1       -0.0026
     21 C         -10.2091  -15.9076   23.6181 C.3     1  UNL1        0.0967
     22 N         -11.0539  -16.4448   22.5011 N.3     1  UNL1       -0.2710
     23 C         -10.8178  -16.2304   21.0354 C.3     1  UNL1        0.0722
     24 C         -11.9011  -16.9438   20.2821 C.3     1  UNL1        0.0188
     25 C         -12.8067  -17.5993   21.2822 C.3     1  UNL1        0.0188
     26 C         -12.2831  -17.2909   22.6536 C.3     1  UNL1        0.0722
@<TRIPOS>BOND
     1     1     2    1
     2     2     3   am
     3     3     4    2
     4     3     5    1
     5     5     6    1
     6     6     7   ar
     7     7     8   ar
     8     8     9   ar
     9     9    10    1
    10     9    11   ar
    11    11    12    1
    12    11    13   ar
    13     2    14    1
    14    14    21    1
    15    21    22    1
    16    22    23    1
    17    23    24    1
    18    24    25    1
    19    25    26    1
    20    14    15    1
    21    15    16   ar
    22    16    17   ar
    23    17    18   ar
    24    18    19   ar
    25    19    20   ar
    26    13     6   ar
    27    26    22    1
    28    20    15   ar
@<TRIPOS>MOLECULE
*****
 26 28 0 0 0
SMALL
GASTEIGER

@<TRIPOS>ATOM
      1 C         -11.4153  -15.7758   20.0289 C.3     1  UNL1        0.1152
      2 N         -10.3984  -16.4951   20.8645 N.am    1  UNL1       -0.2740
      3 C          -9.1159  -15.8124   21.2378 C.2     1  UNL1        0.2303
      4 O          -8.8505  -14.4103   20.7754 O.2     1  UNL1       -0.2745
      5 C          -8.0989  -16.5317   22.0735 C.3     1  UNL1        0.1116
      6 C          -7.8948  -16.1413   23.5074 C.ar    1  UNL1       -0.0122
      7 C          -9.0748  -16.0079   24.4236 C.ar    1  UNL1       -0.0029
      8 C          -8.8706  -15.6175   25.8575 C.ar    1  UNL1        0.0119
      9 C          -7.4864  -15.3606   26.3750 C.ar    1  UNL1        0.0682
     10 CL         -7.2822  -14.9702   27.8089 Cl      1  UNL1       -0.0814
     11 C          -6.3063  -15.4940   25.4587 C.ar    1  UNL1        0.0679
     12 CL         -4.9221  -15.2370   25.9762 Cl      1  UNL1       -0.0814
     13 C          -6.5105  -15.8843   24.0249 C.ar    1  UNL1        0.0085
     14 C         -10.6638  -17.8971   21.3270 C.3     1  UNL1        0.1138
     15 C         -11.5179  -18.1391   22.5360 C.ar    1  UNL1       -0.0029
     16 C         -10.9489  -18.8546   23.7252 C.ar    1  UNL1       -0.0026
     17 C         -11.8030  -19.0966   24.9344 C.ar    1  UNL1       -0.0003
     18 C         -13.2261  -18.6230   24.9542 C.ar    1  UNL1       -0.0000
     19 C         -13.7952  -17.9075   23.7650 C.ar    1  UNL1       -0.0003
     20 C         -12.9410  -17.6655   22.5559 C.ar    1  UNL1       -0.0026
     21 C         -10.0750  -19.0573   20.5802 C.3     1  UNL1        0.0967
     22 N          -8.6428  -19.4435   20.8029 N.3     1  UNL1       -0.2710
     23 C          -7.5695  -19.4912   19.7561 C.3     1  UNL1        0.0722
     24 C          -6.2958  -19.9269   20.4177 C.3     1  UNL1        0.0188
     25 C          -6.5818  -20.1486   21.8734 C.3     1  UNL1        0.0188
     26 C          -8.0324  -19.8498   22.1114 C.3     1  UNL1        0.0722
@<TRIPOS>BOND
     1     1     2    1
     2     2     3   am
     3     3     4    2
     4     3     5    1
     5     5     6    1
     6     6     7   ar
     7     7     8   ar
     8     8     9   ar
     9     9    10    1
    10     9    11   ar
    11    11    12    1
    12    11    13   ar
    13     2    14    1
    14    14    21    1
    15    21    22    1
    16    22    23    1
    17    23    24    1
    18    24    25    1
    19    25    26    1
    20    14    15    1
    21    15    16   ar
    22    16    17   ar
    23    17    18   ar
    24    18    19   ar
    25    19    20   ar
    26    13     6   ar
    27    26    22    1
    28    20    15   ar
@<TRIPOS>MOLECULE
*****
 26 28 0 0 0
SMALL
GASTEIGER

@<TRIPOS>ATOM
      1 C          -9.1236  -19.0031   21.5332 C.3     1  UNL1        0.1152
      2 N          -7.9975  -18.2547   22.1827 N.am    1  UNL1       -0.2740
      3 C          -6.6760  -18.9298   22.4016 C.2     1  UNL1        0.2303
      4 O          -6.4806  -20.3534   21.9710 O.2     1  UNL1       -0.2745
      5 C          -5.5500  -18.1815   23.0511 C.3     1  UNL1        0.1116
      6 C          -4.2928  -17.9021   22.2819 C.ar    1  UNL1       -0.0122
      7 C          -3.3051  -16.8981   22.7981 C.ar    1  UNL1       -0.0029
      8 C          -2.0481  -16.6188   22.0289 C.ar    1  UNL1        0.0119
      9 C          -1.7788  -17.3434   20.7434 C.ar    1  UNL1        0.0682
     10 CL         -0.5217  -17.0639   19.9742 Cl      1  UNL1       -0.0814
     11 C          -2.7665  -18.3473   20.2272 C.ar    1  UNL1        0.0679
     12 CL         -2.4971  -19.0719   18.9417 Cl      1  UNL1       -0.0814
     13 C          -4.0235  -18.6266   20.9964 C.ar    1  UNL1        0.0085
     14 C          -8.1929  -16.8312   22.6133 C.3     1  UNL1        0.1138
     15 C          -7.8580  -16.4193   24.0162 C.ar    1  UNL1       -0.0029
     16 C          -8.7554  -16.8189   25.1497 C.ar    1  UNL1       -0.0026
     17 C          -8.4205  -16.4070   26.5526 C.ar    1  UNL1       -0.0003
     18 C          -7.1881  -15.5955   26.8220 C.ar    1  UNL1       -0.0000
     19 C          -6.2906  -15.1958   25.6885 C.ar    1  UNL1       -0.0003
     20 C          -6.6256  -15.6077   24.2856 C.ar    1  UNL1       -0.0026
     21 C          -8.7233  -15.8196   21.6410 C.3     1  UNL1        0.0967
     22 N         -10.1338  -15.9267   21.1419 N.3     1  UNL1       -0.2710
     23 C         -10.5914  -15.6861   19.7338 C.3     1  UNL1        0.0722
     24 C         -12.0747  -15.9040   19.6849 C.3     1  UNL1        0.0188
     25 C         -12.5338  -16.2793   21.0627 C.3     1  UNL1        0.0188
     26 C         -11.3342  -16.2934   21.9631 C.3     1  UNL1        0.0722
@<TRIPOS>BOND
     1     1     2    1
     2     2     3   am
     3     3     4    2
     4     3     5    1
     5     5     6    1
     6     6     7   ar
     7     7     8   ar
     8     8     9   ar
     9     9    10    1
    10     9    11   ar
    11    11    12    1
    12    11    13   ar
    13     2    14    1
    14    14    21    1
    15    21    22    1
    16    22    23    1
    17    23    24    1
    18    24    25    1
    19    25    26    1
    20    14    15    1
    21    15    16   ar
    22    16    17   ar
    23    17    18   ar
    24    18    19   ar
    25    19    20   ar
    26    13     6   ar
    27    26    22    1
    28    20    15   ar
@<TRIPOS>MOLECULE
*****
 26 28 0 0 0
SMALL
GASTEIGER

@<TRIPOS>ATOM
      1 C          -5.0055  -18.5907   23.1555 C.3     1  UNL1        0.1152
      2 N          -6.1575  -17.9590   22.4318 N.am    1  UNL1       -0.2740
      3 C          -6.6695  -16.6168   22.8639 C.2     1  UNL1        0.2303
      4 O          -6.0294  -15.9064   24.0196 O.2     1  UNL1       -0.2745
      5 C          -7.8215  -15.9850   22.1402 C.3     1  UNL1        0.1116
      6 C          -9.2281  -16.3820   22.4782 C.ar    1  UNL1       -0.0122
      7 C          -9.5415  -16.9565   23.8279 C.ar    1  UNL1       -0.0029
      8 C         -10.9479  -17.3534   24.1658 C.ar    1  UNL1        0.0119
      9 C         -12.0410  -17.1757   23.1541 C.ar    1  UNL1        0.0682
     10 CL        -13.4476  -17.5726   23.4921 Cl      1  UNL1       -0.0814
     11 C         -11.7276  -16.6011   21.8044 C.ar    1  UNL1        0.0679
     12 CL        -12.8207  -16.4235   20.7927 Cl      1  UNL1       -0.0814
     13 C         -10.3211  -16.2043   21.4665 C.ar    1  UNL1        0.0085
     14 C          -6.7977  -18.6693   21.2761 C.3     1  UNL1        0.1138
     15 C          -8.1782  -19.2387   21.4173 C.ar    1  UNL1       -0.0029
     16 C          -9.1299  -19.1941   20.2588 C.ar    1  UNL1       -0.0026
     17 C         -10.5105  -19.7636   20.4000 C.ar    1  UNL1       -0.0003
     18 C         -10.9392  -20.3776   21.6997 C.ar    1  UNL1       -0.0000
     19 C          -9.9874  -20.4221   22.8582 C.ar    1  UNL1       -0.0003
     20 C          -8.6069  -19.8527   22.7170 C.ar    1  UNL1       -0.0026
     21 C          -6.0572  -18.8102   19.9792 C.3     1  UNL1        0.0967
     22 N          -4.5670  -18.9809   19.9811 N.3     1  UNL1       -0.2710
     23 C          -3.8139  -20.1484   20.5466 C.3     1  UNL1        0.0722
     24 C          -2.3496  -19.9031   20.3329 C.3     1  UNL1        0.0188
     25 C          -2.1977  -18.5839   19.6352 C.3     1  UNL1        0.0188
     26 C          -3.5681  -18.0140   19.4178 C.3     1  UNL1        0.0722
@<TRIPOS>BOND
     1     1     2    1
     2     2     3   am
     3     3     4    2
     4     3     5    1
     5     5     6    1
     6     6     7   ar
     7     7     8   ar
     8     8     9   ar
     9     9    10    1
    10     9    11   ar
    11    11    12    1
    12    11    13   ar
    13     2    14    1
    14    14    21    1
    15    21    22    1
    16    22    23    1
    17    23    24    1
    18    24    25    1
    19    25    26    1
    20    14    15    1
    21    15    16   ar
    22    16    17   ar
    23    17    18   ar
    24    18    19   ar
    25    19    20   ar
    26    13     6   ar
    27    26    22    1
    28    20    15   ar
@<TRIPOS>MOLECULE
*****
 26 28 0 0 0
SMALL
GASTEIGER

@<TRIPOS>ATOM
      1 C         -11.3250  -16.7294   19.9829 C.3     1  UNL1        0.1152
      2 N         -10.1400  -17.1758   20.7868 N.am    1  UNL1       -0.2740
      3 C          -9.1127  -16.1755   21.2274 C.2     1  UNL1        0.2303
      4 O          -9.2705  -14.7288   20.8639 O.2     1  UNL1       -0.2745
      5 C          -7.9276  -16.6219   22.0313 C.3     1  UNL1        0.1116
      6 C          -7.8274  -16.2603   23.4837 C.ar    1  UNL1       -0.0122
      7 C          -9.0284  -16.3886   24.3731 C.ar    1  UNL1       -0.0029
      8 C          -8.9281  -16.0270   25.8254 C.ar    1  UNL1        0.0119
      9 C          -7.6268  -15.5373   26.3883 C.ar    1  UNL1        0.0682
     10 CL         -7.5266  -15.1758   27.8406 Cl      1  UNL1       -0.0814
     11 C          -6.4259  -15.4090   25.4988 C.ar    1  UNL1        0.0679
     12 CL         -5.1246  -14.9193   26.0617 Cl      1  UNL1       -0.0814
     13 C          -6.5261  -15.7706   24.0465 C.ar    1  UNL1        0.0085
     14 C          -9.9822  -18.6226   21.1503 C.3     1  UNL1        0.1138
     15 C          -8.6360  -19.2772   21.0552 C.ar    1  UNL1       -0.0029
     16 C          -7.9670  -19.4261   19.7209 C.ar    1  UNL1       -0.0026
     17 C          -6.6208  -20.0808   19.6257 C.ar    1  UNL1       -0.0003
     18 C          -5.9435  -20.5866   20.8649 C.ar    1  UNL1       -0.0000
     19 C          -6.6125  -20.4377   22.1992 C.ar    1  UNL1       -0.0003
     20 C          -7.9587  -19.7830   22.2943 C.ar    1  UNL1       -0.0026
     21 C         -11.1707  -19.4146   21.6088 C.3     1  UNL1        0.0967
     22 N         -11.9971  -18.9273   22.7619 N.3     1  UNL1       -0.2710
     23 C         -11.7034  -19.1541   24.2153 C.3     1  UNL1        0.0722
     24 C         -12.7871  -18.4946   25.0157 C.3     1  UNL1        0.0188
     25 C         -13.7506  -17.8602   24.0570 C.3     1  UNL1        0.0188
     26 C         -13.2624  -18.1276   22.6641 C.3     1  UNL1        0.0722
@<TRIPOS>BOND
     1     1     2    1
     2     2     3   am
     3     3     4    2
     4     3     5    1
     5     5     6    1
     6     6     7   ar
     7     7     8   ar
     8     8     9   ar
     9     9    10    1
    10     9    11   ar
    11    11    12    1
    12    11    13   ar
    13     2    14    1
    14    14    21    1
    15    21    22    1
    16    22    23    1
    17    23    24    1
    18    24    25    1
    19    25    26    1
    20    14    15    1
    21    15    16   ar
    22    16    17   ar
    23    17    18   ar
    24    18    19   ar
    25    19    20   ar
    26    13     6   ar
    27    26    22    1
    28    20    15   ar
@<TRIPOS>MOLECULE
*****
 26 28 0 0 0
SMALL
GASTEIGER

@<TRIPOS>ATOM
      1 C          -3.6349  -17.6016   25.3005 C.3     1  UNL1        0.1152
      2 N          -4.4617  -17.4093   24.0639 N.am    1  UNL1       -0.2740
      3 C          -5.5118  -16.3389   24.0227 C.2     1  UNL1        0.2303
      4 O          -5.7349  -15.4607   25.2182 O.2     1  UNL1       -0.2745
      5 C          -6.3387  -16.1466   22.7861 C.3     1  UNL1        0.1116
      6 C          -7.8233  -16.3550   22.8367 C.ar    1  UNL1       -0.0122
      7 C          -8.4584  -16.9307   24.0676 C.ar    1  UNL1       -0.0029
      8 C          -9.9429  -17.1390   24.1181 C.ar    1  UNL1        0.0119
      9 C         -10.7924  -16.7717   22.9377 C.ar    1  UNL1        0.0682
     10 CL        -12.2771  -16.9801   22.9882 Cl      1  UNL1       -0.0814
     11 C         -10.1574  -16.1960   21.7067 C.ar    1  UNL1        0.0679
     12 CL        -11.0069  -15.8286   20.5263 Cl      1  UNL1       -0.0814
     13 C          -8.6728  -15.9876   21.6562 C.ar    1  UNL1        0.0085
     14 C          -4.2386  -18.2874   22.8685 C.3     1  UNL1        0.1138
     15 C          -3.1813  -17.9338   21.8650 C.ar    1  UNL1       -0.0029
     16 C          -2.4018  -16.6610   22.0139 C.ar    1  UNL1       -0.0026
     17 C          -1.3444  -16.3074   21.0104 C.ar    1  UNL1       -0.0003
     18 C          -1.0665  -17.2266   19.8581 C.ar    1  UNL1       -0.0000
     19 C          -1.8461  -18.4995   19.7093 C.ar    1  UNL1       -0.0003
     20 C          -2.9035  -18.8531   20.7127 C.ar    1  UNL1       -0.0026
     21 C          -5.0729  -19.5192   22.6765 C.3     1  UNL1        0.0967
     22 N          -6.3200  -19.4583   21.8451 N.3     1  UNL1       -0.2710
     23 C          -6.4004  -19.0454   20.4053 C.3     1  UNL1        0.0722
     24 C          -7.8356  -19.1315   19.9778 C.3     1  UNL1        0.0188
     25 C          -8.6422  -19.5976   21.1534 C.3     1  UNL1        0.0188
     26 C          -7.7055  -19.7996   22.3074 C.3     1  UNL1        0.0722
@<TRIPOS>BOND
     1     1     2    1
     2     2     3   am
     3     3     4    2
     4     3     5    1
     5     5     6    1
     6     6     7   ar
     7     7     8   ar
     8     8     9   ar
     9     9    10    1
    10     9    11   ar
    11    11    12    1
    12    11    13   ar
    13     2    14    1
    14    14    21    1
    15    21    22    1
    16    22    23    1
    17    23    24    1
    18    24    25    1
    19    25    26    1
    20    14    15    1
    21    15    16   ar
    22    16    17   ar
    23    17    18   ar
    24    18    19   ar
    25    19    20   ar
    26    13     6   ar
    27    26    22    1
    28    20    15   ar
@<TRIPOS>MOLECULE
*****
 26 28 0 0 0
SMALL
GASTEIGER

@<TRIPOS>ATOM
      1 C         -11.3819  -15.9023   19.6914 C.3     1  UNL1        0.1152
      2 N         -10.3871  -16.6494   20.5293 N.am    1  UNL1       -0.2740
      3 C          -9.2368  -15.9195   21.1570 C.2     1  UNL1        0.2303
      4 O          -9.0814  -14.4424   20.9469 O.2     1  UNL1       -0.2745
      5 C          -8.2420  -16.6666   21.9949 C.3     1  UNL1        0.1116
      6 C          -7.9906  -16.2473   23.4131 C.ar    1  UNL1       -0.0122
      7 C          -9.1354  -16.1335   24.3756 C.ar    1  UNL1       -0.0029
      8 C          -8.8840  -15.7143   25.7937 C.ar    1  UNL1        0.0119
      9 C          -7.4878  -15.4089   26.2492 C.ar    1  UNL1        0.0682
     10 CL         -7.2365  -14.9896   27.6674 Cl      1  UNL1       -0.0814
     11 C          -6.3431  -15.5227   25.2867 C.ar    1  UNL1        0.0679
     12 CL         -4.9469  -15.2173   25.7422 Cl      1  UNL1       -0.0814
     13 C          -6.5945  -15.9419   23.8686 C.ar    1  UNL1        0.0085
     14 C         -10.5425  -18.1264   20.7394 C.3     1  UNL1        0.1138
     15 C          -9.7362  -19.0896   19.9195 C.ar    1  UNL1       -0.0029
     16 C          -8.2961  -19.3391   20.2570 C.ar    1  UNL1       -0.0026
     17 C          -7.4897  -20.3023   19.4371 C.ar    1  UNL1       -0.0003
     18 C          -8.1235  -21.0159   18.2799 C.ar    1  UNL1       -0.0000
     19 C          -9.5636  -20.7663   17.9425 C.ar    1  UNL1       -0.0003
     20 C         -10.3699  -19.8031   18.7623 C.ar    1  UNL1       -0.0026
     21 C         -11.5044  -18.6404   21.7694 C.3     1  UNL1        0.0967
     22 N         -10.9942  -19.1417   23.0879 N.3     1  UNL1       -0.2710
     23 C         -11.4054  -18.6408   24.4406 C.3     1  UNL1        0.0722
     24 C         -10.6486  -19.4215   25.4739 C.3     1  UNL1        0.0188
     25 C          -9.7696  -20.4050   24.7597 C.3     1  UNL1        0.0188
     26 C          -9.9832  -20.2321   23.2851 C.3     1  UNL1        0.0722
@<TRIPOS>BOND
     1     1     2    1
     2     2     3   am
     3     3     4    2
     4     3     5    1
     5     5     6    1
     6     6     7   ar
     7     7     8   ar
     8     8     9   ar
     9     9    10    1
    10     9    11   ar
    11    11    12    1
    12    11    13   ar
    13     2    14    1
    14    14    21    1
    15    21    22    1
    16    22    23    1
    17    23    24    1
    18    24    25    1
    19    25    26    1
    20    14    15    1
    21    15    16   ar
    22    16    17   ar
    23    17    18   ar
    24    18    19   ar
    25    19    20   ar
    26    13     6   ar
    27    26    22    1
    28    20    15   ar
@<TRIPOS>MOLECULE
*****
 26 28 0 0 0
SMALL
GASTEIGER

@<TRIPOS>ATOM
      1 C         -11.0747  -16.5151   20.2203 C.3     1  UNL1        0.1152
      2 N          -9.8153  -16.9643   20.9001 N.am    1  UNL1       -0.2740
      3 C          -8.8009  -15.9524   21.3442 C.2     1  UNL1        0.2303
      4 O          -9.0458  -14.4915   21.1085 O.2     1  UNL1       -0.2745
      5 C          -7.5415  -16.4016   22.0241 C.3     1  UNL1        0.1116
      6 C          -7.3367  -16.1228   23.4837 C.ar    1  UNL1       -0.0122
      7 C          -6.1828  -15.2750   23.9306 C.ar    1  UNL1       -0.0029
      8 C          -5.9781  -14.9962   25.3901 C.ar    1  UNL1        0.0119
      9 C          -6.9271  -15.5653   26.4028 C.ar    1  UNL1        0.0682
     10 CL         -6.7223  -15.2865   27.8624 Cl      1  UNL1       -0.0814
     11 C          -8.0810  -16.4131   25.9559 C.ar    1  UNL1        0.0679
     12 CL         -9.0301  -16.9822   26.9685 Cl      1  UNL1       -0.0814
     13 C          -8.2858  -16.6919   24.4963 C.ar    1  UNL1        0.0085
     14 C          -9.5704  -18.4252   21.1359 C.3     1  UNL1        0.1138
     15 C          -9.8945  -19.0347   22.4676 C.ar    1  UNL1       -0.0029
     16 C         -11.0793  -18.5466   23.2473 C.ar    1  UNL1       -0.0026
     17 C         -11.4034  -19.1561   24.5791 C.ar    1  UNL1       -0.0003
     18 C         -10.5428  -20.2536   25.1310 C.ar    1  UNL1       -0.0000
     19 C          -9.3580  -20.7417   24.3512 C.ar    1  UNL1       -0.0003
     20 C          -9.0339  -20.1323   23.0195 C.ar    1  UNL1       -0.0026
     21 C          -9.0013  -19.2767   20.0399 C.3     1  UNL1        0.0967
     22 N          -7.5647  -19.7053   20.0923 N.3     1  UNL1       -0.2710
     23 C          -7.0597  -21.1128   19.9754 C.3     1  UNL1        0.0722
     24 C          -5.5639  -21.0790   20.0817 C.3     1  UNL1        0.0188
     25 C          -5.1444  -19.6504   20.2642 C.3     1  UNL1        0.0188
     26 C          -6.3810  -18.8015   20.2708 C.3     1  UNL1        0.0722
@<TRIPOS>BOND
     1     1     2    1
     2     2     3   am
     3     3     4    2
     4     3     5    1
     5     5     6    1
     6     6     7   ar
     7     7     8   ar
     8     8     9   ar
     9     9    10    1
    10     9    11   ar
    11    11    12    1
    12    11    13   ar
    13     2    14    1
    14    14    21    1
    15    21    22    1
    16    22    23    1
    17    23    24    1
    18    24    25    1
    19    25    26    1
    20    14    15    1
    21    15    16   ar
    22    16    17   ar
    23    17    18   ar
    24    18    19   ar
    25    19    20   ar
    26    13     6   ar
    27    26    22    1
    28    20    15   ar
@<TRIPOS>MOLECULE
*****
 26 28 0 0 0
SMALL
GASTEIGER

@<TRIPOS>ATOM
      1 C         -10.9827  -15.9237   20.6718 C.3     1  UNL1        0.1152
      2 N          -9.9362  -16.6106   21.4982 N.am    1  UNL1       -0.2740
      3 C          -8.5878  -15.9782   21.6778 C.2     1  UNL1        0.2303
      4 O          -8.2861  -14.6589   21.0309 O.2     1  UNL1       -0.2745
      5 C          -7.5413  -16.6650   22.5042 C.3     1  UNL1        0.1116
      6 C          -7.2855  -16.2180   23.9131 C.ar    1  UNL1       -0.0122
      7 C          -6.0628  -15.4103   24.2333 C.ar    1  UNL1       -0.0029
      8 C          -5.8070  -14.9633   25.6421 C.ar    1  UNL1        0.0119
      9 C          -6.7739  -15.3242   26.7307 C.ar    1  UNL1        0.0682
     10 CL         -6.5180  -14.8772   28.1395 Cl      1  UNL1       -0.0814
     11 C          -7.9965  -16.1319   26.4104 C.ar    1  UNL1        0.0679
     12 CL         -8.9634  -16.4927   27.4990 Cl      1  UNL1       -0.0814
     13 C          -8.2523  -16.5789   25.0016 C.ar    1  UNL1        0.0085
     14 C         -10.2379  -17.9299   22.1451 C.3     1  UNL1        0.1138
     15 C         -11.4321  -18.0697   23.0419 C.ar    1  UNL1       -0.0029
     16 C         -12.7749  -17.5826   22.5842 C.ar    1  UNL1       -0.0026
     17 C         -13.9692  -17.7225   23.4809 C.ar    1  UNL1       -0.0003
     18 C         -13.8206  -18.3495   24.8355 C.ar    1  UNL1       -0.0000
     19 C         -12.4777  -18.8367   25.2932 C.ar    1  UNL1       -0.0003
     20 C         -11.2835  -18.6968   24.3965 C.ar    1  UNL1       -0.0026
     21 C          -9.3453  -19.1093   21.8952 C.3     1  UNL1        0.0967
     22 N          -9.0646  -19.5529   20.4901 N.3     1  UNL1       -0.2710
     23 C          -7.7082  -19.7848   19.8931 C.3     1  UNL1        0.0722
     24 C          -7.8962  -20.2177   18.4693 C.3     1  UNL1        0.0188
     25 C          -9.3688  -20.2535   18.1863 C.3     1  UNL1        0.0188
     26 C         -10.0909  -19.8427   19.4353 C.3     1  UNL1        0.0722
@<TRIPOS>BOND
     1     1     2    1
     2     2     3   am
     3     3     4    2
     4     3     5    1
     5     5     6    1
     6     6     7   ar
     7     7     8   ar
     8     8     9   ar
     9     9    10    1
    10     9    11   ar
    11    11    12    1
    12    11    13   ar
    13     2    14    1
    14    14    21    1
    15    21    22    1
    16    22    23    1
    17    23    24    1
    18    24    25    1
    19    25    26    1
    20    14    15    1
    21    15    16   ar
    22    16    17   ar
    23    17    18   ar
    24    18    19   ar
    25    19    20   ar
    26    13     6   ar
    27    26    22    1
    28    20    15   ar
