@<TRIPOS>MOLECULE
*****
 30 34 0 0 0
SMALL
GASTEIGER

@<TRIPOS>ATOM
      1 N         -15.8448   -3.0882   20.3141 N.pl3   1  UNL1       -0.2927
      2 H         -16.1479   -2.5315   21.0675 H       1  UNL1        0.1541
      3 C         -14.6023   -2.7176   19.5600 C.ar    1  UNL1        0.1629
      4 N         -13.4469   -3.6269   19.2631 N.ar    1  UNL1       -0.2284
      5 C         -12.4275   -2.8439   18.4899 C.ar    1  UNL1        0.0666
      6 C         -12.9529   -1.4507   18.3089 C.ar    1  UNL1        0.0237
      7 S         -14.2970   -1.3726   18.9702 S.2     1  UNL1       -0.0561
      8 C         -12.1396   -0.4331   17.5653 C.3     1  UNL1        0.0343
      9 C         -10.8009   -0.8088   17.0027 C.3     1  UNL1        0.0060
     10 C         -10.2755   -2.2020   17.1836 C.3     1  UNL1        0.0107
     11 C         -11.0888   -3.2196   17.9273 C.3     1  UNL1        0.0627
     12 C         -10.5634   -4.6129   18.1083 C.ar    1  UNL1       -0.0169
     13 C          -9.6211   -4.9187   19.2346 C.ar    1  UNL1       -0.0039
     14 C          -9.0957   -6.3119   19.4156 C.ar    1  UNL1       -0.0003
     15 C          -9.5125   -7.3994   18.4702 C.ar    1  UNL1       -0.0000
     16 C         -10.4547   -7.0936   17.3439 C.ar    1  UNL1       -0.0003
     17 C         -10.9802   -5.7003   17.1629 C.ar    1  UNL1       -0.0039
     18 C         -18.1874   -6.7444   19.1333 C.ar    1  UNL1        0.0359
     19 C         -16.7177   -6.8533   19.4129 C.ar    1  UNL1        0.0043
     20 C         -15.9368   -5.6345   19.8065 C.ar    1  UNL1        0.0148
     21 C         -16.6257   -4.3069   19.9205 C.ar    1  UNL1        0.0497
     22 C         -18.0954   -4.1981   19.6409 C.ar    1  UNL1        0.0148
     23 C         -18.8762   -5.4168   19.2473 C.ar    1  UNL1        0.0043
     24 C         -20.1671  -10.7463   16.3143 C.3     1  UNL1        0.0950
     25 C         -19.8783   -9.8026   17.4439 C.ar    1  UNL1        0.2059
     26 N         -20.4616   -9.8746   18.8240 N.ar    1  UNL1       -0.2165
     27 C         -19.8992   -8.7377   19.6248 C.ar    1  UNL1        0.0965
     28 C         -20.2127   -8.4295   21.0590 C.3     1  UNL1        0.0555
     29 C         -18.9683   -7.9632   18.7396 C.ar    1  UNL1        0.1602
     30 O         -18.9554   -8.6213   17.3918 O.2     1  UNL1       -0.4387
@<TRIPOS>BOND
     1    24    25    1
     2    25    26   ar
     3    26    27   ar
     4    27    28    1
     5    27    29   ar
     6    29    18    1
     7    18    19   ar
     8    19    20   ar
     9    20    21   ar
    10    21     1    1
    11     1     3    1
    12     3     4   ar
    13     4     5   ar
    14     5     6   ar
    15     6     7   ar
    16     6     8    1
    17     8     9    1
    18     9    10    1
    19    10    11    1
    20    11    12    1
    21    12    13   ar
    22    13    14   ar
    23    14    15   ar
    24    15    16   ar
    25    16    17   ar
    26    21    22   ar
    27    22    23   ar
    28    29    30   ar
    29    30    25   ar
    30    23    18   ar
    31     7     3   ar
    32    17    12   ar
    33    11     5    1
    34     1     2    1
@<TRIPOS>MOLECULE
*****
 30 34 0 0 0
SMALL
GASTEIGER

@<TRIPOS>ATOM
      1 N         -13.2210   -1.0629   17.5328 N.pl3   1  UNL1       -0.2927
      2 H         -12.9475   -0.5699   16.7258 H       1  UNL1        0.1541
      3 C         -12.5421   -2.3518   17.8904 C.ar    1  UNL1        0.1629
      4 N         -13.2016   -3.6944   18.0019 N.ar    1  UNL1       -0.2284
      5 C         -12.1515   -4.6967   18.3797 C.ar    1  UNL1        0.0666
      6 C         -10.8430   -3.9736   18.5017 C.ar    1  UNL1        0.0237
      7 S         -11.0844   -2.5244   18.1992 S.2     1  UNL1       -0.0561
      8 C          -9.6008   -4.7282   18.8723 C.3     1  UNL1        0.0343
      9 C          -9.6671   -6.2059   19.1210 C.3     1  UNL1        0.0060
     10 C         -10.9756   -6.9290   18.9991 C.3     1  UNL1        0.0107
     11 C         -12.2178   -6.1745   18.6284 C.3     1  UNL1        0.0627
     12 C         -13.5263   -6.8976   18.5065 C.ar    1  UNL1       -0.0169
     13 C         -13.6793   -8.0085   17.5104 C.ar    1  UNL1       -0.0039
     14 C         -14.9878   -8.7317   17.3884 C.ar    1  UNL1       -0.0003
     15 C         -16.1433   -8.3439   18.2626 C.ar    1  UNL1       -0.0000
     16 C         -15.9903   -7.2330   19.2588 C.ar    1  UNL1       -0.0003
     17 C         -14.6818   -6.5098   19.3807 C.ar    1  UNL1       -0.0039
     18 C         -16.5083    0.5498   20.1487 C.ar    1  UNL1        0.0359
     19 C         -15.6332    1.4925   19.3770 C.ar    1  UNL1        0.0043
     20 C         -14.5375    0.9549   18.5050 C.ar    1  UNL1        0.0148
     21 C         -14.3168   -0.5254   18.4047 C.ar    1  UNL1        0.0497
     22 C         -15.1919   -1.4681   19.1765 C.ar    1  UNL1        0.0148
     23 C         -16.2876   -0.9305   20.0485 C.ar    1  UNL1        0.0043
     24 C         -19.0816    2.7078   24.2232 C.3     1  UNL1        0.0950
     25 C         -18.7869    2.0793   22.8936 C.ar    1  UNL1        0.2059
     26 N         -19.7937    1.7498   21.8315 N.ar    1  UNL1       -0.2165
     27 C         -19.0626    1.1367   20.6740 C.ar    1  UNL1        0.0965
     28 C         -19.6815    0.6573   19.3945 C.3     1  UNL1        0.0555
     29 C         -17.6041    1.0874   21.0207 C.ar    1  UNL1        0.1602
     30 O         -17.4337    1.6699   22.3924 O.2     1  UNL1       -0.4387
@<TRIPOS>BOND
     1    24    25    1
     2    25    26   ar
     3    26    27   ar
     4    27    28    1
     5    27    29   ar
     6    29    18    1
     7    18    19   ar
     8    19    20   ar
     9    20    21   ar
    10    21     1    1
    11     1     3    1
    12     3     4   ar
    13     4     5   ar
    14     5     6   ar
    15     6     7   ar
    16     6     8    1
    17     8     9    1
    18     9    10    1
    19    10    11    1
    20    11    12    1
    21    12    13   ar
    22    13    14   ar
    23    14    15   ar
    24    15    16   ar
    25    16    17   ar
    26    21    22   ar
    27    22    23   ar
    28    29    30   ar
    29    30    25   ar
    30    23    18   ar
    31     7     3   ar
    32    17    12   ar
    33    11     5    1
    34     1     2    1
@<TRIPOS>MOLECULE
*****
 30 34 0 0 0
SMALL
GASTEIGER

@<TRIPOS>ATOM
      1 N           0.0130    3.2277   21.0921 N.pl3   1  UNL1       -0.2927
      2 H           0.1499    3.9648   20.4540 H       1  UNL1        0.1541
      3 C          -0.9965    3.3663   22.1928 C.ar    1  UNL1        0.1629
      4 N          -0.7267    3.2163   23.6607 N.ar    1  UNL1       -0.2284
      5 C          -2.0166    3.4365   24.3940 C.ar    1  UNL1        0.0666
      6 C          -3.0836    3.7225   23.3793 C.ar    1  UNL1        0.0237
      7 S          -2.4532    3.6791   22.0189 S.2     1  UNL1       -0.0561
      8 C          -4.4914    3.9855   23.8252 C.3     1  UNL1        0.0343
      9 C          -4.8322    3.9625   25.2858 C.3     1  UNL1        0.0060
     10 C          -3.7651    3.6765   26.3005 C.3     1  UNL1        0.0107
     11 C          -2.3573    3.4134   25.8546 C.3     1  UNL1        0.0627
     12 C          -1.2903    3.1274   26.8692 C.ar    1  UNL1       -0.0169
     13 C          -0.9641    1.7098   27.2354 C.ar    1  UNL1       -0.0039
     14 C           0.1029    1.4238   28.2500 C.ar    1  UNL1       -0.0003
     15 C           0.8438    2.5553   28.8986 C.ar    1  UNL1       -0.0000
     16 C           0.5177    3.9729   28.5325 C.ar    1  UNL1       -0.0003
     17 C          -0.5494    4.2589   27.5178 C.ar    1  UNL1       -0.0039
     18 C           2.4163   -0.5572   20.7065 C.ar    1  UNL1        0.0359
     19 C           0.9629   -0.5506   20.3355 C.ar    1  UNL1        0.0043
     20 C           0.1618    0.7111   20.4640 C.ar    1  UNL1        0.0148
     21 C           0.8141    1.9661   20.9635 C.ar    1  UNL1        0.0497
     22 C           2.2675    1.9594   21.3345 C.ar    1  UNL1        0.0148
     23 C           3.0686    0.6978   21.2060 C.ar    1  UNL1        0.0043
     24 C           4.6586   -4.9006   18.7095 C.3     1  UNL1        0.0950
     25 C           4.2481   -3.8153   19.6601 C.ar    1  UNL1        0.2059
     26 N           4.6523   -3.7054   21.1004 N.ar    1  UNL1       -0.2165
     27 C           4.0152   -2.4714   21.6677 C.ar    1  UNL1        0.0965
     28 C           4.1521   -1.9770   23.0773 C.3     1  UNL1        0.0555
     29 C           3.2174   -1.8189   20.5779 C.ar    1  UNL1        0.1602
     30 O           3.3613   -2.6494   19.3372 O.2     1  UNL1       -0.4387
@<TRIPOS>BOND
     1    24    25    1
     2    25    26   ar
     3    26    27   ar
     4    27    28    1
     5    27    29   ar
     6    29    18    1
     7    18    19   ar
     8    19    20   ar
     9    20    21   ar
    10    21     1    1
    11     1     3    1
    12     3     4   ar
    13     4     5   ar
    14     5     6   ar
    15     6     7   ar
    16     6     8    1
    17     8     9    1
    18     9    10    1
    19    10    11    1
    20    11    12    1
    21    12    13   ar
    22    13    14   ar
    23    14    15   ar
    24    15    16   ar
    25    16    17   ar
    26    21    22   ar
    27    22    23   ar
    28    29    30   ar
    29    30    25   ar
    30    23    18   ar
    31     7     3   ar
    32    17    12   ar
    33    11     5    1
    34     1     2    1
@<TRIPOS>MOLECULE
*****
 30 34 0 0 0
SMALL
GASTEIGER

@<TRIPOS>ATOM
      1 N           0.5663    3.7879   19.9105 N.pl3   1  UNL1       -0.2927
      2 H           0.8507    4.6650   19.5655 H       1  UNL1        0.1541
      3 C          -0.6729    3.6775   20.7483 C.ar    1  UNL1        0.1629
      4 N          -0.7302    3.7132   22.2468 N.ar    1  UNL1       -0.2284
      5 C          -2.1652    3.5698   22.6595 C.ar    1  UNL1        0.0666
      6 C          -2.9948    3.4455   21.4160 C.ar    1  UNL1        0.0237
      7 S          -2.0726    3.5121   20.2349 S.2     1  UNL1       -0.0561
      8 C          -4.4829    3.2877   21.5199 C.3     1  UNL1        0.0343
      9 C          -5.1412    3.2543   22.8672 C.3     1  UNL1        0.0060
     10 C          -4.3116    3.3786   24.1107 C.3     1  UNL1        0.0107
     11 C          -2.8235    3.5363   24.0068 C.3     1  UNL1        0.0627
     12 C          -1.9939    3.6606   25.2503 C.ar    1  UNL1       -0.0169
     13 C          -1.2026    2.4860   25.7444 C.ar    1  UNL1       -0.0039
     14 C          -0.3729    2.6103   26.9879 C.ar    1  UNL1       -0.0003
     15 C          -0.3346    3.9092   27.7372 C.ar    1  UNL1       -0.0000
     16 C          -1.1259    5.0837   27.2431 C.ar    1  UNL1       -0.0003
     17 C          -1.9555    4.9594   25.9996 C.ar    1  UNL1       -0.0039
     18 C           2.9841    0.1100   18.9737 C.ar    1  UNL1        0.0359
     19 C           3.4464    1.0605   20.0381 C.ar    1  UNL1        0.0043
     20 C           2.6405    2.2865   20.3503 C.ar    1  UNL1        0.0148
     21 C           1.3722    2.5620   19.5982 C.ar    1  UNL1        0.0497
     22 C           0.9099    1.6114   18.5338 C.ar    1  UNL1        0.0148
     23 C           1.7158    0.3855   18.2216 C.ar    1  UNL1        0.0043
     24 C           4.6803   -4.8889   18.8548 C.3     1  UNL1        0.0950
     25 C           4.5697   -3.4137   18.6068 C.ar    1  UNL1        0.2059
     26 N           5.4907   -2.5913   17.7550 N.ar    1  UNL1       -0.2165
     27 C           5.0088   -1.1712   17.7888 C.ar    1  UNL1        0.0965
     28 C           5.6356   -0.0102   17.0752 C.3     1  UNL1        0.0555
     29 C           3.7900   -1.1160   18.6615 C.ar    1  UNL1        0.1602
     30 O           3.5186   -2.5019   19.1670 O.2     1  UNL1       -0.4387
@<TRIPOS>BOND
     1    24    25    1
     2    25    26   ar
     3    26    27   ar
     4    27    28    1
     5    27    29   ar
     6    29    18    1
     7    18    19   ar
     8    19    20   ar
     9    20    21   ar
    10    21     1    1
    11     1     3    1
    12     3     4   ar
    13     4     5   ar
    14     5     6   ar
    15     6     7   ar
    16     6     8    1
    17     8     9    1
    18     9    10    1
    19    10    11    1
    20    11    12    1
    21    12    13   ar
    22    13    14   ar
    23    14    15   ar
    24    15    16   ar
    25    16    17   ar
    26    21    22   ar
    27    22    23   ar
    28    29    30   ar
    29    30    25   ar
    30    23    18   ar
    31     7     3   ar
    32    17    12   ar
    33    11     5    1
    34     1     2    1
@<TRIPOS>MOLECULE
*****
 30 34 0 0 0
SMALL
GASTEIGER

@<TRIPOS>ATOM
      1 N          -7.1663  -20.2436   20.0993 N.pl3   1  UNL1       -0.2927
      2 H          -7.2416  -20.8890   19.3597 H       1  UNL1        0.1541
      3 C          -5.8268  -19.6782   20.4678 C.ar    1  UNL1        0.1629
      4 N          -5.5303  -18.8193   21.6613 N.ar    1  UNL1       -0.2284
      5 C          -4.0688  -18.4826   21.6386 C.ar    1  UNL1        0.0666
      6 C          -3.4619  -19.1335   20.4311 C.ar    1  UNL1        0.0237
      7 S          -4.5484  -19.8723   19.7075 S.2     1  UNL1       -0.0561
      8 C          -1.9983  -18.9692   20.1465 C.3     1  UNL1        0.0343
      9 C          -1.1417  -18.1541   21.0693 C.3     1  UNL1        0.0060
     10 C          -1.7486  -17.5033   22.2769 C.3     1  UNL1        0.0107
     11 C          -3.2121  -17.6676   22.5615 C.3     1  UNL1        0.0627
     12 C          -3.8190  -17.0167   23.7690 C.ar    1  UNL1       -0.0169
     13 C          -3.5515  -17.5742   25.1356 C.ar    1  UNL1       -0.0039
     14 C          -4.1584  -16.9234   26.3431 C.ar    1  UNL1       -0.0003
     15 C          -5.0328  -15.7151   26.1841 C.ar    1  UNL1       -0.0000
     16 C          -5.3003  -15.1576   24.8175 C.ar    1  UNL1       -0.0003
     17 C          -4.6934  -15.8084   23.6099 C.ar    1  UNL1       -0.0039
     18 C         -10.8409  -18.9899   22.3743 C.ar    1  UNL1        0.0359
     19 C         -10.8976  -19.1421   20.8832 C.ar    1  UNL1        0.0043
     20 C          -9.6727  -19.5600   20.1248 C.ar    1  UNL1        0.0148
     21 C          -8.3912  -19.8257   20.8576 C.ar    1  UNL1        0.0497
     22 C          -8.3345  -19.6735   22.3488 C.ar    1  UNL1        0.0148
     23 C          -9.5593  -19.2555   23.1071 C.ar    1  UNL1        0.0043
     24 C         -14.5301  -18.5954   26.1312 C.3     1  UNL1        0.0950
     25 C         -13.7615  -18.3906   24.8596 C.ar    1  UNL1        0.2059
     26 N         -14.1396  -17.4669   23.7398 N.ar    1  UNL1       -0.2165
     27 C         -13.0915  -17.5790   22.6725 C.ar    1  UNL1        0.0965
     28 C         -13.0727  -16.8297   21.3732 C.3     1  UNL1        0.0555
     29 C         -12.0657  -18.5719   23.1327 C.ar    1  UNL1        0.1602
     30 O         -12.4797  -19.0735   24.4844 O.2     1  UNL1       -0.4387
@<TRIPOS>BOND
     1    24    25    1
     2    25    26   ar
     3    26    27   ar
     4    27    28    1
     5    27    29   ar
     6    29    18    1
     7    18    19   ar
     8    19    20   ar
     9    20    21   ar
    10    21     1    1
    11     1     3    1
    12     3     4   ar
    13     4     5   ar
    14     5     6   ar
    15     6     7   ar
    16     6     8    1
    17     8     9    1
    18     9    10    1
    19    10    11    1
    20    11    12    1
    21    12    13   ar
    22    13    14   ar
    23    14    15   ar
    24    15    16   ar
    25    16    17   ar
    26    21    22   ar
    27    22    23   ar
    28    29    30   ar
    29    30    25   ar
    30    23    18   ar
    31     7     3   ar
    32    17    12   ar
    33    11     5    1
    34     1     2    1
@<TRIPOS>MOLECULE
*****
 30 34 0 0 0
SMALL
GASTEIGER

@<TRIPOS>ATOM
      1 N           0.0962    3.8525   19.7868 N.pl3   1  UNL1       -0.2927
      2 H           0.5944    4.7000   19.8398 H       1  UNL1        0.1541
      3 C          -1.3925    3.8679   19.6037 C.ar    1  UNL1        0.1629
      4 N          -2.4151    3.9211   20.6997 N.ar    1  UNL1       -0.2284
      5 C          -3.7746    3.9189   20.0659 C.ar    1  UNL1        0.0666
      6 C          -3.5922    3.8643   18.5780 C.ar    1  UNL1        0.0237
      7 S          -2.1200    3.8328   18.2924 S.2     1  UNL1       -0.0561
      8 C          -4.7902    3.8504   17.6755 C.3     1  UNL1        0.0343
      9 C          -6.1706    3.8910   18.2609 C.3     1  UNL1        0.0060
     10 C          -6.3531    3.9456   19.7487 C.3     1  UNL1        0.0107
     11 C          -5.1551    3.9595   20.6512 C.3     1  UNL1        0.0627
     12 C          -5.3375    4.0141   22.1391 C.ar    1  UNL1       -0.0169
     13 C          -6.4392    4.8430   22.7297 C.ar    1  UNL1       -0.0039
     14 C          -6.6217    4.8976   24.2176 C.ar    1  UNL1       -0.0003
     15 C          -5.7023    4.1232   25.1148 C.ar    1  UNL1       -0.0000
     16 C          -4.6006    3.2942   24.5242 C.ar    1  UNL1       -0.0003
     17 C          -4.4182    3.2397   23.0363 C.ar    1  UNL1       -0.0039
     18 C           2.2851   -0.0673   20.0938 C.ar    1  UNL1        0.0359
     19 C           0.8124   -0.0069   20.3721 C.ar    1  UNL1        0.0043
     20 C           0.0827    1.2998   20.2698 C.ar    1  UNL1        0.0148
     21 C           0.8258    2.5459   19.8891 C.ar    1  UNL1        0.0497
     22 C           2.2986    2.4855   19.6107 C.ar    1  UNL1        0.0148
     23 C           3.0281    1.1789   19.7131 C.ar    1  UNL1        0.0043
     24 C           4.4172   -4.7382   18.8623 C.3     1  UNL1        0.0950
     25 C           3.9948   -3.5209   19.6300 C.ar    1  UNL1        0.2059
     26 N           4.2803   -3.2481   21.0772 N.ar    1  UNL1       -0.2165
     27 C           3.6746   -1.9211   21.4270 C.ar    1  UNL1        0.0965
     28 C           3.7207   -1.2579   22.7716 C.3     1  UNL1        0.0555
     29 C           3.0147   -1.3739   20.1961 C.ar    1  UNL1        0.1602
     30 O           3.2126   -2.3626   19.0855 O.2     1  UNL1       -0.4387
@<TRIPOS>BOND
     1    24    25    1
     2    25    26   ar
     3    26    27   ar
     4    27    28    1
     5    27    29   ar
     6    29    18    1
     7    18    19   ar
     8    19    20   ar
     9    20    21   ar
    10    21     1    1
    11     1     3    1
    12     3     4   ar
    13     4     5   ar
    14     5     6   ar
    15     6     7   ar
    16     6     8    1
    17     8     9    1
    18     9    10    1
    19    10    11    1
    20    11    12    1
    21    12    13   ar
    22    13    14   ar
    23    14    15   ar
    24    15    16   ar
    25    16    17   ar
    26    21    22   ar
    27    22    23   ar
    28    29    30   ar
    29    30    25   ar
    30    23    18   ar
    31     7     3   ar
    32    17    12   ar
    33    11     5    1
    34     1     2    1
@<TRIPOS>MOLECULE
*****
 30 34 0 0 0
SMALL
GASTEIGER

@<TRIPOS>ATOM
      1 N           0.2630    3.9641   19.9791 N.pl3   1  UNL1       -0.2927
      2 H           0.6974    4.7696   20.3420 H       1  UNL1        0.1541
      3 C          -1.2178    3.9535   19.7404 C.ar    1  UNL1        0.1629
      4 N          -2.2815    3.9900   20.7974 N.ar    1  UNL1       -0.2284
      5 C          -3.6161    3.9636   20.1132 C.ar    1  UNL1        0.0666
      6 C          -3.3772    3.9109   18.6333 C.ar    1  UNL1        0.0237
      7 S          -1.8950    3.9046   18.4029 S.2     1  UNL1       -0.0561
      8 C          -4.5403    3.8754   17.6867 C.3     1  UNL1        0.0343
      9 C          -5.9421    3.8926   18.2200 C.3     1  UNL1        0.0060
     10 C          -6.1809    3.9453   19.6999 C.3     1  UNL1        0.0107
     11 C          -5.0179    3.9808   20.6465 C.3     1  UNL1        0.0627
     12 C          -5.2568    4.0336   22.1265 C.ar    1  UNL1       -0.0169
     13 C          -4.4164    3.2045   23.0518 C.ar    1  UNL1       -0.0039
     14 C          -4.6552    3.2572   24.5317 C.ar    1  UNL1       -0.0003
     15 C          -5.7344    4.1390   25.0863 C.ar    1  UNL1       -0.0000
     16 C          -6.5748    4.9681   24.1610 C.ar    1  UNL1       -0.0003
     17 C          -6.3360    4.9154   22.6810 C.ar    1  UNL1       -0.0039
     18 C           2.7202    0.3140   19.0358 C.ar    1  UNL1        0.0359
     19 C           3.1684    1.2636   20.1069 C.ar    1  UNL1        0.0043
     20 C           2.3494    2.4803   20.4214 C.ar    1  UNL1        0.0148
     21 C           1.0821    2.7474   19.6647 C.ar    1  UNL1        0.0497
     22 C           0.6338    1.7978   18.5935 C.ar    1  UNL1        0.0148
     23 C           1.4529    0.5811   18.2791 C.ar    1  UNL1        0.0043
     24 C           4.5085   -4.6535   18.9593 C.3     1  UNL1        0.0950
     25 C           4.3612   -3.1860   18.6862 C.ar    1  UNL1        0.2059
     26 N           5.2379   -2.3639   17.7886 N.ar    1  UNL1       -0.2165
     27 C           4.7299   -0.9526   17.8103 C.ar    1  UNL1        0.0965
     28 C           5.3105    0.2052   17.0539 C.3     1  UNL1        0.0555
     29 C           3.5392   -0.9027   18.7213 C.ar    1  UNL1        0.1602
     30 O           3.3114   -2.2829   19.2626 O.2     1  UNL1       -0.4387
@<TRIPOS>BOND
     1    24    25    1
     2    25    26   ar
     3    26    27   ar
     4    27    28    1
     5    27    29   ar
     6    29    18    1
     7    18    19   ar
     8    19    20   ar
     9    20    21   ar
    10    21     1    1
    11     1     3    1
    12     3     4   ar
    13     4     5   ar
    14     5     6   ar
    15     6     7   ar
    16     6     8    1
    17     8     9    1
    18     9    10    1
    19    10    11    1
    20    11    12    1
    21    12    13   ar
    22    13    14   ar
    23    14    15   ar
    24    15    16   ar
    25    16    17   ar
    26    21    22   ar
    27    22    23   ar
    28    29    30   ar
    29    30    25   ar
    30    23    18   ar
    31     7     3   ar
    32    17    12   ar
    33    11     5    1
    34     1     2    1
@<TRIPOS>MOLECULE
*****
 30 34 0 0 0
SMALL
GASTEIGER

@<TRIPOS>ATOM
      1 N           6.7372   -0.6308   23.9031 N.pl3   1  UNL1       -0.2927
      2 H           7.5611   -0.1098   23.7652 H       1  UNL1        0.1541
      3 C           6.1170   -1.3709   22.7552 C.ar    1  UNL1        0.1629
      4 N           4.9711   -0.8925   21.9138 N.ar    1  UNL1       -0.2284
      5 C           4.6796   -1.9452   20.8858 C.ar    1  UNL1        0.0666
      6 C           5.6454   -3.0743   21.0919 C.ar    1  UNL1        0.0237
      7 S           6.5337   -2.7193   22.2473 S.2     1  UNL1       -0.0561
      8 C           5.5911   -4.2798   20.2009 C.3     1  UNL1        0.0343
      9 C           4.5711   -4.3561   19.1038 C.3     1  UNL1        0.0060
     10 C           3.6053   -3.2271   18.8977 C.3     1  UNL1        0.0107
     11 C           3.6596   -2.0216   19.7887 C.3     1  UNL1        0.0627
     12 C           2.6938   -0.8925   19.5826 C.ar    1  UNL1       -0.0169
     13 C           1.4125   -0.8499   20.3613 C.ar    1  UNL1       -0.0039
     14 C           0.4467    0.2791   20.1552 C.ar    1  UNL1       -0.0003
     15 C           0.7623    1.3656   19.1704 C.ar    1  UNL1       -0.0000
     16 C           2.0435    1.3230   18.3917 C.ar    1  UNL1       -0.0003
     17 C           3.0093    0.1940   18.5978 C.ar    1  UNL1       -0.0039
     18 C           4.8324   -0.7922   27.9768 C.ar    1  UNL1        0.0359
     19 C           5.0326    0.5284   27.2943 C.ar    1  UNL1        0.0043
     20 C           5.6675    0.5822   25.9363 C.ar    1  UNL1        0.0148
     21 C           6.1023   -0.6846   25.2610 C.ar    1  UNL1        0.0497
     22 C           5.9021   -2.0053   25.9435 C.ar    1  UNL1        0.0148
     23 C           5.2671   -2.0590   27.3014 C.ar    1  UNL1        0.0043
     24 C           4.1544   -1.3283   33.1858 C.3     1  UNL1        0.0950
     25 C           3.8857   -1.0925   31.7291 C.ar    1  UNL1        0.2059
     26 N           2.5547   -0.7653   31.1196 N.ar    1  UNL1       -0.2165
     27 C           2.7473   -0.6130   29.6398 C.ar    1  UNL1        0.0965
     28 C           1.6777   -0.2852   28.6406 C.3     1  UNL1        0.0555
     29 C           4.1974   -0.8461   29.3348 C.ar    1  UNL1        0.1602
     30 O           4.9009   -1.1424   30.6259 O.2     1  UNL1       -0.4387
@<TRIPOS>BOND
     1    24    25    1
     2    25    26   ar
     3    26    27   ar
     4    27    28    1
     5    27    29   ar
     6    29    18    1
     7    18    19   ar
     8    19    20   ar
     9    20    21   ar
    10    21     1    1
    11     1     3    1
    12     3     4   ar
    13     4     5   ar
    14     5     6   ar
    15     6     7   ar
    16     6     8    1
    17     8     9    1
    18     9    10    1
    19    10    11    1
    20    11    12    1
    21    12    13   ar
    22    13    14   ar
    23    14    15   ar
    24    15    16   ar
    25    16    17   ar
    26    21    22   ar
    27    22    23   ar
    28    29    30   ar
    29    30    25   ar
    30    23    18   ar
    31     7     3   ar
    32    17    12   ar
    33    11     5    1
    34     1     2    1
@<TRIPOS>MOLECULE
*****
 30 34 0 0 0
SMALL
GASTEIGER

@<TRIPOS>ATOM
      1 N           2.9518    0.8891   26.1163 N.pl3   1  UNL1       -0.2927
      2 H           3.5661    1.0572   26.8670 H       1  UNL1        0.1541
      3 C           3.3339   -0.0801   25.0371 C.ar    1  UNL1        0.1629
      4 N           2.9501    0.0150   23.5902 N.ar    1  UNL1       -0.2284
      5 C           3.5459   -1.1608   22.8742 C.ar    1  UNL1        0.0666
      6 C           4.2980   -1.9826   23.8787 C.ar    1  UNL1        0.0237
      7 S           4.1670   -1.3147   25.2154 S.2     1  UNL1       -0.0561
      8 C           5.0050   -3.2328   23.4464 C.3     1  UNL1        0.0343
      9 C           4.9599   -3.6613   22.0097 C.3     1  UNL1        0.0060
     10 C           4.2078   -2.8395   21.0052 C.3     1  UNL1        0.0107
     11 C           3.5008   -1.5892   21.4375 C.3     1  UNL1        0.0627
     12 C           2.7487   -0.7674   20.4330 C.ar    1  UNL1       -0.0169
     13 C           3.4341   -0.2973   19.1844 C.ar    1  UNL1       -0.0039
     14 C           2.6820    0.5245   18.1799 C.ar    1  UNL1       -0.0003
     15 C           1.2444    0.8762   18.4241 C.ar    1  UNL1       -0.0000
     16 C           0.5590    0.4061   19.6727 C.ar    1  UNL1       -0.0003
     17 C           1.3111   -0.4157   20.6772 C.ar    1  UNL1       -0.0039
     18 C          -1.0022    3.0288   25.9219 C.ar    1  UNL1        0.0359
     19 C           0.1460    3.4967   25.0779 C.ar    1  UNL1        0.0043
     20 C           1.4641    2.7835   25.1426 C.ar    1  UNL1        0.0148
     21 C           1.6338    1.6023   26.0515 C.ar    1  UNL1        0.0497
     22 C           0.4855    1.1344   26.8956 C.ar    1  UNL1        0.0148
     23 C          -0.8324    1.8476   26.8308 C.ar    1  UNL1        0.0043
     24 C          -5.9642    4.3047   24.6448 C.3     1  UNL1        0.0950
     25 C          -4.6010    4.3285   25.2702 C.ar    1  UNL1        0.2059
     26 N          -4.0959    5.3505   26.2450 N.ar    1  UNL1       -0.2165
     27 C          -2.6862    4.9880   26.6079 C.ar    1  UNL1        0.0965
     28 C          -1.7985    5.7396   27.5550 C.3     1  UNL1        0.0555
     29 C          -2.3203    3.7420   25.8572 C.ar    1  UNL1        0.1602
     30 O          -3.5036    3.3344   25.0305 O.2     1  UNL1       -0.4387
@<TRIPOS>BOND
     1    24    25    1
     2    25    26   ar
     3    26    27   ar
     4    27    28    1
     5    27    29   ar
     6    29    18    1
     7    18    19   ar
     8    19    20   ar
     9    20    21   ar
    10    21     1    1
    11     1     3    1
    12     3     4   ar
    13     4     5   ar
    14     5     6   ar
    15     6     7   ar
    16     6     8    1
    17     8     9    1
    18     9    10    1
    19    10    11    1
    20    11    12    1
    21    12    13   ar
    22    13    14   ar
    23    14    15   ar
    24    15    16   ar
    25    16    17   ar
    26    21    22   ar
    27    22    23   ar
    28    29    30   ar
    29    30    25   ar
    30    23    18   ar
    31     7     3   ar
    32    17    12   ar
    33    11     5    1
    34     1     2    1
