@<TRIPOS>MOLECULE
*****
 21 23 0 0 0
SMALL
GASTEIGER

@<TRIPOS>ATOM
      1 C          -9.6825  -17.8501   21.2959 C.ar    1  UNL1        0.0538
      2 C         -10.6855  -18.2629   20.2598 C.ar    1  UNL1        0.1019
      3 N         -12.0130  -17.5688   20.1826 N.ar    1  UNL1       -0.2422
      4 C         -12.3374  -16.4619   21.1414 C.ar    1  UNL1        0.0989
      5 C         -11.3345  -16.0490   22.1775 C.ar    1  UNL1        0.0209
      6 C         -10.0070  -16.7431   22.2548 C.ar    1  UNL1        0.0090
      7 C          -9.0039  -16.3303   23.2909 C.ar    1  UNL1        0.0386
      8 C          -9.1933  -16.7374   24.7222 C.ar    1  UNL1        0.1022
      9 N          -8.1903  -16.3247   25.7583 N.ar    1  UNL1       -0.2224
     10 C          -6.9979  -15.5047   25.3632 C.ar    1  UNL1        0.1989
     11 N          -6.8086  -15.0976   23.9320 N.ar    1  UNL1       -0.2224
     12 C          -7.8116  -15.5104   22.8958 C.ar    1  UNL1        0.1022
     13 C          -6.0560  -19.1847   20.9318 C.ar    1  UNL1        0.1385
     14 C          -6.5684  -20.0399   22.0526 C.ar    1  UNL1        0.0375
     15 C          -7.9892  -19.6440   22.3254 C.ar    1  UNL1        0.0404
     16 C          -8.3550  -18.5442   21.3732 C.ar    1  UNL1        0.1464
     17 O          -7.1601  -18.2603   20.5120 O.2     1  UNL1       -0.4563
     18 N          -4.2699  -18.2418   19.2975 N.3     1  UNL1       -0.3148
     19 C          -4.6808  -19.2436   20.3356 C.3     1  UNL1        0.1307
     20 H          -3.3108  -18.4292   19.0051 H       1  UNL1        0.1192
     21 H          -4.3283  -17.3022   19.6899 H       1  UNL1        0.1192
@<TRIPOS>BOND
     1    18    19    1
     2    19    13    1
     3    13    14   ar
     4    14    15   ar
     5    15    16   ar
     6    16     1    1
     7     1     2   ar
     8     2     3   ar
     9     3     4   ar
    10     4     5   ar
    11     5     6   ar
    12     6     7    1
    13     7     8   ar
    14     8     9   ar
    15     9    10   ar
    16    10    11   ar
    17    11    12   ar
    18    16    17   ar
    19    17    13   ar
    20     6     1   ar
    21    12     7   ar
    22    18    20    1
    23    18    21    1
@<TRIPOS>MOLECULE
*****
 21 23 0 0 0
SMALL
GASTEIGER

@<TRIPOS>ATOM
      1 C          -7.8393  -18.9397   21.0660 C.ar    1  UNL1        0.0538
      2 C          -7.2311  -19.9078   20.0951 C.ar    1  UNL1        0.1019
      3 N          -5.7818  -20.2763   20.2118 N.ar    1  UNL1       -0.2422
      4 C          -4.9407  -19.6767   21.2995 C.ar    1  UNL1        0.0989
      5 C          -5.5490  -18.7086   22.2705 C.ar    1  UNL1        0.0209
      6 C          -6.9983  -18.3401   22.1537 C.ar    1  UNL1        0.0090
      7 C          -7.6066  -17.3720   23.1247 C.ar    1  UNL1        0.0386
      8 C          -7.0610  -15.9792   23.2364 C.ar    1  UNL1        0.1022
      9 N          -7.6692  -15.0111   24.2073 N.ar    1  UNL1       -0.2224
     10 C          -8.8232  -15.4357   25.0665 C.ar    1  UNL1        0.1989
     11 N          -9.3688  -16.8285   24.9548 N.ar    1  UNL1       -0.2224
     12 C          -8.7605  -17.7966   23.9838 C.ar    1  UNL1        0.1022
     13 C         -11.3264  -17.2969   20.6107 C.ar    1  UNL1        0.1385
     14 C         -11.7116  -18.7113   20.9286 C.ar    1  UNL1        0.0375
     15 C         -10.4523  -19.4988   21.1379 C.ar    1  UNL1        0.0404
     16 C          -9.2887  -18.5712   20.9493 C.ar    1  UNL1        0.1464
     17 O          -9.8289  -17.2103   20.6234 O.2     1  UNL1       -0.4563
     18 N         -12.2476  -15.4829   18.9948 N.3     1  UNL1       -0.3148
     19 C         -12.2725  -16.1674   20.3293 C.3     1  UNL1        0.1307
     20 H         -12.9516  -14.7450   18.9781 H       1  UNL1        0.1192
     21 H         -12.4491  -16.1618   18.2607 H       1  UNL1        0.1192
@<TRIPOS>BOND
     1    18    19    1
     2    19    13    1
     3    13    14   ar
     4    14    15   ar
     5    15    16   ar
     6    16     1    1
     7     1     2   ar
     8     2     3   ar
     9     3     4   ar
    10     4     5   ar
    11     5     6   ar
    12     6     7    1
    13     7     8   ar
    14     8     9   ar
    15     9    10   ar
    16    10    11   ar
    17    11    12   ar
    18    16    17   ar
    19    17    13   ar
    20     6     1   ar
    21    12     7   ar
    22    18    20    1
    23    18    21    1
@<TRIPOS>MOLECULE
*****
 21 23 0 0 0
SMALL
GASTEIGER

@<TRIPOS>ATOM
      1 C         -10.0003  -16.8623   22.6127 C.ar    1  UNL1        0.0538
      2 C         -11.2904  -16.1070   22.7349 C.ar    1  UNL1        0.1019
      3 N         -12.4883  -16.5352   21.9401 N.ar    1  UNL1       -0.2422
      4 C         -12.3960  -17.7187   21.0232 C.ar    1  UNL1        0.0989
      5 C         -11.1059  -18.4741   20.9010 C.ar    1  UNL1        0.0209
      6 C          -9.9080  -18.0459   21.6958 C.ar    1  UNL1        0.0090
      7 C          -8.6178  -18.8012   21.5736 C.ar    1  UNL1        0.0386
      8 C          -7.7178  -18.5631   20.3974 C.ar    1  UNL1        0.1022
      9 N          -6.4276  -19.3184   20.2753 N.ar    1  UNL1       -0.2224
     10 C          -6.0374  -20.3118   21.3293 C.ar    1  UNL1        0.1989
     11 N          -6.9373  -20.5498   22.5055 N.ar    1  UNL1       -0.2224
     12 C          -8.2276  -19.7945   22.6276 C.ar    1  UNL1        0.1022
     13 C          -6.5518  -15.7462   24.0013 C.ar    1  UNL1        0.1385
     14 C          -7.3660  -15.8042   25.2598 C.ar    1  UNL1        0.0375
     15 C          -8.7569  -16.2294   24.8928 C.ar    1  UNL1        0.0404
     16 C          -8.8023  -16.4341   23.4075 C.ar    1  UNL1        0.1464
     17 O          -7.4395  -16.1355   22.8565 O.2     1  UNL1       -0.4563
     18 N          -4.6399  -14.4539   22.8077 N.3     1  UNL1       -0.3148
     19 C          -5.1041  -15.3657   23.9046 C.3     1  UNL1        0.1307
     20 H          -3.6348  -14.3031   22.8935 H       1  UNL1        0.1192
     21 H          -5.1253  -13.5598   22.8806 H       1  UNL1        0.1192
@<TRIPOS>BOND
     1    18    19    1
     2    19    13    1
     3    13    14   ar
     4    14    15   ar
     5    15    16   ar
     6    16     1    1
     7     1     2   ar
     8     2     3   ar
     9     3     4   ar
    10     4     5   ar
    11     5     6   ar
    12     6     7    1
    13     7     8   ar
    14     8     9   ar
    15     9    10   ar
    16    10    11   ar
    17    11    12   ar
    18    16    17   ar
    19    17    13   ar
    20     6     1   ar
    21    12     7   ar
    22    18    20    1
    23    18    21    1
@<TRIPOS>MOLECULE
*****
 21 23 0 0 0
SMALL
GASTEIGER

@<TRIPOS>ATOM
      1 C         -10.4179  -17.0745   22.8963 C.ar    1  UNL1        0.0538
      2 C         -11.8054  -16.5395   22.6995 C.ar    1  UNL1        0.1019
      3 N         -12.4524  -16.6121   21.3482 N.ar    1  UNL1       -0.2422
      4 C         -11.7120  -17.2196   20.1937 C.ar    1  UNL1        0.0989
      5 C         -10.3246  -17.7545   20.3906 C.ar    1  UNL1        0.0209
      6 C          -9.6775  -17.6820   21.7419 C.ar    1  UNL1        0.0090
      7 C          -8.2900  -18.2169   21.9388 C.ar    1  UNL1        0.0386
      8 C          -8.0305  -19.6897   21.8222 C.ar    1  UNL1        0.1022
      9 N          -6.6431  -20.2247   22.0191 N.ar    1  UNL1       -0.2224
     10 C          -5.5151  -19.2868   22.3325 C.ar    1  UNL1        0.1989
     11 N          -5.7746  -17.8140   22.4491 N.ar    1  UNL1       -0.2224
     12 C          -7.1621  -17.2791   22.2522 C.ar    1  UNL1        0.1022
     13 C          -8.5518  -16.1890   26.1825 C.ar    1  UNL1        0.1385
     14 C          -8.9983  -17.5916   26.4717 C.ar    1  UNL1        0.0375
     15 C          -9.7517  -18.0939   25.2758 C.ar    1  UNL1        0.0404
     16 C          -9.7708  -17.0019   24.2476 C.ar    1  UNL1        0.1464
     17 O          -9.0292  -15.8246   24.8080 O.2     1  UNL1       -0.4563
     18 N          -6.3706  -14.8929   26.7416 N.3     1  UNL1       -0.3148
     19 C          -7.7658  -15.3059   27.1058 C.3     1  UNL1        0.1307
     20 H          -5.9889  -14.2984   27.4773 H       1  UNL1        0.1192
     21 H          -6.3875  -14.3767   25.8620 H       1  UNL1        0.1192
@<TRIPOS>BOND
     1    18    19    1
     2    19    13    1
     3    13    14   ar
     4    14    15   ar
     5    15    16   ar
     6    16     1    1
     7     1     2   ar
     8     2     3   ar
     9     3     4   ar
    10     4     5   ar
    11     5     6   ar
    12     6     7    1
    13     7     8   ar
    14     8     9   ar
    15     9    10   ar
    16    10    11   ar
    17    11    12   ar
    18    16    17   ar
    19    17    13   ar
    20     6     1   ar
    21    12     7   ar
    22    18    20    1
    23    18    21    1
@<TRIPOS>MOLECULE
*****
 21 23 0 0 0
SMALL
GASTEIGER

@<TRIPOS>ATOM
      1 C          -8.2329  -17.9101   21.7389 C.ar    1  UNL1        0.0538
      2 C          -6.9890  -18.3351   21.0164 C.ar    1  UNL1        0.1019
      3 N          -7.0878  -19.2254   19.8132 N.ar    1  UNL1       -0.2422
      4 C          -8.4303  -19.6906   19.3326 C.ar    1  UNL1        0.0989
      5 C          -9.6742  -19.2656   20.0552 C.ar    1  UNL1        0.0209
      6 C          -9.5755  -18.3754   21.2583 C.ar    1  UNL1        0.0090
      7 C         -10.8194  -17.9503   21.9810 C.ar    1  UNL1        0.0386
      8 C         -11.4507  -16.6253   21.6716 C.ar    1  UNL1        0.1022
      9 N         -12.6946  -16.2002   22.3942 N.ar    1  UNL1       -0.2224
     10 C         -13.3071  -17.1002   23.4261 C.ar    1  UNL1        0.1989
     11 N         -12.6758  -18.4252   23.7355 N.ar    1  UNL1       -0.2224
     12 C         -11.4319  -18.8503   23.0129 C.ar    1  UNL1        0.1022
     13 C          -8.1977  -16.2186   25.2322 C.ar    1  UNL1        0.1385
     14 C          -7.7669  -15.0807   24.3549 C.ar    1  UNL1        0.0375
     15 C          -7.7277  -15.5758   22.9395 C.ar    1  UNL1        0.0404
     16 C          -8.1342  -17.0197   22.9421 C.ar    1  UNL1        0.1464
     17 O          -8.4247  -17.4169   24.3591 O.2     1  UNL1       -0.4563
     18 N          -8.2689  -14.8563   27.4434 N.3     1  UNL1       -0.3148
     19 C          -8.3711  -16.1671   26.7213 C.3     1  UNL1        0.1307
     20 H          -8.4119  -15.0063   28.4422 H       1  UNL1        0.1192
     21 H          -8.9810  -14.2171   27.0902 H       1  UNL1        0.1192
@<TRIPOS>BOND
     1    18    19    1
     2    19    13    1
     3    13    14   ar
     4    14    15   ar
     5    15    16   ar
     6    16     1    1
     7     1     2   ar
     8     2     3   ar
     9     3     4   ar
    10     4     5   ar
    11     5     6   ar
    12     6     7    1
    13     7     8   ar
    14     8     9   ar
    15     9    10   ar
    16    10    11   ar
    17    11    12   ar
    18    16    17   ar
    19    17    13   ar
    20     6     1   ar
    21    12     7   ar
    22    18    20    1
    23    18    21    1
@<TRIPOS>MOLECULE
*****
 21 23 0 0 0
SMALL
GASTEIGER

@<TRIPOS>ATOM
      1 C          -8.3787  -16.7979   24.5376 C.ar    1  UNL1        0.0538
      2 C          -8.1497  -15.9087   25.7237 C.ar    1  UNL1        0.1019
      3 N          -6.8646  -15.1459   25.8520 N.ar    1  UNL1       -0.2422
      4 C          -5.8085  -15.2723   24.7943 C.ar    1  UNL1        0.0989
      5 C          -6.0375  -16.1616   23.6083 C.ar    1  UNL1        0.0209
      6 C          -7.3226  -16.9244   23.4800 C.ar    1  UNL1        0.0090
      7 C          -7.5517  -17.8137   22.2939 C.ar    1  UNL1        0.0386
      8 C          -8.7315  -17.5794   21.3976 C.ar    1  UNL1        0.1022
      9 N          -8.9606  -18.4686   20.2115 N.ar    1  UNL1       -0.2224
     10 C          -8.0100  -19.5922   19.9218 C.ar    1  UNL1        0.1989
     11 N          -6.8303  -19.8265   20.8180 N.ar    1  UNL1       -0.2224
     12 C          -6.6011  -18.9372   22.0041 C.ar    1  UNL1        0.1022
     13 C         -11.9707  -18.1300   23.9143 C.ar    1  UNL1        0.1385
     14 C         -11.3123  -19.3395   24.5091 C.ar    1  UNL1        0.0375
     15 C          -9.8866  -18.9876   24.8150 C.ar    1  UNL1        0.0404
     16 C          -9.6639  -17.5608   24.4092 C.ar    1  UNL1        0.1464
     17 O         -10.9520  -17.0308   23.8526 O.2     1  UNL1       -0.4563
     18 N         -14.5095  -18.0982   24.4656 N.3     1  UNL1       -0.3148
     19 C         -13.3975  -18.0364   23.4608 C.3     1  UNL1        0.1307
     20 H         -15.4061  -18.0200   23.9857 H       1  UNL1        0.1192
     21 H         -14.4110  -17.3301   25.1295 H       1  UNL1        0.1192
@<TRIPOS>BOND
     1    18    19    1
     2    19    13    1
     3    13    14   ar
     4    14    15   ar
     5    15    16   ar
     6    16     1    1
     7     1     2   ar
     8     2     3   ar
     9     3     4   ar
    10     4     5   ar
    11     5     6   ar
    12     6     7    1
    13     7     8   ar
    14     8     9   ar
    15     9    10   ar
    16    10    11   ar
    17    11    12   ar
    18    16    17   ar
    19    17    13   ar
    20     6     1   ar
    21    12     7   ar
    22    18    20    1
    23    18    21    1
@<TRIPOS>MOLECULE
*****
 21 23 0 0 0
SMALL
GASTEIGER

@<TRIPOS>ATOM
      1 C          -7.9947  -19.0949   20.5321 C.ar    1  UNL1        0.0538
      2 C          -8.3594  -19.9402   19.3479 C.ar    1  UNL1        0.1019
      3 N          -9.7690  -19.9443   18.8350 N.ar    1  UNL1       -0.2422
      4 C         -10.8138  -19.1032   19.5064 C.ar    1  UNL1        0.0989
      5 C         -10.4491  -18.2579   20.6906 C.ar    1  UNL1        0.0209
      6 C          -9.0395  -18.2537   21.2035 C.ar    1  UNL1        0.0090
      7 C          -8.6747  -17.4084   22.3877 C.ar    1  UNL1        0.0386
      8 C          -7.9095  -16.1333   22.1918 C.ar    1  UNL1        0.1022
      9 N          -7.5447  -15.2880   23.3760 N.ar    1  UNL1       -0.2224
     10 C          -7.9451  -15.7178   24.7562 C.ar    1  UNL1        0.1989
     11 N          -8.7103  -16.9930   24.9522 N.ar    1  UNL1       -0.2224
     12 C          -9.0751  -17.8383   23.7679 C.ar    1  UNL1        0.1022
     13 C          -4.1967  -18.6999   21.2287 C.ar    1  UNL1        0.1385
     14 C          -4.6351  -19.4689   22.4398 C.ar    1  UNL1        0.0375
     15 C          -6.1112  -19.7104   22.3262 C.ar    1  UNL1        0.0404
     16 C          -6.5850  -19.0908   21.0450 C.ar    1  UNL1        0.1464
     17 O          -5.4018  -18.4663   20.3667 O.2     1  UNL1       -0.4563
     18 N          -1.6697  -19.2322   20.9443 N.3     1  UNL1       -0.3148
     19 C          -2.7987  -18.2446   20.9319 C.3     1  UNL1        0.1307
     20 H          -0.7967  -18.7534   20.7227 H       1  UNL1        0.1192
     21 H          -1.8452  -19.9580   20.2495 H       1  UNL1        0.1192
@<TRIPOS>BOND
     1    18    19    1
     2    19    13    1
     3    13    14   ar
     4    14    15   ar
     5    15    16   ar
     6    16     1    1
     7     1     2   ar
     8     2     3   ar
     9     3     4   ar
    10     4     5   ar
    11     5     6   ar
    12     6     7    1
    13     7     8   ar
    14     8     9   ar
    15     9    10   ar
    16    10    11   ar
    17    11    12   ar
    18    16    17   ar
    19    17    13   ar
    20     6     1   ar
    21    12     7   ar
    22    18    20    1
    23    18    21    1
@<TRIPOS>MOLECULE
*****
 21 23 0 0 0
SMALL
GASTEIGER

@<TRIPOS>ATOM
      1 C         -14.3665   -7.5619   18.7119 C.ar    1  UNL1        0.0538
      2 C         -14.6482   -9.0307   18.5967 C.ar    1  UNL1        0.1019
      3 N         -15.9890   -9.5708   18.9970 N.ar    1  UNL1       -0.2422
      4 C         -17.0482   -8.6421   19.5125 C.ar    1  UNL1        0.0989
      5 C         -16.7665   -7.1734   19.6277 C.ar    1  UNL1        0.0209
      6 C         -15.4256   -6.6333   19.2274 C.ar    1  UNL1        0.0090
      7 C         -15.1439   -5.1644   19.3425 C.ar    1  UNL1        0.0386
      8 C         -15.5097   -4.2403   18.2191 C.ar    1  UNL1        0.1022
      9 N         -15.2279   -2.7715   18.3342 N.ar    1  UNL1       -0.2224
     10 C         -14.5804   -2.2268   19.5728 C.ar    1  UNL1        0.1989
     11 N         -14.2146   -3.1510   20.6963 N.ar    1  UNL1       -0.2224
     12 C         -14.4964   -4.6198   20.5811 C.ar    1  UNL1        0.1022
     13 C         -10.8247   -6.0032   18.4085 C.ar    1  UNL1        0.1385
     14 C         -11.0996   -6.3779   16.9823 C.ar    1  UNL1        0.0375
     15 C         -12.4598   -7.0074   16.9224 C.ar    1  UNL1        0.0404
     16 C         -13.0256   -7.0217   18.3115 C.ar    1  UNL1        0.1464
     17 O         -12.0150   -6.4011   19.2300 O.2     1  UNL1       -0.4563
     18 N          -9.5878   -3.8862   19.2678 N.3     1  UNL1       -0.3148
     19 C          -9.5784   -5.3459   18.9229 C.3     1  UNL1        0.1307
     20 H          -8.6638   -3.6091   19.5991 H       1  UNL1        0.1192
     21 H         -10.2771   -3.7142   19.9997 H       1  UNL1        0.1192
@<TRIPOS>BOND
     1    18    19    1
     2    19    13    1
     3    13    14   ar
     4    14    15   ar
     5    15    16   ar
     6    16     1    1
     7     1     2   ar
     8     2     3   ar
     9     3     4   ar
    10     4     5   ar
    11     5     6   ar
    12     6     7    1
    13     7     8   ar
    14     8     9   ar
    15     9    10   ar
    16    10    11   ar
    17    11    12   ar
    18    16    17   ar
    19    17    13   ar
    20     6     1   ar
    21    12     7   ar
    22    18    20    1
    23    18    21    1
@<TRIPOS>MOLECULE
*****
 21 23 0 0 0
SMALL
GASTEIGER

@<TRIPOS>ATOM
      1 C          -9.6641  -16.1111   21.7970 C.ar    1  UNL1        0.0538
      2 C          -9.8525  -15.0208   20.7842 C.ar    1  UNL1        0.1019
      3 N         -10.7527  -15.2402   19.6047 N.ar    1  UNL1       -0.2422
      4 C         -11.4645  -16.5500   19.4378 C.ar    1  UNL1        0.0989
      5 C         -11.2762  -17.6403   20.4506 C.ar    1  UNL1        0.0209
      6 C         -10.3760  -17.4208   21.6301 C.ar    1  UNL1        0.0090
      7 C         -10.1876  -18.5112   22.6430 C.ar    1  UNL1        0.0386
      8 C          -9.0166  -19.4423   22.5335 C.ar    1  UNL1        0.1022
      9 N          -8.8282  -20.5326   23.5463 N.ar    1  UNL1       -0.2224
     10 C          -9.8108  -20.6919   24.6685 C.ar    1  UNL1        0.1989
     11 N         -10.9817  -19.7608   24.7779 N.ar    1  UNL1       -0.2224
     12 C         -11.1701  -18.6704   23.7651 C.ar    1  UNL1        0.1022
     13 C          -7.9305  -15.7675   25.2527 C.ar    1  UNL1        0.1385
     14 C          -6.8267  -15.3407   24.3310 C.ar    1  UNL1        0.0375
     15 C          -7.3418  -15.4174   22.9243 C.ar    1  UNL1        0.0404
     16 C          -8.7639  -15.8917   22.9766 C.ar    1  UNL1        0.1464
     17 O          -9.1277  -16.1080   24.4157 O.2     1  UNL1       -0.4563
     18 N          -8.4356  -14.7420   27.5858 N.3     1  UNL1       -0.3148
     19 C          -7.8509  -15.8409   26.7488 C.3     1  UNL1        0.1307
     20 H          -8.2928  -14.9540   28.5732 H       1  UNL1        0.1192
     21 H          -9.4348  -14.6646   27.3956 H       1  UNL1        0.1192
@<TRIPOS>BOND
     1    18    19    1
     2    19    13    1
     3    13    14   ar
     4    14    15   ar
     5    15    16   ar
     6    16     1    1
     7     1     2   ar
     8     2     3   ar
     9     3     4   ar
    10     4     5   ar
    11     5     6   ar
    12     6     7    1
    13     7     8   ar
    14     8     9   ar
    15     9    10   ar
    16    10    11   ar
    17    11    12   ar
    18    16    17   ar
    19    17    13   ar
    20     6     1   ar
    21    12     7   ar
    22    18    20    1
    23    18    21    1
