@<TRIPOS>MOLECULE
*****
 39 44 0 0 0
SMALL
GASTEIGER

@<TRIPOS>ATOM
      1 C           4.0178   -1.8983   21.4044 C.ar    1  UNL1        0.2400
      2 N           3.0177   -0.8015   21.1876 N.ar    1  UNL1       -0.2090
      3 C           2.4484   -0.0627   22.3624 C.ar    1  UNL1        0.1042
      4 C           2.6611   -0.1658   23.8870 C.ar    1  UNL1        0.0463
      5 C           3.4839   -1.1522   23.1124 C.ar    1  UNL1        0.0242
      6 C           4.4485   -2.2564   22.7958 C.ar    1  UNL1        0.1179
      7 N           5.4504   -3.3588   22.9716 N.pl3   1  UNL1       -0.2104
      8 S           6.3809   -4.3400   23.6207 S.O2    1  UNL1        0.0737
      9 O           6.3504   -4.4378   22.1243 O.2     1  UNL1       -0.1499
     10 O           7.2869   -5.3997   23.0676 O.2     1  UNL1       -0.1499
     11 C           7.2246   -5.1584   25.0176 C.ar    1  UNL1        0.1253
     12 C           8.1631   -6.2441   24.5812 C.ar    1  UNL1        0.0202
     13 C           8.9393   -7.0201   25.6036 C.ar    1  UNL1        0.0015
     14 C           8.7770   -6.7105   27.0623 C.ar    1  UNL1        0.0046
     15 C           7.8385   -5.6248   27.4986 C.ar    1  UNL1        0.0547
     16 C           7.0623   -4.8488   26.4763 C.ar    1  UNL1        0.0247
     17 C           7.7035   -5.3449   28.9661 C.2     1  UNL1        0.2461
     18 O           8.6619   -6.3671   29.5016 O.2     1  UNL1       -0.2701
     19 N           7.2531   -4.7286   30.2573 N.am    1  UNL1       -0.2969
     20 C           6.5360   -3.8425   31.2323 C.3     1  UNL1        0.1166
     21 C           5.6299   -2.7827   31.7854 C.ar    1  UNL1       -0.0029
     22 C           5.3364   -2.3279   33.2302 C.ar    1  UNL1       -0.0026
     23 C           4.4426   -1.2784   33.8215 C.ar    1  UNL1       -0.0006
     24 C           3.6011   -0.4184   32.9257 C.ar    1  UNL1       -0.0039
     25 C           3.6536   -0.6079   31.4386 C.ar    1  UNL1       -0.0164
     26 C           4.6331   -1.6641   31.8568 C.ar    1  UNL1       -0.0065
     27 C           2.7974    0.2715   30.5763 C.3     1  UNL1        0.0738
     28 C           2.1574    0.8787   29.3631 C.ar    1  UNL1        0.0861
     29 C           1.3744    1.8281   30.2207 C.ar    1  UNL1        0.1161
     30 N           0.5360    2.6841   29.3183 N.ar    1  UNL1       -0.2181
     31 C           0.8009    2.2638   27.9031 C.ar    1  UNL1        0.1966
     32 S           0.7357    2.2046   26.4056 S.2     1  UNL1       -0.0278
     33 C           2.0693    0.5959   25.0358 C.ar    1  UNL1        0.1350
     34 N           1.7725    1.0502   26.4342 N.ar    1  UNL1       -0.1569
     35 N           1.8030    1.1480   27.9307 N.ar    1  UNL1       -0.2085
     36 H           5.5925   -3.6006   22.0279 H       1  UNL1        0.1739
     37 H           7.7848   -5.2663   30.8877 H       1  UNL1        0.1501
     38 C           3.6908   -3.4683   19.3603 C.3     1  UNL1        0.2543
     39 O           4.5870   -2.6370   20.2295 O.3     1  UNL1       -0.4553
@<TRIPOS>BOND
     1    38    39    1
     2    39     1    1
     3     1     2   ar
     4     2     3   ar
     5     3     4   ar
     6     4     5   ar
     7     5     6   ar
     8     6     7    1
     9     7     8    1
    10     8     9    2
    11     8    10    2
    12     8    11    1
    13    11    12   ar
    14    12    13   ar
    15    13    14   ar
    16    14    15   ar
    17    15    16   ar
    18    15    17    1
    19    17    18    2
    20    17    19   am
    21    19    20    1
    22    20    21    1
    23    21    22   ar
    24    22    23   ar
    25    23    24   ar
    26    24    25   ar
    27    25    26   ar
    28    25    27    1
    29    27    28    1
    30    28    29   ar
    31    29    30   ar
    32    30    31   ar
    33    31    32   ar
    34    32    33   ar
    35    33    34   ar
    36    34    35   ar
    37     6     1   ar
    38    16    11   ar
    39    26    21   ar
    40    35    28   ar
    41    33     4    1
    42    35    31   ar
    43     7    36    1
    44    19    37    1
@<TRIPOS>MOLECULE
*****
 39 44 0 0 0
SMALL
GASTEIGER

@<TRIPOS>ATOM
      1 C           7.9637   -5.9099   25.3115 C.ar    1  UNL1        0.2400
      2 N           8.5803   -6.4233   26.5788 N.ar    1  UNL1       -0.2090
      3 C           8.1812   -5.8342   27.8994 C.ar    1  UNL1        0.1042
      4 C           7.1957   -4.7212   28.3119 C.ar    1  UNL1        0.0463
      5 C           7.2390   -4.9458   26.8295 C.ar    1  UNL1        0.0242
      6 C           6.9480   -4.8075   25.3645 C.ar    1  UNL1        0.1179
      7 N           6.3541   -4.3212   24.0758 N.pl3   1  UNL1       -0.2104
      8 S           5.5218   -3.5398   23.1029 S.O2    1  UNL1        0.0737
      9 O           6.4015   -4.5669   22.4542 O.2     1  UNL1       -0.1499
     10 O           5.3962   -3.5835   21.6089 O.2     1  UNL1       -0.1499
     11 C           4.3000   -2.2824   22.5938 C.ar    1  UNL1        0.1253
     12 C           4.0910   -2.2350   21.1092 C.ar    1  UNL1        0.0202
     13 C           3.1188   -1.2566   20.5196 C.ar    1  UNL1        0.0015
     14 C           2.3557   -0.3257   21.4146 C.ar    1  UNL1        0.0046
     15 C           2.5647   -0.3731   22.8991 C.ar    1  UNL1        0.0547
     16 C           3.5368   -1.3515   23.4888 C.ar    1  UNL1        0.0247
     17 C           1.7830    0.5738   23.7608 C.2     1  UNL1        0.2461
     18 O           1.0027    1.2883   22.6975 O.2     1  UNL1       -0.2701
     19 N           1.2582    1.2855   24.9724 N.am    1  UNL1       -0.2969
     20 C           1.0472    1.6848   26.4028 C.3     1  UNL1        0.1166
     21 C           1.1728    1.7286   27.8969 C.ar    1  UNL1       -0.0029
     22 C           0.4822    2.6019   28.9649 C.ar    1  UNL1       -0.0026
     23 C           0.5796    2.6761   30.4599 C.ar    1  UNL1       -0.0006
     24 C           1.5108    1.7597   31.1971 C.ar    1  UNL1       -0.0039
     25 C           2.3443    0.7693   30.4393 C.ar    1  UNL1       -0.0164
     26 C           1.6213    1.4120   29.2929 C.ar    1  UNL1       -0.0065
     27 C           3.2633   -0.1297   31.2120 C.3     1  UNL1        0.0738
     28 C           4.2788   -1.1877   31.5273 C.ar    1  UNL1        0.0861
     29 C           4.1680   -0.8922   32.9937 C.ar    1  UNL1        0.1161
     30 N           5.1014   -1.8119   33.7237 N.ar    1  UNL1       -0.2181
     31 C           5.7891   -2.6758   32.7085 C.ar    1  UNL1        0.1966
     32 S           6.6864   -3.7163   32.1067 S.2     1  UNL1       -0.0278
     33 C           6.8227   -4.1580   29.6512 C.ar    1  UNL1        0.1350
     34 N           6.1605   -3.3173   30.7023 N.ar    1  UNL1       -0.1569
     35 N           5.2807   -2.2900   31.3511 N.ar    1  UNL1       -0.2085
     36 H           6.8296   -4.9099   23.4460 H       1  UNL1        0.1739
     37 H           0.6327    1.9082   24.5363 H       1  UNL1        0.1501
     38 C           9.3019   -7.6678   23.9443 C.3     1  UNL1        0.2543
     39 O           8.3629   -6.4991   23.9910 O.3     1  UNL1       -0.4553
@<TRIPOS>BOND
     1    38    39    1
     2    39     1    1
     3     1     2   ar
     4     2     3   ar
     5     3     4   ar
     6     4     5   ar
     7     5     6   ar
     8     6     7    1
     9     7     8    1
    10     8     9    2
    11     8    10    2
    12     8    11    1
    13    11    12   ar
    14    12    13   ar
    15    13    14   ar
    16    14    15   ar
    17    15    16   ar
    18    15    17    1
    19    17    18    2
    20    17    19   am
    21    19    20    1
    22    20    21    1
    23    21    22   ar
    24    22    23   ar
    25    23    24   ar
    26    24    25   ar
    27    25    26   ar
    28    25    27    1
    29    27    28    1
    30    28    29   ar
    31    29    30   ar
    32    30    31   ar
    33    31    32   ar
    34    32    33   ar
    35    33    34   ar
    36    34    35   ar
    37     6     1   ar
    38    16    11   ar
    39    26    21   ar
    40    35    28   ar
    41    33     4    1
    42    35    31   ar
    43     7    36    1
    44    19    37    1
@<TRIPOS>MOLECULE
*****
 39 44 0 0 0
SMALL
GASTEIGER

@<TRIPOS>ATOM
      1 C           4.3364   -0.7242   33.1021 C.ar    1  UNL1        0.2400
      2 N           3.3541    0.3917   33.3018 N.ar    1  UNL1       -0.2090
      3 C           2.6457    0.9875   32.1214 C.ar    1  UNL1        0.1042
      4 C           2.6848    0.7052   30.6052 C.ar    1  UNL1        0.0463
      5 C           3.6025   -0.1840   31.3908 C.ar    1  UNL1        0.0242
      6 C           4.6104   -1.2443   31.7222 C.ar    1  UNL1        0.1179
      7 N           5.5992   -2.3610   31.5633 N.pl3   1  UNL1       -0.2104
      8 S           6.4619   -3.4129   30.9315 S.O2    1  UNL1        0.0737
      9 O           6.6031   -3.3335   32.4227 O.2     1  UNL1       -0.1499
     10 O           7.4380   -4.4011   31.4977 O.2     1  UNL1       -0.1499
     11 C           7.1512   -4.3913   29.5529 C.ar    1  UNL1        0.1253
     12 C           8.1466   -5.4191   30.0032 C.ar    1  UNL1        0.0202
     13 C           8.8109   -6.3112   28.9968 C.ar    1  UNL1        0.0015
     14 C           8.4798   -6.1755   27.5401 C.ar    1  UNL1        0.0046
     15 C           7.4844   -5.1477   27.0898 C.ar    1  UNL1        0.0547
     16 C           6.8201   -4.2556   28.0962 C.ar    1  UNL1        0.0247
     17 C           7.1798   -5.0426   25.6248 C.2     1  UNL1        0.2461
     18 O           8.0835   -6.1219   25.1067 O.2     1  UNL1       -0.2701
     19 N           6.5778   -4.5823   24.3304 N.am    1  UNL1       -0.2969
     20 C           5.7435   -3.8165   23.3467 C.3     1  UNL1        0.1166
     21 C           4.7674   -2.8282   22.7805 C.ar    1  UNL1       -0.0029
     22 C           4.3057   -2.5466   21.3356 C.ar    1  UNL1       -0.0026
     23 C           3.3375   -1.5731   20.7315 C.ar    1  UNL1       -0.0006
     24 C           2.5930   -0.6125   21.6107 C.ar    1  UNL1       -0.0039
     25 C           2.8166   -0.6254   23.0939 C.ar    1  UNL1       -0.0164
     26 C           3.7552   -1.7247   22.6930 C.ar    1  UNL1       -0.0065
     27 C           2.0534    0.3505   23.9394 C.3     1  UNL1        0.0738
     28 C           1.5482    1.0973   25.1383 C.ar    1  UNL1        0.0861
     29 C           0.6610    1.9399   24.2706 C.ar    1  UNL1        0.1161
     30 N          -0.0798    2.8973   25.1564 N.ar    1  UNL1       -0.2181
     31 C           0.3497    2.6465   26.5714 C.ar    1  UNL1        0.1966
     32 S           0.4561    2.7643   28.0631 S.2     1  UNL1       -0.0278
     33 C           1.9567    1.3267   29.4504 C.ar    1  UNL1        0.1350
     34 N           1.4970    1.6134   28.0516 N.ar    1  UNL1       -0.1569
     35 N           1.3558    1.5341   26.5603 N.ar    1  UNL1       -0.2085
     36 H           5.8508   -2.4899   32.5063 H       1  UNL1        0.1739
     37 H           7.0409   -5.1912   23.7107 H       1  UNL1        0.1501
     38 C           5.0917   -0.5748   35.5835 C.3     1  UNL1        0.2543
     39 O           5.0448   -1.3199   34.2825 O.3     1  UNL1       -0.4553
@<TRIPOS>BOND
     1    38    39    1
     2    39     1    1
     3     1     2   ar
     4     2     3   ar
     5     3     4   ar
     6     4     5   ar
     7     5     6   ar
     8     6     7    1
     9     7     8    1
    10     8     9    2
    11     8    10    2
    12     8    11    1
    13    11    12   ar
    14    12    13   ar
    15    13    14   ar
    16    14    15   ar
    17    15    16   ar
    18    15    17    1
    19    17    18    2
    20    17    19   am
    21    19    20    1
    22    20    21    1
    23    21    22   ar
    24    22    23   ar
    25    23    24   ar
    26    24    25   ar
    27    25    26   ar
    28    25    27    1
    29    27    28    1
    30    28    29   ar
    31    29    30   ar
    32    30    31   ar
    33    31    32   ar
    34    32    33   ar
    35    33    34   ar
    36    34    35   ar
    37     6     1   ar
    38    16    11   ar
    39    26    21   ar
    40    35    28   ar
    41    33     4    1
    42    35    31   ar
    43     7    36    1
    44    19    37    1
@<TRIPOS>MOLECULE
*****
 39 44 0 0 0
SMALL
GASTEIGER

@<TRIPOS>ATOM
      1 C           0.2741    2.9691   26.2890 C.ar    1  UNL1        0.2400
      2 N          -0.0613    3.5569   27.6276 N.ar    1  UNL1       -0.2090
      3 C           0.5687    3.0007   28.8702 C.ar    1  UNL1        0.1042
      4 C           1.5751    1.8611   29.1326 C.ar    1  UNL1        0.0463
      5 C           1.2484    2.0314   27.6785 C.ar    1  UNL1        0.0242
      6 C           1.2395    1.8251   26.1928 C.ar    1  UNL1        0.1179
      7 N           1.5494    1.2646   24.8364 N.pl3   1  UNL1       -0.2104
      8 S           2.1445    0.4105   23.7564 S.O2    1  UNL1        0.0737
      9 O           1.1921    1.4508   23.2459 O.2     1  UNL1       -0.1499
     10 O           1.9743    0.3923   22.2662 O.2     1  UNL1       -0.1499
     11 C           3.1952   -0.9185   23.0762 C.ar    1  UNL1        0.1253
     12 C           3.1054   -1.0312   21.5832 C.ar    1  UNL1        0.0202
     13 C           3.9058   -2.0735   20.8603 C.ar    1  UNL1        0.0015
     14 C           4.7961   -3.0032   21.6304 C.ar    1  UNL1        0.0046
     15 C           4.8859   -2.8906   23.1234 C.ar    1  UNL1        0.0547
     16 C           4.0855   -1.8482   23.8463 C.ar    1  UNL1        0.0247
     17 C           5.7871   -3.8383   23.8580 C.2     1  UNL1        0.2461
     18 O           6.3159   -4.6266   22.6965 O.2     1  UNL1       -0.2701
     19 N           6.5144   -4.5266   24.9748 N.am    1  UNL1       -0.2969
     20 C           6.9887   -4.8808   26.3531 C.3     1  UNL1        0.1166
     21 C           7.1588   -4.8625   27.8433 C.ar    1  UNL1       -0.0029
     22 C           8.0142   -5.7250   28.7945 C.ar    1  UNL1       -0.0026
     23 C           8.2109   -5.7383   30.2814 C.ar    1  UNL1       -0.0006
     24 C           7.4775   -4.7541   31.1438 C.ar    1  UNL1       -0.0039
     25 C           6.5475   -3.7567   30.5191 C.ar    1  UNL1       -0.0164
     26 C           7.0063   -4.4738   29.2841 C.ar    1  UNL1       -0.0065
     27 C           5.8324   -2.7890   31.4147 C.3     1  UNL1        0.0738
     28 C           4.9382   -1.6755   31.8737 C.ar    1  UNL1        0.0861
     29 C           5.3253   -1.9202   33.3021 C.ar    1  UNL1        0.1161
     30 N           4.5883   -0.9328   34.1577 N.ar    1  UNL1       -0.2181
     31 C           3.7459   -0.0780   33.2581 C.ar    1  UNL1        0.1966
     32 S           2.7860    0.9782   32.7964 S.2     1  UNL1       -0.0278
     33 C           2.1842    1.3327   30.3974 C.ar    1  UNL1        0.1350
     34 N           3.0096    0.5034   31.3360 N.ar    1  UNL1       -0.1569
     35 N           3.9621   -0.5369   31.8465 N.ar    1  UNL1       -0.2085
     36 H           0.9808    1.8497   24.2855 H       1  UNL1        0.1739
     37 H           7.0185   -5.1926   24.4538 H       1  UNL1        0.1501
     38 C          -1.7902    3.2195   24.7315 C.3     1  UNL1        0.2543
     39 O          -0.3559    3.5253   25.0466 O.3     1  UNL1       -0.4553
@<TRIPOS>BOND
     1    38    39    1
     2    39     1    1
     3     1     2   ar
     4     2     3   ar
     5     3     4   ar
     6     4     5   ar
     7     5     6   ar
     8     6     7    1
     9     7     8    1
    10     8     9    2
    11     8    10    2
    12     8    11    1
    13    11    12   ar
    14    12    13   ar
    15    13    14   ar
    16    14    15   ar
    17    15    16   ar
    18    15    17    1
    19    17    18    2
    20    17    19   am
    21    19    20    1
    22    20    21    1
    23    21    22   ar
    24    22    23   ar
    25    23    24   ar
    26    24    25   ar
    27    25    26   ar
    28    25    27    1
    29    27    28    1
    30    28    29   ar
    31    29    30   ar
    32    30    31   ar
    33    31    32   ar
    34    32    33   ar
    35    33    34   ar
    36    34    35   ar
    37     6     1   ar
    38    16    11   ar
    39    26    21   ar
    40    35    28   ar
    41    33     4    1
    42    35    31   ar
    43     7    36    1
    44    19    37    1
@<TRIPOS>MOLECULE
*****
 39 44 0 0 0
SMALL
GASTEIGER

@<TRIPOS>ATOM
      1 C           5.8447   -1.7363   30.9181 C.ar    1  UNL1        0.2400
      2 N           4.9790   -0.8067   31.7159 N.ar    1  UNL1       -0.2090
      3 C           3.9102   -0.0058   31.0329 C.ar    1  UNL1        0.1042
      4 C           3.4386    0.1059   29.5682 C.ar    1  UNL1        0.0463
      5 C           4.5736   -0.8583   29.7466 C.ar    1  UNL1        0.0242
      6 C           5.6419   -1.8650   29.4376 C.ar    1  UNL1        0.1179
      7 N           6.5276   -2.8049   28.6746 N.pl3   1  UNL1       -0.2104
      8 S           7.1348   -3.5762   27.5404 S.O2    1  UNL1        0.0737
      9 O           7.7692   -3.8597   28.8697 O.2     1  UNL1       -0.1499
     10 O           8.2516   -4.5753   27.4742 O.2     1  UNL1       -0.1499
     11 C           7.3267   -4.1064   25.8040 C.ar    1  UNL1        0.1253
     12 C           8.4230   -5.1126   25.6158 C.ar    1  UNL1        0.0202
     13 C           8.7162   -5.6554   24.2485 C.ar    1  UNL1        0.0015
     14 C           7.9130   -5.1918   23.0695 C.ar    1  UNL1        0.0046
     15 C           6.8167   -4.1855   23.2578 C.ar    1  UNL1        0.0547
     16 C           6.5236   -3.6428   24.6250 C.ar    1  UNL1        0.0247
     17 C           6.0360   -3.7468   22.0545 C.2     1  UNL1        0.2461
     18 O           6.7203   -4.5690   21.0029 O.2     1  UNL1       -0.2701
     19 N           5.0301   -3.0375   21.1973 N.am    1  UNL1       -0.2969
     20 C           3.9077   -2.1342   20.7792 C.3     1  UNL1        0.1166
     21 C           2.7908   -1.1351   20.8454 C.ar    1  UNL1       -0.0029
     22 C           1.8677   -0.5466   19.7584 C.ar    1  UNL1       -0.0026
     23 C           0.7456    0.4486   19.7837 C.ar    1  UNL1       -0.0006
     24 C           0.3336    1.0814   21.0799 C.ar    1  UNL1       -0.0039
     25 C           1.0436    0.7190   22.3505 C.ar    1  UNL1       -0.0164
     26 C           1.8003   -0.1484   21.3888 C.ar    1  UNL1       -0.0065
     27 C           0.6026    1.3732   23.6262 C.3     1  UNL1        0.0738
     28 C           0.5251    1.7432   25.0779 C.ar    1  UNL1        0.0861
     29 C          -0.6085    2.6861   24.8027 C.ar    1  UNL1        0.1161
     30 N          -1.0147    3.3146   26.1026 N.ar    1  UNL1       -0.2181
     31 C          -0.1322    2.7601   27.1813 C.ar    1  UNL1        0.1966
     32 S           0.4694    2.5102   28.5325 S.2     1  UNL1       -0.0278
     33 C           2.3597    0.9234   28.9218 C.ar    1  UNL1        0.1350
     34 N           1.4540    1.5054   27.8773 N.ar    1  UNL1       -0.1569
     35 N           0.8195    1.7889   26.5479 N.ar    1  UNL1       -0.2085
     36 H           7.0829   -3.1410   29.4148 H       1  UNL1        0.1739
     37 H           5.2618   -3.4238   20.3219 H       1  UNL1        0.1501
     38 C           6.5772   -3.8599   32.2235 C.3     1  UNL1        0.2543
     39 O           6.9135   -2.5372   31.6012 O.3     1  UNL1       -0.4553
@<TRIPOS>BOND
     1    38    39    1
     2    39     1    1
     3     1     2   ar
     4     2     3   ar
     5     3     4   ar
     6     4     5   ar
     7     5     6   ar
     8     6     7    1
     9     7     8    1
    10     8     9    2
    11     8    10    2
    12     8    11    1
    13    11    12   ar
    14    12    13   ar
    15    13    14   ar
    16    14    15   ar
    17    15    16   ar
    18    15    17    1
    19    17    18    2
    20    17    19   am
    21    19    20    1
    22    20    21    1
    23    21    22   ar
    24    22    23   ar
    25    23    24   ar
    26    24    25   ar
    27    25    26   ar
    28    25    27    1
    29    27    28    1
    30    28    29   ar
    31    29    30   ar
    32    30    31   ar
    33    31    32   ar
    34    32    33   ar
    35    33    34   ar
    36    34    35   ar
    37     6     1   ar
    38    16    11   ar
    39    26    21   ar
    40    35    28   ar
    41    33     4    1
    42    35    31   ar
    43     7    36    1
    44    19    37    1
@<TRIPOS>MOLECULE
*****
 39 44 0 0 0
SMALL
GASTEIGER

@<TRIPOS>ATOM
      1 C          -1.3778    3.1851   21.7555 C.ar    1  UNL1        0.2400
      2 N          -2.0823    3.6837   22.9823 N.ar    1  UNL1       -0.2090
      3 C          -1.6094    3.2623   24.3421 C.ar    1  UNL1        0.1042
      4 C          -0.4642    2.3532   24.8343 C.ar    1  UNL1        0.0463
      5 C          -0.5261    2.4606   23.3394 C.ar    1  UNL1        0.0242
      6 C          -0.2004    2.2653   21.8883 C.ar    1  UNL1        0.1179
      7 N           0.4775    1.7883   20.6381 N.pl3   1  UNL1       -0.2104
      8 S           1.4343    1.0814   19.7244 S.O2    1  UNL1        0.0737
      9 O           0.4098    1.9058   19.0030 O.2     1  UNL1       -0.1499
     10 O           1.5679    1.0368   18.2311 O.2     1  UNL1       -0.1499
     11 C           2.8459    0.0013   19.3078 C.ar    1  UNL1        0.1253
     12 C           3.0764   -0.1190   17.8305 C.ar    1  UNL1        0.0202
     13 C           4.1982   -0.9699   17.3133 C.ar    1  UNL1        0.0015
     14 C           5.0895   -1.7005   18.2734 C.ar    1  UNL1        0.0046
     15 C           4.8591   -1.5801   19.7507 C.ar    1  UNL1        0.0547
     16 C           3.7373   -0.7292   20.2679 C.ar    1  UNL1        0.0247
     17 C           5.7716   -2.3258   20.6787 C.2     1  UNL1        0.2461
     18 O           6.6674   -2.9817   19.6700 O.2     1  UNL1       -0.2701
     19 N           6.3893   -2.8557   21.9387 N.am    1  UNL1       -0.2969
     20 C           6.6451   -3.1122   23.3944 C.3     1  UNL1        0.1166
     21 C           6.5114   -3.0677   24.8878 C.ar    1  UNL1       -0.0029
     22 C           7.3201   -3.7407   26.0162 C.ar    1  UNL1       -0.0026
     23 C           7.2189   -3.7215   27.5127 C.ar    1  UNL1       -0.0006
     24 C           6.1458   -2.9145   28.1815 C.ar    1  UNL1       -0.0039
     25 C           5.1740   -2.1267   27.3539 C.ar    1  UNL1       -0.0164
     26 C           6.0027   -2.7269   26.2571 C.ar    1  UNL1       -0.0065
     27 C           4.1153   -1.3323   28.0595 C.3     1  UNL1        0.0738
     28 C           2.9411   -0.4296   28.2973 C.ar    1  UNL1        0.0861
     29 C           3.0810   -0.5972   29.7813 C.ar    1  UNL1        0.1161
     30 N           2.0053    0.2122   30.4428 N.ar    1  UNL1       -0.2181
     31 C           1.2005    0.8801   29.3676 C.ar    1  UNL1        0.1966
     32 S           0.1560    1.7183   28.6919 S.2     1  UNL1       -0.0278
     33 C          -0.0214    1.9546   26.2109 C.ar    1  UNL1        0.1350
     34 N           0.7543    1.3080   27.3201 N.ar    1  UNL1       -0.1569
     35 N           1.7788    0.4835   28.0416 N.ar    1  UNL1       -0.2085
     36 H          -0.0784    2.2468   19.9673 H       1  UNL1        0.1739
     37 H           7.1106   -3.4006   21.5489 H       1  UNL1        0.1501
     38 C          -3.3193    3.6555   20.0943 C.3     1  UNL1        0.2543
     39 O          -1.8507    3.6066   20.3958 O.3     1  UNL1       -0.4553
@<TRIPOS>BOND
     1    38    39    1
     2    39     1    1
     3     1     2   ar
     4     2     3   ar
     5     3     4   ar
     6     4     5   ar
     7     5     6   ar
     8     6     7    1
     9     7     8    1
    10     8     9    2
    11     8    10    2
    12     8    11    1
    13    11    12   ar
    14    12    13   ar
    15    13    14   ar
    16    14    15   ar
    17    15    16   ar
    18    15    17    1
    19    17    18    2
    20    17    19   am
    21    19    20    1
    22    20    21    1
    23    21    22   ar
    24    22    23   ar
    25    23    24   ar
    26    24    25   ar
    27    25    26   ar
    28    25    27    1
    29    27    28    1
    30    28    29   ar
    31    29    30   ar
    32    30    31   ar
    33    31    32   ar
    34    32    33   ar
    35    33    34   ar
    36    34    35   ar
    37     6     1   ar
    38    16    11   ar
    39    26    21   ar
    40    35    28   ar
    41    33     4    1
    42    35    31   ar
    43     7    36    1
    44    19    37    1
@<TRIPOS>MOLECULE
*****
 39 44 0 0 0
SMALL
GASTEIGER

@<TRIPOS>ATOM
      1 C           0.4189    2.6996   27.5394 C.ar    1  UNL1        0.2400
      2 N           0.0184    2.9652   26.1185 N.ar    1  UNL1       -0.2090
      3 C           0.6207    2.1587   25.0063 C.ar    1  UNL1        0.1042
      4 C           1.6515    1.0116   24.9632 C.ar    1  UNL1        0.0463
      5 C           1.3715    1.4960   26.3549 C.ar    1  UNL1        0.0242
      6 C           1.4216    1.6276   27.8483 C.ar    1  UNL1        0.1179
      7 N           1.7963    1.3920   29.2815 N.pl3   1  UNL1       -0.2104
      8 S           2.4551    0.8148   30.4992 S.O2    1  UNL1        0.0737
      9 O           1.4900    1.9219   30.8038 O.2     1  UNL1       -0.1499
     10 O           2.3385    1.1271   31.9616 O.2     1  UNL1       -0.1499
     11 C           3.5694   -0.3048   31.4145 C.ar    1  UNL1        0.1253
     12 C           3.5360   -0.0822   32.8974 C.ar    1  UNL1        0.0202
     13 C           4.3931   -0.9184   33.8008 C.ar    1  UNL1        0.0015
     14 C           5.2835   -1.9773   33.2212 C.ar    1  UNL1        0.0046
     15 C           5.3168   -2.1999   31.7383 C.ar    1  UNL1        0.0547
     16 C           4.4598   -1.3637   30.8349 C.ar    1  UNL1        0.0247
     17 C           6.2200   -3.2682   31.1969 C.2     1  UNL1        0.2461
     18 O           6.8134   -3.7645   32.4820 O.2     1  UNL1       -0.2701
     19 N           6.9279   -4.1730   30.2325 N.am    1  UNL1       -0.2969
     20 C           7.3637   -4.8165   28.9494 C.3     1  UNL1        0.1166
     21 C           7.4802   -5.1288   27.4869 C.ar    1  UNL1       -0.0029
     22 C           8.3274   -6.1635   26.7175 C.ar    1  UNL1       -0.0026
     23 C           8.4715   -6.5052   25.2641 C.ar    1  UNL1       -0.0006
     24 C           7.6783   -5.7554   24.2351 C.ar    1  UNL1       -0.0039
     25 C           6.7410   -4.6640   24.6596 C.ar    1  UNL1       -0.0164
     26 C           7.2649   -5.0761   26.0034 C.ar    1  UNL1       -0.0065
     27 C           5.9653   -3.9374   23.6012 C.3     1  UNL1        0.0738
     28 C           5.0218   -2.9748   22.9428 C.ar    1  UNL1        0.0861
     29 C           5.3653   -3.5246   21.5902 C.ar    1  UNL1        0.1161
     30 N           4.5687   -2.7704   20.5673 N.ar    1  UNL1       -0.2181
     31 C           3.7329   -1.7544   21.2876 C.ar    1  UNL1        0.1966
     32 S           2.7582   -0.6428   21.5416 S.2     1  UNL1       -0.0278
     33 C           2.2312    0.2267   23.8239 C.ar    1  UNL1        0.1350
     34 N           3.0479   -0.7735   23.0605 N.ar    1  UNL1       -0.1569
     35 N           4.0130   -1.8807   22.7558 N.ar    1  UNL1       -0.2085
     36 H           1.2300    2.0731   29.7111 H       1  UNL1        0.1739
     37 H           7.4702   -4.6943   30.8676 H       1  UNL1        0.1501
     38 C           0.3497    4.8736   28.9602 C.3     1  UNL1        0.2543
     39 O          -0.1835    3.5061   28.6516 O.3     1  UNL1       -0.4553
@<TRIPOS>BOND
     1    38    39    1
     2    39     1    1
     3     1     2   ar
     4     2     3   ar
     5     3     4   ar
     6     4     5   ar
     7     5     6   ar
     8     6     7    1
     9     7     8    1
    10     8     9    2
    11     8    10    2
    12     8    11    1
    13    11    12   ar
    14    12    13   ar
    15    13    14   ar
    16    14    15   ar
    17    15    16   ar
    18    15    17    1
    19    17    18    2
    20    17    19   am
    21    19    20    1
    22    20    21    1
    23    21    22   ar
    24    22    23   ar
    25    23    24   ar
    26    24    25   ar
    27    25    26   ar
    28    25    27    1
    29    27    28    1
    30    28    29   ar
    31    29    30   ar
    32    30    31   ar
    33    31    32   ar
    34    32    33   ar
    35    33    34   ar
    36    34    35   ar
    37     6     1   ar
    38    16    11   ar
    39    26    21   ar
    40    35    28   ar
    41    33     4    1
    42    35    31   ar
    43     7    36    1
    44    19    37    1
@<TRIPOS>MOLECULE
*****
 39 44 0 0 0
SMALL
GASTEIGER

@<TRIPOS>ATOM
      1 C           2.4316    1.4820   32.4019 C.ar    1  UNL1        0.2400
      2 N           1.3942    2.4858   31.9940 N.ar    1  UNL1       -0.2090
      3 C           1.0101    2.6231   30.5504 C.ar    1  UNL1        0.1042
      4 C           1.4660    1.9152   29.2577 C.ar    1  UNL1        0.0463
      5 C           2.1680    1.4080   30.4824 C.ar    1  UNL1        0.0242
      6 C           3.0849    0.6156   31.3663 C.ar    1  UNL1        0.1179
      7 N           4.1176   -0.3761   31.8135 N.pl3   1  UNL1       -0.2104
      8 S           5.1541   -1.4597   31.7756 S.O2    1  UNL1        0.0737
      9 O           4.8854   -0.9309   33.1532 O.2     1  UNL1       -0.1499
     10 O           5.9747   -2.1184   32.8444 O.2     1  UNL1       -0.1499
     11 C           6.2225   -2.7125   30.9869 C.ar    1  UNL1        0.1253
     12 C           7.0943   -3.4405   31.9666 C.ar    1  UNL1        0.0202
     13 C           8.0354   -4.5052   31.4863 C.ar    1  UNL1        0.0015
     14 C           8.1047   -4.8418   30.0262 C.ar    1  UNL1        0.0046
     15 C           7.2329   -4.1138   29.0464 C.ar    1  UNL1        0.0547
     16 C           6.2918   -3.0491   29.5268 C.ar    1  UNL1        0.0247
     17 C           7.3310   -4.4788   27.5949 C.2     1  UNL1        0.2461
     18 O           8.3773   -5.5503   27.6798 O.2     1  UNL1       -0.2701
     19 N           7.0847   -4.4912   26.1153 N.am    1  UNL1       -0.2969
     20 C           6.5207   -4.1494   24.7680 C.3     1  UNL1        0.1166
     21 C           5.7000   -3.4906   23.6991 C.ar    1  UNL1       -0.0029
     22 C           5.6355   -3.7004   22.1720 C.ar    1  UNL1       -0.0026
     23 C           4.8332   -3.0658   21.0749 C.ar    1  UNL1       -0.0006
     24 C           3.8468   -1.9826   21.3974 C.ar    1  UNL1       -0.0039
     25 C           3.6628   -1.5342   22.8169 C.ar    1  UNL1       -0.0164
     26 C           4.7117   -2.5862   23.0243 C.ar    1  UNL1       -0.0065
     27 C           2.6670   -0.4486   23.0992 C.3     1  UNL1        0.0738
     28 C           1.8321    0.5531   23.8408 C.ar    1  UNL1        0.0861
     29 C           1.1833    0.9955   22.5628 C.ar    1  UNL1        0.1161
     30 N           0.1989    2.0780   22.8933 N.ar    1  UNL1       -0.2181
     31 C           0.2394    2.3045   24.3755 C.ar    1  UNL1        0.1966
     32 S          -0.0642    2.8660   25.7330 S.2     1  UNL1       -0.0278
     33 C           1.0552    2.0822   27.8247 C.ar    1  UNL1        0.1350
     34 N           0.9801    1.8910   26.3388 N.ar    1  UNL1       -0.1569
     35 N           1.2488    1.3621   24.9611 N.ar    1  UNL1       -0.2085
     36 H           4.1101   -0.1929   32.7808 H       1  UNL1        0.1739
     37 H           7.7182   -5.1971   25.8515 H       1  UNL1        0.1501
     38 C           2.5413    2.4652   34.8042 C.3     1  UNL1        0.2543
     39 O           2.8156    1.3448   33.8454 O.3     1  UNL1       -0.4553
@<TRIPOS>BOND
     1    38    39    1
     2    39     1    1
     3     1     2   ar
     4     2     3   ar
     5     3     4   ar
     6     4     5   ar
     7     5     6   ar
     8     6     7    1
     9     7     8    1
    10     8     9    2
    11     8    10    2
    12     8    11    1
    13    11    12   ar
    14    12    13   ar
    15    13    14   ar
    16    14    15   ar
    17    15    16   ar
    18    15    17    1
    19    17    18    2
    20    17    19   am
    21    19    20    1
    22    20    21    1
    23    21    22   ar
    24    22    23   ar
    25    23    24   ar
    26    24    25   ar
    27    25    26   ar
    28    25    27    1
    29    27    28    1
    30    28    29   ar
    31    29    30   ar
    32    30    31   ar
    33    31    32   ar
    34    32    33   ar
    35    33    34   ar
    36    34    35   ar
    37     6     1   ar
    38    16    11   ar
    39    26    21   ar
    40    35    28   ar
    41    33     4    1
    42    35    31   ar
    43     7    36    1
    44    19    37    1
@<TRIPOS>MOLECULE
*****
 39 44 0 0 0
SMALL
GASTEIGER

@<TRIPOS>ATOM
      1 C           4.9108   -1.6517   32.9016 C.ar    1  UNL1        0.2400
      2 N           5.9866   -2.6494   33.2140 N.ar    1  UNL1       -0.2090
      3 C           6.6462   -3.4132   32.1042 C.ar    1  UNL1        0.1042
      4 C           6.4711   -3.4241   30.5714 C.ar    1  UNL1        0.0463
      5 C           5.5514   -2.4595   31.2595 C.ar    1  UNL1        0.0242
      6 C           4.4947   -1.4179   31.4797 C.ar    1  UNL1        0.1179
      7 N           3.4154   -0.4123   31.2078 N.pl3   1  UNL1       -0.2104
      8 S           2.4307    0.4485   30.4735 S.O2    1  UNL1        0.0737
      9 O           2.4094    0.6429   31.9606 O.2     1  UNL1       -0.1499
     10 O           1.4288    1.4655   30.9339 O.2     1  UNL1       -0.1499
     11 C           1.5672    1.1070   29.0059 C.ar    1  UNL1        0.1253
     12 C           0.5344    2.1398   29.3473 C.ar    1  UNL1        0.0202
     13 C          -0.2696    2.7852   28.2578 C.ar    1  UNL1        0.0015
     14 C          -0.0407    2.3979   26.8269 C.ar    1  UNL1        0.0046
     15 C           0.9921    1.3651   26.4855 C.ar    1  UNL1        0.0547
     16 C           1.7960    0.7197   27.5750 C.ar    1  UNL1        0.0247
     17 C           1.1917    1.0046   25.0432 C.2     1  UNL1        0.2461
     18 O           0.1727    1.9111   24.4188 O.2     1  UNL1       -0.2701
     19 N           1.7266    0.3457   23.8064 N.am    1  UNL1       -0.2969
     20 C           2.5392   -0.5403   22.9092 C.3     1  UNL1        0.1166
     21 C           3.5411   -1.5573   22.4488 C.ar    1  UNL1       -0.0029
     22 C           3.9116   -2.0777   21.0444 C.ar    1  UNL1       -0.0026
     23 C           4.9016   -3.0878   20.5449 C.ar    1  UNL1       -0.0006
     24 C           5.7809   -3.8196   21.5153 C.ar    1  UNL1       -0.0039
     25 C           5.6700   -3.5412   22.9851 C.ar    1  UNL1       -0.0164
     26 C           4.6238   -2.5951   22.4750 C.ar    1  UNL1       -0.0065
     27 C           6.5664   -4.2931   23.9237 C.3     1  UNL1        0.0738
     28 C           7.2158   -4.7694   25.1892 C.ar    1  UNL1        0.0861
     29 C           8.0955   -5.7056   24.4148 C.ar    1  UNL1        0.1161
     30 N           8.9712   -6.4332   25.3914 N.ar    1  UNL1       -0.2181
     31 C           8.6327   -5.9467   26.7693 C.ar    1  UNL1        0.1966
     32 S           8.6489   -5.7879   28.2608 S.2     1  UNL1       -0.0278
     33 C           7.1542   -4.2072   29.4896 C.ar    1  UNL1        0.1350
     34 N           7.5266   -4.7241   28.1316 N.ar    1  UNL1       -0.1569
     35 N           7.5479   -4.9184   26.6444 N.ar    1  UNL1       -0.2085
     36 H           3.2271   -0.1234   32.1299 H       1  UNL1        0.1739
     37 H           1.1734    0.7984   23.1294 H       1  UNL1        0.1501
     38 C           4.8910    0.3583   34.5476 C.3     1  UNL1        0.2543
     39 O           4.2513   -0.8880   34.0115 O.3     1  UNL1       -0.4553
@<TRIPOS>BOND
     1    38    39    1
     2    39     1    1
     3     1     2   ar
     4     2     3   ar
     5     3     4   ar
     6     4     5   ar
     7     5     6   ar
     8     6     7    1
     9     7     8    1
    10     8     9    2
    11     8    10    2
    12     8    11    1
    13    11    12   ar
    14    12    13   ar
    15    13    14   ar
    16    14    15   ar
    17    15    16   ar
    18    15    17    1
    19    17    18    2
    20    17    19   am
    21    19    20    1
    22    20    21    1
    23    21    22   ar
    24    22    23   ar
    25    23    24   ar
    26    24    25   ar
    27    25    26   ar
    28    25    27    1
    29    27    28    1
    30    28    29   ar
    31    29    30   ar
    32    30    31   ar
    33    31    32   ar
    34    32    33   ar
    35    33    34   ar
    36    34    35   ar
    37     6     1   ar
    38    16    11   ar
    39    26    21   ar
    40    35    28   ar
    41    33     4    1
    42    35    31   ar
    43     7    36    1
    44    19    37    1
