@<TRIPOS>MOLECULE
*****
 48 53 0 0 0
SMALL
GASTEIGER

@<TRIPOS>ATOM
      1 N           0.4808    1.1520   26.9582 N.am    1  UNL1       -0.2964
      2 C           0.2336    2.6092   26.7028 C.2     1  UNL1        0.2461
      3 O           1.2297    3.6311   27.1648 O.2     1  UNL1       -0.2701
      4 H          -0.1730    0.4813   26.6550 H       1  UNL1        0.1501
      5 C          -1.0097    3.0446   25.9854 C.ar    1  UNL1        0.0548
      6 C          -2.2411    3.3978   26.7656 C.ar    1  UNL1        0.0046
      7 C          -3.4843    3.8331   26.0481 C.ar    1  UNL1        0.0013
      8 C          -3.4961    3.9154   24.5504 C.ar    1  UNL1        0.0133
      9 C          -4.5659    4.3088   23.5752 C.ar    1  UNL1       -0.0023
     10 C          -3.9955    4.1987   22.1923 C.ar    1  UNL1        0.0922
     11 N          -2.5733    3.7373   22.3128 N.ar    1  UNL1       -0.3230
     12 C          -1.6261    3.4938   21.1755 C.3     1  UNL1        0.1305
     13 C          -2.2647    3.5622   23.7702 C.ar    1  UNL1        0.0598
     14 C          -1.0215    3.1269   24.4877 C.ar    1  UNL1        0.0217
     15 C          -4.7201    4.4976   20.9133 C.ar    1  UNL1        0.1781
     16 N          -4.8019    5.9081   20.4096 N.ar    1  UNL1       -0.2229
     17 C          -5.5265    6.2070   19.1307 C.ar    1  UNL1        0.1135
     18 C          -6.1693    5.0953   18.3555 C.ar    1  UNL1        0.0959
     19 CL         -6.8939    5.3942   17.0765 Cl      1  UNL1       -0.0790
     20 C          -6.0875    3.6848   18.8592 C.ar    1  UNL1        0.1135
     21 N          -5.3629    3.3859   20.1381 N.ar    1  UNL1       -0.2229
     22 C          -5.9610    4.7370   23.9221 C.3     1  UNL1        0.0239
     23 C          -6.3363    5.8084   24.9025 C.3     1  UNL1        0.0044
     24 C          -7.8329    5.9025   24.9358 C.3     1  UNL1        0.0003
     25 C          -8.3826    4.8894   23.9760 C.3     1  UNL1        0.0003
     26 C          -7.2257    4.1690   23.3495 C.3     1  UNL1        0.0044
     27 C           1.7241    0.7166   27.6757 C.3     1  UNL1        0.1260
     28 C           1.0190    0.8701   28.9906 C.3     1  UNL1        0.0270
     29 C           2.2622    0.4347   29.7081 C.3     1  UNL1        0.0043
     30 C           2.9673    0.2812   28.3931 C.3     1  UNL1        0.0270
     31 N           1.6504    0.2072   25.1291 N.am    1  UNL1       -0.2826
     32 C           2.4292    0.5630   26.3607 C.2     1  UNL1        0.2419
     33 O           3.9132    0.7653   26.2772 O.2     1  UNL1       -0.2731
     34 H           0.6764    0.0744   25.1838 H       1  UNL1        0.1549
     35 C           2.8060    0.8803   21.3926 C.ar    1  UNL1        0.1397
     36 C           2.1009    1.0338   22.7076 C.ar    1  UNL1        0.0515
     37 C           2.3555    0.0536   23.8141 C.ar    1  UNL1        0.0534
     38 C           3.3153   -1.0801   23.6056 C.ar    1  UNL1        0.0149
     39 C           4.0204   -1.2337   22.2905 C.ar    1  UNL1        0.0043
     40 C           3.7658   -0.2535   21.1841 C.ar    1  UNL1        0.0341
     41 C           4.4709   -0.4070   19.8691 C.2     1  UNL1        0.0042
     42 C           3.9958   -1.4277   18.8779 C.2     1  UNL1        0.0152
     43 C           4.7009   -1.5812   17.5630 C.2     1  UNL1        0.0729
     44 O           4.1166   -0.9719   16.3230 O.co2   1  UNL1       -0.5446
     45 O           5.9903   -2.3440   17.4879 O.co2   1  UNL1       -0.5446
     46 O           2.5514    1.8606   20.2861 O.3     1  UNL1       -0.4754
     47 C           1.1272    0.8861   18.3440 C.3     1  UNL1        0.0512
     48 C           1.2634    1.8081   19.5193 C.3     1  UNL1        0.2055
@<TRIPOS>UNITY_ATOM_ATTR
44 1
charge -1
@<TRIPOS>BOND
     1    47    48    1
     2    48    46    1
     3    46    35    1
     4    35    36   ar
     5    36    37   ar
     6    37    31    1
     7    31    32   am
     8    32    33    2
     9    32    27    1
    10    27     1    1
    11     1     2   am
    12     2     3    2
    13     2     5    1
    14     5     6   ar
    15     6     7   ar
    16     7     8   ar
    17     8     9   ar
    18     9    22    1
    19    22    23    1
    20    23    24    1
    21    24    25    1
    22    25    26    1
    23     9    10   ar
    24    10    15    1
    25    15    16   ar
    26    16    17   ar
    27    17    18   ar
    28    18    19    1
    29    18    20   ar
    30    20    21   ar
    31    10    11   ar
    32    11    12    1
    33    11    13   ar
    34    13    14   ar
    35    27    28    1
    36    28    29    1
    37    29    30    1
    38    37    38   ar
    39    38    39   ar
    40    39    40   ar
    41    40    41    1
    42    41    42    2
    43    42    43    1
    44    43    44   ar
    45    43    45   ar
    46    40    35   ar
    47    30    27    1
    48    14     5   ar
    49    13     8   ar
    50    26    22    1
    51    21    15   ar
    52    31    34    1
    53     1     4    1
@<TRIPOS>MOLECULE
*****
 48 53 0 0 0
SMALL
GASTEIGER

@<TRIPOS>ATOM
      1 N           7.0424   -4.7514   26.1269 N.am    1  UNL1       -0.2964
      2 C           7.7632   -3.6152   26.7897 C.2     1  UNL1        0.2461
      3 O           9.1085   -3.1842   26.2853 O.2     1  UNL1       -0.2701
      4 H           6.1595   -5.0343   26.4580 H       1  UNL1        0.1501
      5 C           7.1387   -2.9099   27.9570 C.ar    1  UNL1        0.0548
      6 C           7.5947   -3.2197   29.3520 C.ar    1  UNL1        0.0046
      7 C           6.9702   -2.5144   30.5192 C.ar    1  UNL1        0.0013
      8 C           5.8897   -1.4992   30.2915 C.ar    1  UNL1        0.0133
      9 C           5.0943   -0.6503   31.2385 C.ar    1  UNL1       -0.0023
     10 C           4.1467    0.1842   30.4288 C.ar    1  UNL1        0.0922
     11 N           4.3564   -0.1490   28.9814 N.ar    1  UNL1       -0.3230
     12 C           3.6185    0.4526   27.8223 C.3     1  UNL1        0.1305
     13 C           5.4336   -1.1894   28.8965 C.ar    1  UNL1        0.0598
     14 C           6.0581   -1.8947   27.7293 C.ar    1  UNL1        0.0217
     15 C           3.1623    1.1776   30.9712 C.ar    1  UNL1        0.1781
     16 N           1.6902    0.9101   30.8634 N.ar    1  UNL1       -0.2229
     17 C           0.7058    1.9034   31.4057 C.ar    1  UNL1        0.1135
     18 C           1.1933    3.1641   32.0560 C.ar    1  UNL1        0.0959
     19 CL          0.2089    4.1574   32.5984 Cl      1  UNL1       -0.0790
     20 C           2.6654    3.4315   32.1639 C.ar    1  UNL1        0.1135
     21 N           3.6498    2.4382   31.6215 N.ar    1  UNL1       -0.2229
     22 C           5.2239   -0.6380   32.7329 C.3     1  UNL1        0.0239
     23 C           4.2235   -1.1823   33.7090 C.3     1  UNL1        0.0044
     24 C           4.7579   -0.9600   35.0928 C.3     1  UNL1        0.0003
     25 C           6.0885   -0.2783   34.9720 C.3     1  UNL1        0.0003
     26 C           6.3765   -0.0793   33.5134 C.3     1  UNL1        0.0044
     27 C           7.6670   -5.4568   24.9596 C.3     1  UNL1        0.1260
     28 C           8.3955   -6.3695   25.9009 C.3     1  UNL1        0.0270
     29 C           9.0200   -7.0748   24.7337 C.3     1  UNL1        0.0043
     30 C           8.2915   -6.1621   23.7923 C.3     1  UNL1        0.0270
     31 N           5.6082   -3.9710   24.4083 N.am    1  UNL1       -0.2826
     32 C           6.9384   -4.5441   24.0182 C.2     1  UNL1        0.2419
     33 O           7.5400   -4.2044   22.6868 O.2     1  UNL1       -0.2731
     34 H           5.2133   -4.1940   25.2821 H       1  UNL1        0.1549
     35 C           3.9342   -2.5571   21.0994 C.ar    1  UNL1        0.1397
     36 C           4.6628   -3.4697   22.0408 C.ar    1  UNL1        0.0515
     37 C           4.8796   -3.0583   23.4669 C.ar    1  UNL1        0.0534
     38 C           4.3679   -1.7343   23.9516 C.ar    1  UNL1        0.0149
     39 C           3.6393   -0.8215   23.0102 C.ar    1  UNL1        0.0043
     40 C           3.4225   -1.2329   21.5841 C.ar    1  UNL1        0.0341
     41 C           2.6939   -0.3203   20.6427 C.2     1  UNL1        0.0042
     42 C           1.1972   -0.2332   20.6903 C.2     1  UNL1        0.0152
     43 C           0.4687    0.6794   19.7489 C.2     1  UNL1        0.0729
     44 O          -0.5831    1.6122   20.2721 O.co2   1  UNL1       -0.5446
     45 O           0.7919    0.6594   18.2843 O.co2   1  UNL1       -0.5446
     46 O           3.7174   -2.9685   19.6733 O.3     1  UNL1       -0.4754
     47 C           4.5657   -5.2286   18.7129 C.3     1  UNL1        0.0512
     48 C           3.4747   -4.4100   19.3372 C.3     1  UNL1        0.2055
@<TRIPOS>UNITY_ATOM_ATTR
44 1
charge -1
@<TRIPOS>BOND
     1    47    48    1
     2    48    46    1
     3    46    35    1
     4    35    36   ar
     5    36    37   ar
     6    37    31    1
     7    31    32   am
     8    32    33    2
     9    32    27    1
    10    27     1    1
    11     1     2   am
    12     2     3    2
    13     2     5    1
    14     5     6   ar
    15     6     7   ar
    16     7     8   ar
    17     8     9   ar
    18     9    22    1
    19    22    23    1
    20    23    24    1
    21    24    25    1
    22    25    26    1
    23     9    10   ar
    24    10    15    1
    25    15    16   ar
    26    16    17   ar
    27    17    18   ar
    28    18    19    1
    29    18    20   ar
    30    20    21   ar
    31    10    11   ar
    32    11    12    1
    33    11    13   ar
    34    13    14   ar
    35    27    28    1
    36    28    29    1
    37    29    30    1
    38    37    38   ar
    39    38    39   ar
    40    39    40   ar
    41    40    41    1
    42    41    42    2
    43    42    43    1
    44    43    44   ar
    45    43    45   ar
    46    40    35   ar
    47    30    27    1
    48    14     5   ar
    49    13     8   ar
    50    26    22    1
    51    21    15   ar
    52    31    34    1
    53     1     4    1
@<TRIPOS>MOLECULE
*****
 48 53 0 0 0
SMALL
GASTEIGER

@<TRIPOS>ATOM
      1 N           6.6491   -5.3858   26.0134 N.am    1  UNL1       -0.2964
      2 C           7.0968   -4.2926   25.0891 C.2     1  UNL1        0.2461
      3 O           8.5582   -4.0917   24.8174 O.2     1  UNL1       -0.2701
      4 H           5.6899   -5.5177   26.1917 H       1  UNL1        0.1501
      5 C           6.0830   -3.4002   24.4364 C.ar    1  UNL1        0.0548
      6 C           5.8302   -3.5053   22.9617 C.ar    1  UNL1        0.0046
      7 C           4.8165   -2.6129   22.3091 C.ar    1  UNL1        0.0013
      8 C           4.0556   -1.6153   23.1313 C.ar    1  UNL1        0.0133
      9 C           3.0030   -0.6100   22.7686 C.ar    1  UNL1       -0.0023
     10 C           2.6053    0.1164   24.0192 C.ar    1  UNL1        0.0922
     11 N           3.4121   -0.4399   25.1548 N.ar    1  UNL1       -0.3230
     12 C           3.3360   -0.0028   26.5877 C.3     1  UNL1        0.1305
     13 C           4.3084   -1.5102   24.6060 C.ar    1  UNL1        0.0598
     14 C           5.3221   -2.4026   25.2586 C.ar    1  UNL1        0.0217
     15 C           1.5807    1.2076   24.1172 C.ar    1  UNL1        0.1781
     16 N           0.3570    1.0137   24.9627 N.ar    1  UNL1       -0.2229
     17 C          -0.6676    2.1048   25.0606 C.ar    1  UNL1        0.1135
     18 C          -0.4684    3.3899   24.3131 C.ar    1  UNL1        0.0959
     19 CL         -1.4930    4.4811   24.4110 Cl      1  UNL1       -0.0790
     20 C           0.7553    3.5838   23.4676 C.ar    1  UNL1        0.1135
     21 N           1.7799    2.4927   23.3696 N.ar    1  UNL1       -0.2229
     22 C           2.4459   -0.3728   21.3962 C.3     1  UNL1        0.0239
     23 C           0.9948   -0.2218   21.0477 C.3     1  UNL1        0.0044
     24 C           0.8942   -0.0006   19.5676 C.3     1  UNL1        0.0003
     25 C           2.2830   -0.0150   19.0012 C.3     1  UNL1        0.0003
     26 C           3.2421   -0.2451   20.1314 C.3     1  UNL1        0.0044
     27 C           7.6628   -6.2783   26.6661 C.3     1  UNL1        0.1260
     28 C           7.5931   -7.2135   25.4954 C.3     1  UNL1        0.0270
     29 C           8.6068   -8.1059   26.1480 C.3     1  UNL1        0.0043
     30 C           8.6766   -7.1707   27.3187 C.3     1  UNL1        0.0270
     31 N           6.4763   -4.9392   28.5499 N.am    1  UNL1       -0.2826
     32 C           7.7326   -5.3431   27.8367 C.2     1  UNL1        0.2419
     33 O           9.0586   -4.8116   28.2942 O.2     1  UNL1       -0.2731
     34 H           5.6060   -5.2879   28.2496 H       1  UNL1        0.1549
     35 C           6.3094   -1.6119   30.7066 C.ar    1  UNL1        0.1397
     36 C           6.2397   -2.5472   29.5360 C.ar    1  UNL1        0.0515
     37 C           6.5461   -4.0039   29.7206 C.ar    1  UNL1        0.0534
     38 C           6.9222   -4.5253   31.0757 C.ar    1  UNL1        0.0149
     39 C           6.9920   -3.5900   32.2464 C.ar    1  UNL1        0.0043
     40 C           6.6856   -2.1333   32.0619 C.ar    1  UNL1        0.0341
     41 C           6.7554   -1.1980   33.2324 C.2     1  UNL1        0.0042
     42 C           5.5432   -0.9747   34.0873 C.2     1  UNL1        0.0152
     43 C           5.6130   -0.0395   35.2579 C.2     1  UNL1        0.0729
     44 O           5.4207    1.4340   35.0532 O.co2   1  UNL1       -0.5446
     45 O           5.8751   -0.5776   36.6333 O.co2   1  UNL1       -0.5446
     46 O           6.0030   -0.1552   30.5220 O.3     1  UNL1       -0.4754
     47 C           3.4836   -0.6244   30.9490 C.3     1  UNL1        0.0512
     48 C           4.5831    0.3253   30.5759 C.3     1  UNL1        0.2055
@<TRIPOS>UNITY_ATOM_ATTR
44 1
charge -1
@<TRIPOS>BOND
     1    47    48    1
     2    48    46    1
     3    46    35    1
     4    35    36   ar
     5    36    37   ar
     6    37    31    1
     7    31    32   am
     8    32    33    2
     9    32    27    1
    10    27     1    1
    11     1     2   am
    12     2     3    2
    13     2     5    1
    14     5     6   ar
    15     6     7   ar
    16     7     8   ar
    17     8     9   ar
    18     9    22    1
    19    22    23    1
    20    23    24    1
    21    24    25    1
    22    25    26    1
    23     9    10   ar
    24    10    15    1
    25    15    16   ar
    26    16    17   ar
    27    17    18   ar
    28    18    19    1
    29    18    20   ar
    30    20    21   ar
    31    10    11   ar
    32    11    12    1
    33    11    13   ar
    34    13    14   ar
    35    27    28    1
    36    28    29    1
    37    29    30    1
    38    37    38   ar
    39    38    39   ar
    40    39    40   ar
    41    40    41    1
    42    41    42    2
    43    42    43    1
    44    43    44   ar
    45    43    45   ar
    46    40    35   ar
    47    30    27    1
    48    14     5   ar
    49    13     8   ar
    50    26    22    1
    51    21    15   ar
    52    31    34    1
    53     1     4    1
@<TRIPOS>MOLECULE
*****
 48 53 0 0 0
SMALL
GASTEIGER

@<TRIPOS>ATOM
      1 N           0.8421    3.0799   26.3851 N.am    1  UNL1       -0.2964
      2 C          -0.4526    2.3265   26.4630 C.2     1  UNL1        0.2461
      3 O          -0.5018    0.9875   27.1374 O.2     1  UNL1       -0.2701
      4 H           0.8743    3.9588   25.9425 H       1  UNL1        0.1501
      5 C          -1.6982    2.9120   25.8666 C.ar    1  UNL1        0.0548
      6 C          -2.8357    3.3192   26.7555 C.ar    1  UNL1        0.0046
      7 C          -4.0812    3.9047   26.1590 C.ar    1  UNL1        0.0013
      8 C          -4.1892    4.0830   24.6736 C.ar    1  UNL1        0.0133
      9 C          -5.2841    4.6283   23.8051 C.ar    1  UNL1       -0.0023
     10 C          -4.8232    4.5580   22.3794 C.ar    1  UNL1        0.0922
     11 N          -3.4435    3.9694   22.3668 N.ar    1  UNL1       -0.3230
     12 C          -2.6032    3.7183   21.1499 C.3     1  UNL1        0.1305
     13 C          -3.0518    3.6758   23.7846 C.ar    1  UNL1        0.0598
     14 C          -1.8063    3.0903   24.3811 C.ar    1  UNL1        0.0217
     15 C          -5.6047    4.9990   21.1774 C.ar    1  UNL1        0.1781
     16 N          -5.8232    6.4604   20.9197 N.ar    1  UNL1       -0.2229
     17 C          -6.6046    6.9014   19.7177 C.ar    1  UNL1        0.1135
     18 C          -7.1676    5.8810   18.7734 C.ar    1  UNL1        0.0959
     19 CL         -7.9491    6.3220   17.5714 Cl      1  UNL1       -0.0790
     20 C          -6.9491    4.4195   19.0311 C.ar    1  UNL1        0.1135
     21 N          -6.1676    3.9785   20.2331 N.ar    1  UNL1       -0.2229
     22 C          -6.6074    5.1518   24.2792 C.3     1  UNL1        0.0239
     23 C          -6.8138    6.2603   25.2684 C.3     1  UNL1        0.0044
     24 C          -8.2906    6.4523   25.4479 C.3     1  UNL1        0.0003
     25 C          -8.9969    5.4626   24.5695 C.3     1  UNL1        0.0003
     26 C          -7.9566    4.6588   23.8472 C.3     1  UNL1        0.0044
     27 C           2.0877    2.4944   26.9816 C.3     1  UNL1        0.1260
     28 C           1.7181    3.0688   28.3171 C.3     1  UNL1        0.0270
     29 C           2.9636    2.4833   28.9136 C.3     1  UNL1        0.0043
     30 C           3.3332    1.9090   27.5781 C.3     1  UNL1        0.0270
     31 N           2.0119    0.5365   25.2756 N.am    1  UNL1       -0.2826
     32 C           2.4572    1.9201   25.6462 C.2     1  UNL1        0.2419
     33 O           3.2722    2.7293   24.6812 O.2     1  UNL1       -0.2731
     34 H           1.4770    0.0053   25.9089 H       1  UNL1        0.1549
     35 C           3.8145   -1.6660   22.5097 C.ar    1  UNL1        0.1397
     36 C           3.4448   -1.0916   23.8451 C.ar    1  UNL1        0.0515
     37 C           2.3815   -0.0379   23.9400 C.ar    1  UNL1        0.0534
     38 C           1.6879    0.4415   22.6995 C.ar    1  UNL1        0.0149
     39 C           2.0575   -0.1328   21.3640 C.ar    1  UNL1        0.0043
     40 C           3.1208   -1.1866   21.2691 C.ar    1  UNL1        0.0341
     41 C           3.4904   -1.7609   19.9336 C.2     1  UNL1        0.0042
     42 C           4.2220   -0.9182   18.9313 C.2     1  UNL1        0.0152
     43 C           4.5916   -1.4926   17.5958 C.2     1  UNL1        0.0729
     44 O           5.6645   -2.5365   17.4993 O.co2   1  UNL1       -0.5446
     45 O           3.8884   -1.0231   16.3568 O.co2   1  UNL1       -0.5446
     46 O           4.8778   -2.7197   22.4148 O.3     1  UNL1       -0.4754
     47 C           7.0350   -2.1272   21.0938 C.3     1  UNL1        0.0512
     48 C           6.3250   -2.3257   22.4001 C.3     1  UNL1        0.2055
@<TRIPOS>UNITY_ATOM_ATTR
44 1
charge -1
@<TRIPOS>BOND
     1    47    48    1
     2    48    46    1
     3    46    35    1
     4    35    36   ar
     5    36    37   ar
     6    37    31    1
     7    31    32   am
     8    32    33    2
     9    32    27    1
    10    27     1    1
    11     1     2   am
    12     2     3    2
    13     2     5    1
    14     5     6   ar
    15     6     7   ar
    16     7     8   ar
    17     8     9   ar
    18     9    22    1
    19    22    23    1
    20    23    24    1
    21    24    25    1
    22    25    26    1
    23     9    10   ar
    24    10    15    1
    25    15    16   ar
    26    16    17   ar
    27    17    18   ar
    28    18    19    1
    29    18    20   ar
    30    20    21   ar
    31    10    11   ar
    32    11    12    1
    33    11    13   ar
    34    13    14   ar
    35    27    28    1
    36    28    29    1
    37    29    30    1
    38    37    38   ar
    39    38    39   ar
    40    39    40   ar
    41    40    41    1
    42    41    42    2
    43    42    43    1
    44    43    44   ar
    45    43    45   ar
    46    40    35   ar
    47    30    27    1
    48    14     5   ar
    49    13     8   ar
    50    26    22    1
    51    21    15   ar
    52    31    34    1
    53     1     4    1
@<TRIPOS>MOLECULE
*****
 48 53 0 0 0
SMALL
GASTEIGER

@<TRIPOS>ATOM
      1 N           0.1212    3.0987   20.7856 N.am    1  UNL1       -0.2964
      2 C           0.1816    1.6703   21.2395 C.2     1  UNL1        0.2461
      3 O          -0.5895    0.6158   20.5022 O.2     1  UNL1       -0.2701
      4 H           0.6274    3.7907   21.2695 H       1  UNL1        0.1501
      5 C           1.0132    1.2963   22.4306 C.ar    1  UNL1        0.0548
      6 C           2.3396    0.6230   22.2376 C.ar    1  UNL1        0.0046
      7 C           3.1711    0.2490   23.4287 C.ar    1  UNL1        0.0013
      8 C           2.6762    0.5483   24.8127 C.ar    1  UNL1        0.0133
      9 C           3.2710    0.2992   26.1671 C.ar    1  UNL1       -0.0023
     10 C           2.3121    0.8185   27.1970 C.ar    1  UNL1        0.0922
     11 N           1.1247    1.3886   26.4792 N.ar    1  UNL1       -0.3230
     12 C          -0.0767    2.0156   27.1221 C.3     1  UNL1        0.1305
     13 C           1.3498    1.2216   25.0056 C.ar    1  UNL1        0.0598
     14 C           0.5183    1.5956   23.8146 C.ar    1  UNL1        0.0217
     15 C           2.5064    0.7754   28.6838 C.ar    1  UNL1        0.1781
     16 N           2.6662    2.0511   29.4566 N.ar    1  UNL1       -0.2229
     17 C           2.8605    2.0080   30.9433 C.ar    1  UNL1        0.1135
     18 C           2.8950    0.6893   31.6572 C.ar    1  UNL1        0.0959
     19 CL          3.0893    0.6462   33.1440 Cl      1  UNL1       -0.0790
     20 C           2.7352   -0.5863   30.8845 C.ar    1  UNL1        0.1135
     21 N           2.5409   -0.5433   29.3978 N.ar    1  UNL1       -0.2229
     22 C           4.5925   -0.3545   26.4430 C.3     1  UNL1        0.0239
     23 C           5.9289    0.3267   26.4485 C.3     1  UNL1        0.0044
     24 C           6.9721   -0.7019   26.7708 C.3     1  UNL1        0.0003
     25 C           6.2804   -2.0187   26.9644 C.3     1  UNL1        0.0003
     26 C           4.8097   -1.8040   26.7619 C.3     1  UNL1        0.0044
     27 C          -0.7103    3.4727   19.5945 C.3     1  UNL1        0.1260
     28 C           0.4138    3.0746   18.6847 C.3     1  UNL1        0.0270
     29 C          -0.4177    3.4485   17.4936 C.3     1  UNL1        0.0043
     30 C          -1.5418    3.8467   18.4034 C.3     1  UNL1        0.0270
     31 N          -3.0650    3.0176   20.5937 N.am    1  UNL1       -0.2826
     32 C          -1.8345    3.8708   20.5043 C.2     1  UNL1        0.2419
     33 O          -1.7282    5.1221   21.3246 O.2     1  UNL1       -0.2731
     34 H          -3.1348    2.1963   20.0553 H       1  UNL1        0.1549
     35 C          -5.2042    3.5732   23.8900 C.ar    1  UNL1        0.1397
     36 C          -4.0801    3.1751   22.9801 C.ar    1  UNL1        0.0515
     37 C          -4.1892    3.4158   21.5036 C.ar    1  UNL1        0.0534
     38 C          -5.4223    4.0547   20.9369 C.ar    1  UNL1        0.0149
     39 C          -6.5465    4.4528   21.8467 C.ar    1  UNL1        0.0043
     40 C          -6.4375    4.2121   23.3233 C.ar    1  UNL1        0.0341
     41 C          -7.5616    4.6102   24.2331 C.2     1  UNL1        0.0042
     42 C          -8.2779    5.9101   24.0157 C.2     1  UNL1        0.0152
     43 C          -9.4020    6.3082   24.9255 C.2     1  UNL1        0.0729
     44 O          -9.1602    7.2953   26.0288 O.co2   1  UNL1       -0.5446
     45 O         -10.7680    5.7193   24.7321 O.co2   1  UNL1       -0.5446
     46 O          -5.0952    3.3325   25.3665 O.3     1  UNL1       -0.4754
     47 C          -4.1122    5.7131   25.7074 C.3     1  UNL1        0.0512
     48 C          -4.4274    4.3486   26.2448 C.3     1  UNL1        0.2055
@<TRIPOS>UNITY_ATOM_ATTR
44 1
charge -1
@<TRIPOS>BOND
     1    47    48    1
     2    48    46    1
     3    46    35    1
     4    35    36   ar
     5    36    37   ar
     6    37    31    1
     7    31    32   am
     8    32    33    2
     9    32    27    1
    10    27     1    1
    11     1     2   am
    12     2     3    2
    13     2     5    1
    14     5     6   ar
    15     6     7   ar
    16     7     8   ar
    17     8     9   ar
    18     9    22    1
    19    22    23    1
    20    23    24    1
    21    24    25    1
    22    25    26    1
    23     9    10   ar
    24    10    15    1
    25    15    16   ar
    26    16    17   ar
    27    17    18   ar
    28    18    19    1
    29    18    20   ar
    30    20    21   ar
    31    10    11   ar
    32    11    12    1
    33    11    13   ar
    34    13    14   ar
    35    27    28    1
    36    28    29    1
    37    29    30    1
    38    37    38   ar
    39    38    39   ar
    40    39    40   ar
    41    40    41    1
    42    41    42    2
    43    42    43    1
    44    43    44   ar
    45    43    45   ar
    46    40    35   ar
    47    30    27    1
    48    14     5   ar
    49    13     8   ar
    50    26    22    1
    51    21    15   ar
    52    31    34    1
    53     1     4    1
@<TRIPOS>MOLECULE
*****
 48 53 0 0 0
SMALL
GASTEIGER

@<TRIPOS>ATOM
      1 N           6.2233   -4.1769   28.5129 N.am    1  UNL1       -0.2964
      2 C           7.1309   -3.8038   27.3785 C.2     1  UNL1        0.2461
      3 O           8.6112   -3.7097   27.6020 O.2     1  UNL1       -0.2701
      4 H           5.2518   -4.2387   28.3662 H       1  UNL1        0.1501
      5 C           6.5583   -3.5247   26.0204 C.ar    1  UNL1        0.0548
      6 C           6.9005   -4.4170   24.8643 C.ar    1  UNL1        0.0046
      7 C           6.3279   -4.1379   23.5064 C.ar    1  UNL1        0.0013
      8 C           5.4130   -2.9665   23.3045 C.ar    1  UNL1        0.0133
      9 C           4.7020   -2.4458   22.0906 C.ar    1  UNL1       -0.0023
     10 C           3.9203   -1.2316   22.4966 C.ar    1  UNL1        0.0922
     11 N           4.1482   -1.0020   23.9613 N.ar    1  UNL1       -0.3230
     12 C           3.5574    0.1055   24.7825 C.3     1  UNL1        0.1305
     13 C           5.0708   -2.0741   24.4606 C.ar    1  UNL1        0.0598
     14 C           5.6434   -2.3533   25.8185 C.ar    1  UNL1        0.0217
     15 C           3.0614   -0.3941   21.5959 C.ar    1  UNL1        0.1781
     16 N           3.4168    1.0410   21.3425 N.ar    1  UNL1       -0.2229
     17 C           2.5580    1.8785   20.4419 C.ar    1  UNL1        0.1135
     18 C           1.3439    1.2809   19.7948 C.ar    1  UNL1        0.0959
     19 CL          0.4850    2.1184   18.8942 Cl      1  UNL1       -0.0790
     20 C           0.9886   -0.1542   20.0483 C.ar    1  UNL1        0.1135
     21 N           1.8473   -0.9917   20.9488 N.ar    1  UNL1       -0.2229
     22 C           4.7621   -3.0356   20.7128 C.3     1  UNL1        0.0239
     23 C           4.1254   -4.3216   20.2757 C.3     1  UNL1        0.0044
     24 C           4.4392   -4.5238   18.8230 C.3     1  UNL1        0.0003
     25 C           5.2699   -3.3630   18.3621 C.3     1  UNL1        0.0003
     26 C           5.4694   -2.4432   19.5301 C.3     1  UNL1        0.0044
     27 C           6.7960   -4.4560   29.8710 C.3     1  UNL1        0.1260
     28 C           7.3159   -5.7748   29.3807 C.3     1  UNL1        0.0270
     29 C           7.8885   -6.0539   30.7386 C.3     1  UNL1        0.0043
     30 C           7.3686   -4.7351   31.2289 C.3     1  UNL1        0.0270
     31 N           5.6104   -3.0452   31.7023 N.am    1  UNL1       -0.2826
     32 C           6.2760   -3.1372   30.3613 C.2     1  UNL1        0.2419
     33 O           6.4217   -1.9104   29.5105 O.2     1  UNL1       -0.2731
     34 H           5.5148   -3.8503   32.2607 H       1  UNL1        0.1549
     35 C           5.3456    0.3715   33.7039 C.ar    1  UNL1        0.1397
     36 C           5.8655   -0.9473   33.2136 C.ar    1  UNL1        0.0515
     37 C           5.0905   -1.7263   32.1926 C.ar    1  UNL1        0.0534
     38 C           3.7955   -1.1865   31.6619 C.ar    1  UNL1        0.0149
     39 C           3.2756    0.1324   32.1522 C.ar    1  UNL1        0.0043
     40 C           4.0506    0.9114   33.1732 C.ar    1  UNL1        0.0341
     41 C           3.5307    2.2302   33.6635 C.2     1  UNL1        0.0042
     42 C           2.6446    2.2844   34.8726 C.2     1  UNL1        0.0152
     43 C           2.1247    3.6032   35.3629 C.2     1  UNL1        0.0729
     44 O           1.4830    3.7005   36.7152 O.co2   1  UNL1       -0.5446
     45 O           2.2466    4.8247   34.5009 O.co2   1  UNL1       -0.5446
     46 O           6.1207    1.1505   34.7249 O.3     1  UNL1       -0.4754
     47 C           5.0928    0.2410   36.9309 C.3     1  UNL1        0.0512
     48 C           6.2952    0.6044   36.1110 C.3     1  UNL1        0.2055
@<TRIPOS>UNITY_ATOM_ATTR
44 1
charge -1
@<TRIPOS>BOND
     1    47    48    1
     2    48    46    1
     3    46    35    1
     4    35    36   ar
     5    36    37   ar
     6    37    31    1
     7    31    32   am
     8    32    33    2
     9    32    27    1
    10    27     1    1
    11     1     2   am
    12     2     3    2
    13     2     5    1
    14     5     6   ar
    15     6     7   ar
    16     7     8   ar
    17     8     9   ar
    18     9    22    1
    19    22    23    1
    20    23    24    1
    21    24    25    1
    22    25    26    1
    23     9    10   ar
    24    10    15    1
    25    15    16   ar
    26    16    17   ar
    27    17    18   ar
    28    18    19    1
    29    18    20   ar
    30    20    21   ar
    31    10    11   ar
    32    11    12    1
    33    11    13   ar
    34    13    14   ar
    35    27    28    1
    36    28    29    1
    37    29    30    1
    38    37    38   ar
    39    38    39   ar
    40    39    40   ar
    41    40    41    1
    42    41    42    2
    43    42    43    1
    44    43    44   ar
    45    43    45   ar
    46    40    35   ar
    47    30    27    1
    48    14     5   ar
    49    13     8   ar
    50    26    22    1
    51    21    15   ar
    52    31    34    1
    53     1     4    1
@<TRIPOS>MOLECULE
*****
 48 53 0 0 0
SMALL
GASTEIGER

@<TRIPOS>ATOM
      1 N           7.2943   -6.0114   25.9509 N.am    1  UNL1       -0.2964
      2 C           8.0360   -5.1955   24.9339 C.2     1  UNL1        0.2461
      3 O           9.5352   -5.2259   24.8966 O.2     1  UNL1       -0.2701
      4 H           6.3103   -5.9914   25.9753 H       1  UNL1        0.1501
      5 C           7.2784   -4.3490   23.9542 C.ar    1  UNL1        0.0548
      6 C           7.6229   -4.4002   22.4953 C.ar    1  UNL1        0.0046
      7 C           6.8653   -3.5538   21.5157 C.ar    1  UNL1        0.0013
      8 C           5.7633   -2.6563   21.9950 C.ar    1  UNL1        0.0133
      9 C           4.8486   -1.7145   21.2694 C.ar    1  UNL1       -0.0023
     10 C           3.9388   -1.0812   22.2800 C.ar    1  UNL1        0.0922
     11 N           4.2912   -1.6317   23.6301 N.ar    1  UNL1       -0.3230
     12 C           3.6318   -1.2719   24.9284 C.3     1  UNL1        0.1305
     13 C           5.4188   -2.6051   23.4540 C.ar    1  UNL1        0.0598
     14 C           6.1763   -3.4515   24.4336 C.ar    1  UNL1        0.0217
     15 C           2.8651   -0.0743   21.9911 C.ar    1  UNL1        0.1781
     16 N           2.9913    1.3268   22.5115 N.ar    1  UNL1       -0.2229
     17 C           1.9177    2.3337   22.2228 C.ar    1  UNL1        0.1135
     18 C           0.7178    1.9395   21.4136 C.ar    1  UNL1        0.0959
     19 CL         -0.3559    2.9464   21.1248 Cl      1  UNL1       -0.0790
     20 C           0.5916    0.5383   20.8932 C.ar    1  UNL1        0.1135
     21 N           1.6652   -0.4686   21.1820 N.ar    1  UNL1       -0.2229
     22 C           4.8445   -1.4520   19.7925 C.3     1  UNL1        0.0239
     23 C           3.7532   -1.8258   18.8337 C.3     1  UNL1        0.0044
     24 C           4.1652   -1.3745   17.4638 C.3     1  UNL1        0.0003
     25 C           5.5110   -0.7218   17.5760 C.3     1  UNL1        0.0003
     26 C           5.9309   -0.7697   19.0153 C.3     1  UNL1        0.0044
     27 C           8.0519   -6.8578   26.9306 C.3     1  UNL1        0.1260
     28 C           8.1532   -7.9505   25.9081 C.3     1  UNL1        0.0270
     29 C           8.9108   -8.7969   26.8877 C.3     1  UNL1        0.0043
     30 C           8.8094   -7.7042   27.9102 C.3     1  UNL1        0.0270
     31 N           6.6954   -5.6060   28.7589 N.am    1  UNL1       -0.2826
     32 C           7.9506   -5.7650   27.9531 C.2     1  UNL1        0.2419
     33 O           9.1044   -4.8313   28.1698 O.2     1  UNL1       -0.2731
     34 H           5.9382   -6.2188   28.6167 H       1  UNL1        0.1549
     35 C           6.1111   -2.0322   30.3828 C.ar    1  UNL1        0.1397
     36 C           6.2125   -3.1250   29.3603 C.ar    1  UNL1        0.0515
     37 C           6.5941   -4.5132   29.7815 C.ar    1  UNL1        0.0534
     38 C           6.8745   -4.8085   31.2251 C.ar    1  UNL1        0.0149
     39 C           6.7732   -3.7157   32.2477 C.ar    1  UNL1        0.0043
     40 C           6.3915   -2.3276   31.8265 C.ar    1  UNL1        0.0341
     41 C           6.2902   -1.2348   32.8490 C.2     1  UNL1        0.0042
     42 C           5.2656   -1.3221   33.9411 C.2     1  UNL1        0.0152
     43 C           5.1643   -0.2293   34.9635 C.2     1  UNL1        0.0729
     44 O           4.5755   -0.5169   36.3129 O.co2   1  UNL1       -0.5446
     45 O           5.6518    1.1511   34.6368 O.co2   1  UNL1       -0.5446
     46 O           5.7295   -0.6441   29.9617 O.3     1  UNL1       -0.4754
     47 C           3.2457   -0.5591   30.7192 C.3     1  UNL1        0.0512
     48 C           4.2944   -0.3153   29.6747 C.3     1  UNL1        0.2055
@<TRIPOS>UNITY_ATOM_ATTR
44 1
charge -1
@<TRIPOS>BOND
     1    47    48    1
     2    48    46    1
     3    46    35    1
     4    35    36   ar
     5    36    37   ar
     6    37    31    1
     7    31    32   am
     8    32    33    2
     9    32    27    1
    10    27     1    1
    11     1     2   am
    12     2     3    2
    13     2     5    1
    14     5     6   ar
    15     6     7   ar
    16     7     8   ar
    17     8     9   ar
    18     9    22    1
    19    22    23    1
    20    23    24    1
    21    24    25    1
    22    25    26    1
    23     9    10   ar
    24    10    15    1
    25    15    16   ar
    26    16    17   ar
    27    17    18   ar
    28    18    19    1
    29    18    20   ar
    30    20    21   ar
    31    10    11   ar
    32    11    12    1
    33    11    13   ar
    34    13    14   ar
    35    27    28    1
    36    28    29    1
    37    29    30    1
    38    37    38   ar
    39    38    39   ar
    40    39    40   ar
    41    40    41    1
    42    41    42    2
    43    42    43    1
    44    43    44   ar
    45    43    45   ar
    46    40    35   ar
    47    30    27    1
    48    14     5   ar
    49    13     8   ar
    50    26    22    1
    51    21    15   ar
    52    31    34    1
    53     1     4    1
@<TRIPOS>MOLECULE
*****
 48 53 0 0 0
SMALL
GASTEIGER

@<TRIPOS>ATOM
      1 N           0.0795    2.4081   26.9187 N.am    1  UNL1       -0.2964
      2 C          -0.3012    1.4868   28.0396 C.2     1  UNL1        0.2461
      3 O          -1.7085    0.9793   28.1481 O.2     1  UNL1       -0.2701
      4 H           1.0032    2.7412   26.8475 H       1  UNL1        0.1501
      5 C           0.7255    1.0730   29.0519 C.ar    1  UNL1        0.0548
      6 C           1.5928   -0.1235   28.7945 C.ar    1  UNL1        0.0046
      7 C           2.6194   -0.5372   29.8068 C.ar    1  UNL1        0.0013
      8 C           2.7788    0.2455   31.0765 C.ar    1  UNL1        0.0133
      9 C           3.6981    0.0782   32.2500 C.ar    1  UNL1       -0.0023
     10 C           3.3989    1.1714   33.2325 C.ar    1  UNL1        0.0922
     11 N           2.2948    2.0142   32.6663 N.ar    1  UNL1       -0.3230
     12 C           1.6815    3.2179   33.3182 C.3     1  UNL1        0.1305
     13 C           1.9115    1.4419   31.3338 C.ar    1  UNL1        0.0598
     14 C           0.8849    1.8557   30.3215 C.ar    1  UNL1        0.0217
     15 C           4.0837    1.3844   34.5501 C.ar    1  UNL1        0.1781
     16 N           4.8907    2.6271   34.7836 N.ar    1  UNL1       -0.2229
     17 C           5.5755    2.8401   36.1010 C.ar    1  UNL1        0.1135
     18 C           5.4531    1.8105   37.1850 C.ar    1  UNL1        0.0959
     19 CL          6.1379    2.0236   38.5025 Cl      1  UNL1       -0.0790
     20 C           4.6461    0.5679   36.9515 C.ar    1  UNL1        0.1135
     21 N           3.9613    0.3549   35.6340 N.ar    1  UNL1       -0.2229
     22 C           4.7345   -0.9939   32.4123 C.3     1  UNL1        0.0239
     23 C           4.4775   -2.4139   32.8215 C.3     1  UNL1        0.0044
     24 C           5.7940   -3.1318   32.8561 C.3     1  UNL1        0.0003
     25 C           6.8647   -2.1556   32.4683 C.3     1  UNL1        0.0003
     26 C           6.2099   -0.8342   32.1940 C.3     1  UNL1        0.0044
     27 C          -0.9472    2.8219   25.9064 C.3     1  UNL1        0.1260
     28 C          -1.6426    3.6463   26.9488 C.3     1  UNL1        0.0270
     29 C          -2.6693    4.0601   25.9366 C.3     1  UNL1        0.0043
     30 C          -1.9738    3.2357   24.8942 C.3     1  UNL1        0.0270
     31 N           0.0458    2.5869   23.5171 N.am    1  UNL1       -0.2826
     32 C          -0.2517    1.9975   24.8640 C.2     1  UNL1        0.2419
     33 O           0.1462    0.5836   25.1685 O.2     1  UNL1       -0.2731
     34 H          -0.2154    3.5148   23.3173 H       1  UNL1        0.1549
     35 C           2.8976    0.6277   21.5731 C.ar    1  UNL1        0.1397
     36 C           2.2021    1.4522   22.6155 C.ar    1  UNL1        0.0515
     37 C           0.7413    1.7624   22.4747 C.ar    1  UNL1        0.0534
     38 C          -0.0240    1.2482   21.2916 C.ar    1  UNL1        0.0149
     39 C           0.6715    0.4237   20.2492 C.ar    1  UNL1        0.0043
     40 C           2.1323    0.1135   20.3899 C.ar    1  UNL1        0.0341
     41 C           2.8278   -0.7110   19.3476 C.2     1  UNL1        0.0042
     42 C           3.7110   -0.0475   18.3329 C.2     1  UNL1        0.0152
     43 C           4.4065   -0.8720   17.2905 C.2     1  UNL1        0.0729
     44 O           3.6719   -1.2890   16.0509 O.co2   1  UNL1       -0.5446
     45 O           5.8366   -1.2794   17.4877 O.co2   1  UNL1       -0.5446
     46 O           4.3584    0.3175   21.7139 O.3     1  UNL1       -0.4754
     47 C           3.9504   -2.0398   22.7270 C.3     1  UNL1        0.0512
     48 C           4.8036   -0.8134   22.5929 C.3     1  UNL1        0.2055
@<TRIPOS>UNITY_ATOM_ATTR
44 1
charge -1
@<TRIPOS>BOND
     1    47    48    1
     2    48    46    1
     3    46    35    1
     4    35    36   ar
     5    36    37   ar
     6    37    31    1
     7    31    32   am
     8    32    33    2
     9    32    27    1
    10    27     1    1
    11     1     2   am
    12     2     3    2
    13     2     5    1
    14     5     6   ar
    15     6     7   ar
    16     7     8   ar
    17     8     9   ar
    18     9    22    1
    19    22    23    1
    20    23    24    1
    21    24    25    1
    22    25    26    1
    23     9    10   ar
    24    10    15    1
    25    15    16   ar
    26    16    17   ar
    27    17    18   ar
    28    18    19    1
    29    18    20   ar
    30    20    21   ar
    31    10    11   ar
    32    11    12    1
    33    11    13   ar
    34    13    14   ar
    35    27    28    1
    36    28    29    1
    37    29    30    1
    38    37    38   ar
    39    38    39   ar
    40    39    40   ar
    41    40    41    1
    42    41    42    2
    43    42    43    1
    44    43    44   ar
    45    43    45   ar
    46    40    35   ar
    47    30    27    1
    48    14     5   ar
    49    13     8   ar
    50    26    22    1
    51    21    15   ar
    52    31    34    1
    53     1     4    1
@<TRIPOS>MOLECULE
*****
 48 53 0 0 0
SMALL
GASTEIGER

@<TRIPOS>ATOM
      1 N           1.5162    2.1095   28.7654 N.am    1  UNL1       -0.2964
      2 C           0.3916    1.4712   28.0054 C.2     1  UNL1        0.2461
      3 O          -0.6477    0.6721   28.7343 O.2     1  UNL1       -0.2701
      4 H           2.1983    2.6340   28.2870 H       1  UNL1        0.1501
      5 C           0.3061    1.6320   26.5164 C.ar    1  UNL1        0.0548
      6 C           1.2742    0.9094   25.6273 C.ar    1  UNL1        0.0046
      7 C           1.1887    1.0703   24.1384 C.ar    1  UNL1        0.0013
      8 C           0.1352    1.9537   23.5387 C.ar    1  UNL1        0.0133
      9 C          -0.1910    2.3038   22.1170 C.ar    1  UNL1       -0.0023
     10 C          -1.3607    3.2427   22.1276 C.ar    1  UNL1        0.0922
     11 N          -1.7574    3.4730   23.5558 N.ar    1  UNL1       -0.3230
     12 C          -2.8813    4.3465   24.0289 C.3     1  UNL1        0.1305
     13 C          -0.8329    2.6763   24.4279 C.ar    1  UNL1        0.0598
     14 C          -0.7474    2.5155   25.9167 C.ar    1  UNL1        0.0217
     15 C          -2.0183    3.8457   20.9217 C.ar    1  UNL1        0.1781
     16 N          -3.3429    3.3233   20.4500 N.ar    1  UNL1       -0.2229
     17 C          -4.0006    3.9262   19.2442 C.ar    1  UNL1        0.1135
     18 C          -3.3336    5.0514   18.5101 C.ar    1  UNL1        0.0959
     19 CL         -3.9912    5.6544   17.3042 Cl      1  UNL1       -0.0790
     20 C          -2.0090    5.5738   18.9819 C.ar    1  UNL1        0.1135
     21 N          -1.3514    4.9710   20.1877 N.ar    1  UNL1       -0.2229
     22 C           0.5265    1.8028   20.8987 C.3     1  UNL1        0.0239
     23 C           1.5296    2.5694   20.0888 C.3     1  UNL1        0.0044
     24 C           1.9899    1.6878   18.9660 C.3     1  UNL1        0.0003
     25 C           1.2713    0.3763   19.0820 C.3     1  UNL1        0.0003
     26 C           0.3668    0.4474   20.2765 C.3     1  UNL1        0.0044
     27 C           1.6016    1.9487   30.2544 C.3     1  UNL1        0.1260
     28 C           0.7129    3.1436   30.4343 C.3     1  UNL1        0.0270
     29 C           0.7983    2.9828   31.9232 C.3     1  UNL1        0.0043
     30 C           1.6870    1.7880   31.7432 C.3     1  UNL1        0.0270
     31 N           3.8057    0.8971   29.3677 N.am    1  UNL1       -0.2826
     32 C           2.4903    0.7539   30.0744 C.2     1  UNL1        0.2419
     33 O           2.0637   -0.5843   30.6010 O.2     1  UNL1       -0.2731
     34 H           4.0857    1.7754   29.0221 H       1  UNL1        0.1549
     35 C           6.6806   -1.7664   29.9931 C.ar    1  UNL1        0.1397
     36 C           5.7919   -0.5715   30.1730 C.ar    1  UNL1        0.0515
     37 C           4.6944   -0.2979   29.1878 C.ar    1  UNL1        0.0534
     38 C           4.4856   -1.2191   28.0226 C.ar    1  UNL1        0.0149
     39 C           5.3744   -2.4141   27.8427 C.ar    1  UNL1        0.0043
     40 C           6.4718   -2.6877   28.8279 C.ar    1  UNL1        0.0341
     41 C           7.3605   -3.8826   28.6479 C.2     1  UNL1        0.0042
     42 C           7.0107   -5.1836   29.3074 C.2     1  UNL1        0.0152
     43 C           7.8994   -6.3785   29.1275 C.2     1  UNL1        0.0729
     44 O           8.8133   -6.8074   30.2369 O.co2   1  UNL1       -0.5446
     45 O           7.8742   -7.1446   27.8381 O.co2   1  UNL1       -0.5446
     46 O           7.7781   -2.0400   30.9783 O.3     1  UNL1       -0.4754
     47 C           6.1230   -3.3926   32.4551 C.3     1  UNL1        0.0512
     48 C           7.4827   -2.7970   32.2390 C.3     1  UNL1        0.2055
@<TRIPOS>UNITY_ATOM_ATTR
44 1
charge -1
@<TRIPOS>BOND
     1    47    48    1
     2    48    46    1
     3    46    35    1
     4    35    36   ar
     5    36    37   ar
     6    37    31    1
     7    31    32   am
     8    32    33    2
     9    32    27    1
    10    27     1    1
    11     1     2   am
    12     2     3    2
    13     2     5    1
    14     5     6   ar
    15     6     7   ar
    16     7     8   ar
    17     8     9   ar
    18     9    22    1
    19    22    23    1
    20    23    24    1
    21    24    25    1
    22    25    26    1
    23     9    10   ar
    24    10    15    1
    25    15    16   ar
    26    16    17   ar
    27    17    18   ar
    28    18    19    1
    29    18    20   ar
    30    20    21   ar
    31    10    11   ar
    32    11    12    1
    33    11    13   ar
    34    13    14   ar
    35    27    28    1
    36    28    29    1
    37    29    30    1
    38    37    38   ar
    39    38    39   ar
    40    39    40   ar
    41    40    41    1
    42    41    42    2
    43    42    43    1
    44    43    44   ar
    45    43    45   ar
    46    40    35   ar
    47    30    27    1
    48    14     5   ar
    49    13     8   ar
    50    26    22    1
    51    21    15   ar
    52    31    34    1
    53     1     4    1
