@<TRIPOS>MOLECULE
*****
 37 42 0 0 0
SMALL
GASTEIGER

@<TRIPOS>ATOM
      1 C          -7.6001  -19.8107   20.4360 C.3     1  UNL1        0.0745
      2 C          -8.7253  -19.3758   19.5444 C.3     1  UNL1        0.0356
      3 C          -9.1058  -20.2090   18.3566 C.3     1  UNL1        0.0594
      4 C          -9.1342  -21.3051   17.3331 C.3     1  UNL1        0.0174
      5 C          -8.0547  -22.2883   17.6768 C.3     1  UNL1        0.0174
      6 C          -7.3592  -21.7997   18.9128 C.3     1  UNL1        0.0594
      7 C          -6.8555  -21.0786   20.1398 C.3     1  UNL1        0.0356
      8 N          -8.0088  -20.5146   19.3329 N.3     1  UNL1       -0.2715
      9 O          -9.2506  -17.4189   21.1813 O.2     1  UNL1       -0.2701
     10 C          -8.0448  -17.7816   21.9966 C.2     1  UNL1        0.2459
     11 N          -7.2196  -18.9775   21.6239 N.am    1  UNL1       -0.3024
     12 H          -6.4282  -19.2155   22.1590 H       1  UNL1        0.1497
     13 C          -7.6643  -16.9484   23.1844 C.ar    1  UNL1        0.0577
     14 C          -6.4585  -16.0584   23.1210 C.ar    1  UNL1        0.0047
     15 C          -6.0780  -15.2252   24.3088 C.ar    1  UNL1        0.0001
     16 C          -6.9033  -15.2820   25.5601 C.ar    1  UNL1        0.0001
     17 C          -8.1091  -16.1719   25.6235 C.ar    1  UNL1        0.0047
     18 C          -8.4896  -17.0051   24.4356 C.ar    1  UNL1        0.0579
     19 C          -9.6954  -17.8951   24.4990 C.2     1  UNL1        0.2492
     20 O          -9.2822  -19.0948   25.2989 O.2     1  UNL1       -0.2699
     21 N         -10.9701  -17.4801   23.8257 N.am    1  UNL1       -0.2761
     22 C         -12.2504  -18.2614   23.8037 C.3     1  UNL1        0.0938
     23 C         -13.2597  -17.4752   23.0207 C.3     1  UNL1        0.0233
     24 C         -12.6033  -16.2080   22.5588 C.3     1  UNL1        0.0233
     25 C         -11.1882  -16.2111   23.0564 C.3     1  UNL1        0.0938
     26 C          -7.6282  -19.6815   20.5207 C.3     1  UNL1        0.0991
     27 C          -6.1844  -19.3800   20.7938 C.ar    1  UNL1       -0.0061
     28 C          -5.6164  -19.6088   22.1631 C.ar    1  UNL1       -0.0029
     29 C          -4.1727  -19.3073   22.4362 C.ar    1  UNL1       -0.0002
     30 C          -3.2968  -18.7771   21.3399 C.ar    1  UNL1        0.0022
     31 C          -1.8530  -18.4756   21.6130 C.ar    1  UNL1        0.0296
     32 C          -0.9772  -17.9454   20.5167 C.ar    1  UNL1        0.1401
     33 F           0.4666  -17.6440   20.7897 F       1  UNL1       -0.2042
     34 C          -1.5452  -17.7167   19.1473 C.ar    1  UNL1        0.0296
     35 C          -2.9890  -18.0182   18.8743 C.ar    1  UNL1        0.0023
     36 C          -3.8648  -18.5484   19.9706 C.ar    1  UNL1       -0.0001
     37 C          -5.3086  -18.8498   19.6975 C.ar    1  UNL1       -0.0029
@<TRIPOS>BOND
     1     9    10    2
     2    10    11   am
     3     1    11    1
     4     1     2    1
     5     3     2    1
     6     3     4    1
     7     4     5    1
     8     6     5    1
     9     6     7    1
    10     6     8    1
    11     8    26    1
    12    26    27    1
    13    27    28   ar
    14    28    29   ar
    15    29    30   ar
    16    30    31   ar
    17    31    32   ar
    18    32    33    1
    19    32    34   ar
    20    34    35   ar
    21    35    36   ar
    22    36    37   ar
    23    10    13    1
    24    13    14   ar
    25    14    15   ar
    26    15    16   ar
    27    16    17   ar
    28    17    18   ar
    29    18    19    1
    30    19    20    2
    31    19    21   am
    32    21    22    1
    33    22    23    1
    34    23    24    1
    35    24    25    1
    36     7     1    1
    37    37    27   ar
    38    18    13   ar
    39    25    21    1
    40     8     3    1
    41    36    30   ar
    42    11    12    1
@<TRIPOS>MOLECULE
*****
 37 42 0 0 0
SMALL
GASTEIGER

@<TRIPOS>ATOM
      1 C          -8.1277  -19.6417   20.1557 C.3     1  UNL1        0.0745
      2 C          -7.3458  -20.8946   19.8930 C.3     1  UNL1        0.0356
      3 C          -7.6847  -21.7566   18.7132 C.3     1  UNL1        0.0594
      4 C          -8.3464  -22.2833   17.4744 C.3     1  UNL1        0.0174
      5 C          -9.4451  -21.3344   17.0966 C.3     1  UNL1        0.0174
      6 C          -9.4622  -20.2213   18.1020 C.3     1  UNL1        0.0594
      7 C          -9.2486  -19.2510   19.2387 C.3     1  UNL1        0.0356
      8 N          -8.3743  -20.4822   19.1011 N.3     1  UNL1       -0.2715
      9 O          -5.3888  -18.4424   20.3996 O.2     1  UNL1       -0.2701
     10 C          -6.4193  -18.1800   21.4575 C.2     1  UNL1        0.2459
     11 N          -7.7888  -18.7796   21.3356 N.am    1  UNL1       -0.3024
     12 H          -8.4652  -18.6074   22.0299 H       1  UNL1        0.1497
     13 C          -6.0803  -17.3179   22.6373 C.ar    1  UNL1        0.0577
     14 C          -7.0987  -16.3627   23.1855 C.ar    1  UNL1        0.0047
     15 C          -6.7597  -15.5006   24.3652 C.ar    1  UNL1        0.0001
     16 C          -5.4024  -15.5938   24.9969 C.ar    1  UNL1        0.0001
     17 C          -4.3840  -16.5490   24.4488 C.ar    1  UNL1        0.0047
     18 C          -4.7230  -17.4111   23.2689 C.ar    1  UNL1        0.0579
     19 C          -3.7047  -18.3664   22.7208 C.2     1  UNL1        0.2492
     20 O          -4.1057  -19.7254   23.2128 O.2     1  UNL1       -0.2699
     21 N          -2.5814  -17.8567   21.8672 N.am    1  UNL1       -0.2761
     22 C          -1.4945  -18.6876   21.2521 C.3     1  UNL1        0.0938
     23 C          -0.5891  -17.7711   20.4837 C.3     1  UNL1        0.0233
     24 C          -1.1164  -16.3739   20.6239 C.3     1  UNL1        0.0233
     25 C          -2.3477  -16.4268   21.4789 C.3     1  UNL1        0.0938
     26 C          -8.0354  -19.6201   20.2809 C.3     1  UNL1        0.0991
     27 C          -9.0008  -19.4979   21.4224 C.ar    1  UNL1       -0.0061
     28 C          -8.6767  -20.1194   22.7486 C.ar    1  UNL1       -0.0029
     29 C          -9.6421  -19.9971   23.8900 C.ar    1  UNL1       -0.0002
     30 C         -10.9316  -19.2533   23.7054 C.ar    1  UNL1        0.0022
     31 C         -11.8970  -19.1311   24.8469 C.ar    1  UNL1        0.0296
     32 C         -13.1865  -18.3873   24.6623 C.ar    1  UNL1        0.1401
     33 F         -14.1519  -18.2650   25.8037 F       1  UNL1       -0.2042
     34 C         -13.5105  -17.7658   23.3360 C.ar    1  UNL1        0.0296
     35 C         -12.5451  -17.8881   22.1946 C.ar    1  UNL1        0.0023
     36 C         -11.2557  -18.6318   22.3792 C.ar    1  UNL1       -0.0001
     37 C         -10.2903  -18.7541   21.2378 C.ar    1  UNL1       -0.0029
@<TRIPOS>BOND
     1     9    10    2
     2    10    11   am
     3     1    11    1
     4     1     2    1
     5     3     2    1
     6     3     4    1
     7     4     5    1
     8     6     5    1
     9     6     7    1
    10     6     8    1
    11     8    26    1
    12    26    27    1
    13    27    28   ar
    14    28    29   ar
    15    29    30   ar
    16    30    31   ar
    17    31    32   ar
    18    32    33    1
    19    32    34   ar
    20    34    35   ar
    21    35    36   ar
    22    36    37   ar
    23    10    13    1
    24    13    14   ar
    25    14    15   ar
    26    15    16   ar
    27    16    17   ar
    28    17    18   ar
    29    18    19    1
    30    19    20    2
    31    19    21   am
    32    21    22    1
    33    22    23    1
    34    23    24    1
    35    24    25    1
    36     7     1    1
    37    37    27   ar
    38    18    13   ar
    39    25    21    1
    40     8     3    1
    41    36    30   ar
    42    11    12    1
@<TRIPOS>MOLECULE
*****
 37 42 0 0 0
SMALL
GASTEIGER

@<TRIPOS>ATOM
      1 C          -7.0485  -16.5834   23.3482 C.3     1  UNL1        0.0745
      2 C          -5.5573  -16.5357   23.5039 C.3     1  UNL1        0.0356
      3 C          -4.9490  -15.8604   24.6971 C.3     1  UNL1        0.0594
      4 C          -4.7940  -15.1148   25.9894 C.3     1  UNL1        0.0174
      5 C          -6.1647  -14.7801   26.4987 C.3     1  UNL1        0.0174
      6 C          -7.1668  -15.3188   25.5211 C.3     1  UNL1        0.0594
      7 C          -7.9313  -15.9559   24.3859 C.3     1  UNL1        0.0356
      8 N          -6.4155  -15.9865   24.4077 N.3     1  UNL1       -0.2715
      9 O          -6.2810  -19.4023   22.6667 O.2     1  UNL1       -0.2701
     10 C          -7.2730  -18.6681   21.8141 C.2     1  UNL1        0.2459
     11 N          -7.6568  -17.2587   22.1549 N.am    1  UNL1       -0.3024
     12 H          -8.3079  -16.7768   21.5953 H       1  UNL1        0.1497
     13 C          -7.8812  -19.3434   20.6208 C.ar    1  UNL1        0.0577
     14 C          -9.2558  -18.9578   20.1604 C.ar    1  UNL1        0.0047
     15 C          -9.8640  -19.6331   18.9671 C.ar    1  UNL1        0.0001
     16 C          -9.0977  -20.6941   18.2342 C.ar    1  UNL1        0.0001
     17 C          -7.7231  -21.0797   18.6945 C.ar    1  UNL1        0.0047
     18 C          -7.1149  -20.4043   19.8879 C.ar    1  UNL1        0.0579
     19 C          -5.7404  -20.7899   20.3483 C.2     1  UNL1        0.2492
     20 O          -5.8926  -22.1102   21.0437 O.2     1  UNL1       -0.2699
     21 N          -4.5747  -19.8889   20.0662 N.am    1  UNL1       -0.2761
     22 C          -3.1499  -20.1404   20.4622 C.3     1  UNL1        0.0938
     23 C          -2.3239  -18.9852   19.9794 C.3     1  UNL1        0.0233
     24 C          -3.2380  -18.0198   19.2850 C.3     1  UNL1        0.0233
     25 C          -4.6291  -18.5784   19.3386 C.3     1  UNL1        0.0938
     26 C          -7.0238  -16.6618   23.2144 C.3     1  UNL1        0.0991
     27 C          -8.5135  -16.8042   23.1116 C.ar    1  UNL1       -0.0061
     28 C          -9.2736  -16.0135   22.0884 C.ar    1  UNL1       -0.0029
     29 C         -10.7633  -16.1559   21.9857 C.ar    1  UNL1       -0.0002
     30 C         -11.4928  -17.0890   22.9061 C.ar    1  UNL1        0.0022
     31 C         -12.9825  -17.2314   22.8033 C.ar    1  UNL1        0.0296
     32 C         -13.7120  -18.1644   23.7238 C.ar    1  UNL1        0.1401
     33 F         -15.2017  -18.3069   23.6210 F       1  UNL1       -0.2042
     34 C         -12.9518  -18.9551   24.7470 C.ar    1  UNL1        0.0296
     35 C         -11.4621  -18.8127   24.8498 C.ar    1  UNL1        0.0023
     36 C         -10.7326  -17.8796   23.9293 C.ar    1  UNL1       -0.0001
     37 C          -9.2430  -17.7372   24.0321 C.ar    1  UNL1       -0.0029
@<TRIPOS>BOND
     1     9    10    2
     2    10    11   am
     3     1    11    1
     4     1     2    1
     5     3     2    1
     6     3     4    1
     7     4     5    1
     8     6     5    1
     9     6     7    1
    10     6     8    1
    11     8    26    1
    12    26    27    1
    13    27    28   ar
    14    28    29   ar
    15    29    30   ar
    16    30    31   ar
    17    31    32   ar
    18    32    33    1
    19    32    34   ar
    20    34    35   ar
    21    35    36   ar
    22    36    37   ar
    23    10    13    1
    24    13    14   ar
    25    14    15   ar
    26    15    16   ar
    27    16    17   ar
    28    17    18   ar
    29    18    19    1
    30    19    20    2
    31    19    21   am
    32    21    22    1
    33    22    23    1
    34    23    24    1
    35    24    25    1
    36     7     1    1
    37    37    27   ar
    38    18    13   ar
    39    25    21    1
    40     8     3    1
    41    36    30   ar
    42    11    12    1
@<TRIPOS>MOLECULE
*****
 37 42 0 0 0
SMALL
GASTEIGER

@<TRIPOS>ATOM
      1 C          -8.0491  -19.2916   21.1907 C.3     1  UNL1        0.0745
      2 C          -7.0719  -20.3250   20.7140 C.3     1  UNL1        0.0356
      3 C          -7.2719  -20.9893   19.3841 C.3     1  UNL1        0.0594
      4 C          -7.8465  -21.3709   18.0521 C.3     1  UNL1        0.0174
      5 C          -9.0904  -20.5611   17.8347 C.3     1  UNL1        0.0174
      6 C          -9.2845  -19.6791   19.0324 C.3     1  UNL1        0.0594
      7 C          -9.2263  -18.9225   20.3375 C.3     1  UNL1        0.0356
      8 N          -8.1606  -19.9438   19.9900 N.3     1  UNL1       -0.2715
      9 O          -7.3640  -16.3739   21.3220 O.2     1  UNL1       -0.2701
     10 C          -7.5065  -17.1685   22.5863 C.2     1  UNL1        0.2459
     11 N          -7.8490  -18.6273   22.5207 N.am    1  UNL1       -0.3024
     12 H          -7.9425  -19.1489   23.3504 H       1  UNL1        0.1497
     13 C          -7.3064  -16.5041   23.9162 C.ar    1  UNL1        0.0577
     14 C          -8.4082  -16.5163   24.9340 C.ar    1  UNL1        0.0047
     15 C          -8.2082  -15.8520   26.2638 C.ar    1  UNL1        0.0001
     16 C          -6.9062  -15.1755   26.5760 C.ar    1  UNL1        0.0001
     17 C          -5.8044  -15.1634   25.5583 C.ar    1  UNL1        0.0047
     18 C          -6.0045  -15.8277   24.2284 C.ar    1  UNL1        0.0579
     19 C          -4.9027  -15.8156   23.2106 C.2     1  UNL1        0.2492
     20 O          -4.7966  -14.3977   22.7330 O.2     1  UNL1       -0.2699
     21 N          -4.1737  -17.0841   22.8793 N.am    1  UNL1       -0.2761
     22 C          -3.0564  -17.2259   21.8886 C.3     1  UNL1        0.0938
     23 C          -2.6263  -18.6628   21.8776 C.3     1  UNL1        0.0233
     24 C          -3.4777  -19.4091   22.8614 C.3     1  UNL1        0.0233
     25 C          -4.4341  -18.4334   23.4806 C.3     1  UNL1        0.0938
     26 C          -7.9606  -19.2795   21.3198 C.3     1  UNL1        0.0991
     27 C          -9.0769  -19.2553   22.3216 C.ar    1  UNL1       -0.0061
     28 C          -8.9438  -20.0099   23.6111 C.ar    1  UNL1       -0.0029
     29 C         -10.0600  -19.9857   24.6128 C.ar    1  UNL1       -0.0002
     30 C         -11.3093  -19.2070   24.3250 C.ar    1  UNL1        0.0022
     31 C         -12.4256  -19.1828   25.3268 C.ar    1  UNL1        0.0296
     32 C         -13.6749  -18.4041   25.0389 C.ar    1  UNL1        0.1401
     33 F         -14.7911  -18.3799   26.0406 F       1  UNL1       -0.2042
     34 C         -13.8079  -17.6495   23.7494 C.ar    1  UNL1        0.0296
     35 C         -12.6917  -17.6736   22.7477 C.ar    1  UNL1        0.0023
     36 C         -11.4424  -18.4524   23.0355 C.ar    1  UNL1       -0.0001
     37 C         -10.3262  -18.4766   22.0338 C.ar    1  UNL1       -0.0029
@<TRIPOS>BOND
     1     9    10    2
     2    10    11   am
     3     1    11    1
     4     1     2    1
     5     3     2    1
     6     3     4    1
     7     4     5    1
     8     6     5    1
     9     6     7    1
    10     6     8    1
    11     8    26    1
    12    26    27    1
    13    27    28   ar
    14    28    29   ar
    15    29    30   ar
    16    30    31   ar
    17    31    32   ar
    18    32    33    1
    19    32    34   ar
    20    34    35   ar
    21    35    36   ar
    22    36    37   ar
    23    10    13    1
    24    13    14   ar
    25    14    15   ar
    26    15    16   ar
    27    16    17   ar
    28    17    18   ar
    29    18    19    1
    30    19    20    2
    31    19    21   am
    32    21    22    1
    33    22    23    1
    34    23    24    1
    35    24    25    1
    36     7     1    1
    37    37    27   ar
    38    18    13   ar
    39    25    21    1
    40     8     3    1
    41    36    30   ar
    42    11    12    1
@<TRIPOS>MOLECULE
*****
 37 42 0 0 0
SMALL
GASTEIGER

@<TRIPOS>ATOM
      1 C           6.3701   -2.7319   21.0524 C.3     1  UNL1        0.0745
      2 C           7.5707   -2.7301   20.1532 C.3     1  UNL1        0.0356
      3 C           8.6930   -3.6946   20.3985 C.3     1  UNL1        0.0594
      4 C           9.5322   -4.7846   20.9965 C.3     1  UNL1        0.0174
      5 C           8.7938   -5.3434   22.1766 C.3     1  UNL1        0.0174
      6 C           7.4983   -4.5989   22.3079 C.3     1  UNL1        0.0594
      7 C           6.2919   -3.6981   22.1971 C.3     1  UNL1        0.0356
      8 N           7.4360   -3.5798   21.2090 N.3     1  UNL1       -0.2715
      9 O           4.2830   -3.3528   18.9889 O.2     1  UNL1       -0.2701
     10 C           4.2042   -2.0778   19.7753 C.2     1  UNL1        0.2459
     11 N           5.2478   -1.7674   20.8070 N.am    1  UNL1       -0.3024
     12 H           5.1962   -0.9306   21.3231 H       1  UNL1        0.1497
     13 C           3.0820   -1.1134   19.5298 C.ar    1  UNL1        0.0577
     14 C           1.9087   -1.0746   20.4636 C.ar    1  UNL1        0.0047
     15 C           0.7864   -0.1101   20.2181 C.ar    1  UNL1        0.0001
     16 C           0.8374    0.8156   19.0389 C.ar    1  UNL1        0.0001
     17 C           2.0107    0.7768   18.1051 C.ar    1  UNL1        0.0047
     18 C           3.1330   -0.1877   18.3506 C.ar    1  UNL1        0.0579
     19 C           4.3063   -0.2265   17.4169 C.2     1  UNL1        0.2492
     20 O           3.8895   -1.0923   16.2651 O.2     1  UNL1       -0.2699
     21 N           5.5597    0.5245   17.7559 N.am    1  UNL1       -0.2761
     22 C           6.8071    0.5790   16.9246 C.3     1  UNL1        0.0938
     23 C           7.8041    1.4410   17.6406 C.3     1  UNL1        0.0233
     24 C           7.1730    1.9194   18.9145 C.3     1  UNL1        0.0233
     25 C           5.7859    1.3530   18.9858 C.3     1  UNL1        0.0938
     26 C           6.3137   -2.6154   20.9636 C.3     1  UNL1        0.0991
     27 C           6.0126   -1.5435   21.9689 C.ar    1  UNL1       -0.0061
     28 C           6.8439   -0.2955   22.0064 C.ar    1  UNL1       -0.0029
     29 C           6.5428    0.7762   23.0117 C.ar    1  UNL1       -0.0002
     30 C           5.4104    0.6001   23.9794 C.ar    1  UNL1        0.0022
     31 C           5.1093    1.6719   24.9847 C.ar    1  UNL1        0.0296
     32 C           3.9768    1.4958   25.9524 C.ar    1  UNL1        0.1401
     33 F           3.6757    2.5676   26.9577 F       1  UNL1       -0.2042
     34 C           3.1455    0.2477   25.9149 C.ar    1  UNL1        0.0296
     35 C           3.4466   -0.8241   24.9096 C.ar    1  UNL1        0.0023
     36 C           4.5790   -0.6479   23.9419 C.ar    1  UNL1       -0.0001
     37 C           4.8801   -1.7197   22.9367 C.ar    1  UNL1       -0.0029
@<TRIPOS>BOND
     1     9    10    2
     2    10    11   am
     3     1    11    1
     4     1     2    1
     5     3     2    1
     6     3     4    1
     7     4     5    1
     8     6     5    1
     9     6     7    1
    10     6     8    1
    11     8    26    1
    12    26    27    1
    13    27    28   ar
    14    28    29   ar
    15    29    30   ar
    16    30    31   ar
    17    31    32   ar
    18    32    33    1
    19    32    34   ar
    20    34    35   ar
    21    35    36   ar
    22    36    37   ar
    23    10    13    1
    24    13    14   ar
    25    14    15   ar
    26    15    16   ar
    27    16    17   ar
    28    17    18   ar
    29    18    19    1
    30    19    20    2
    31    19    21   am
    32    21    22    1
    33    22    23    1
    34    23    24    1
    35    24    25    1
    36     7     1    1
    37    37    27   ar
    38    18    13   ar
    39    25    21    1
    40     8     3    1
    41    36    30   ar
    42    11    12    1
@<TRIPOS>MOLECULE
*****
 37 42 0 0 0
SMALL
GASTEIGER

@<TRIPOS>ATOM
      1 C           6.8416    0.5132   17.9540 C.3     1  UNL1        0.0745
      2 C           7.8307    1.1981   18.8498 C.3     1  UNL1        0.0356
      3 C           8.7454    2.2483   18.2927 C.3     1  UNL1        0.0594
      4 C           9.4257    3.1900   17.3438 C.3     1  UNL1        0.0174
      5 C           8.8116    3.0054   15.9877 C.3     1  UNL1        0.0174
      6 C           7.7519    1.9496   16.0985 C.3     1  UNL1        0.0594
      7 C           6.7672    0.8784   16.5010 C.3     1  UNL1        0.0356
      8 N           7.7110    1.4816   17.5231 N.3     1  UNL1       -0.2715
      9 O           7.8595   -2.2708   18.4158 O.2     1  UNL1       -0.2701
     10 C           6.4358   -1.9290   18.7421 C.2     1  UNL1        0.2459
     11 N           5.9268   -0.5371   18.5111 N.am    1  UNL1       -0.3024
     12 H           4.9925   -0.3127   18.7252 H       1  UNL1        0.1497
     13 C           5.5211   -2.9792   19.2992 C.ar    1  UNL1        0.0577
     14 C           4.9943   -4.0645   18.4078 C.ar    1  UNL1        0.0047
     15 C           4.0797   -5.1147   18.9649 C.ar    1  UNL1        0.0001
     16 C           3.6918   -5.0797   20.4135 C.ar    1  UNL1        0.0001
     17 C           4.2186   -3.9943   21.3049 C.ar    1  UNL1        0.0047
     18 C           5.1333   -2.9441   20.7477 C.ar    1  UNL1        0.0579
     19 C           5.6601   -1.8588   21.6391 C.2     1  UNL1        0.2492
     20 O           7.0839   -2.2240   21.9379 O.2     1  UNL1       -0.2699
     21 N           4.7715   -0.7177   22.0370 N.am    1  UNL1       -0.2761
     22 C           5.1563    0.4339   22.9177 C.3     1  UNL1        0.0938
     23 C           3.9647    1.3355   23.0490 C.3     1  UNL1        0.0233
     24 C           2.8434    0.7411   22.2495 C.3     1  UNL1        0.0233
     25 C           3.3420   -0.5278   21.6240 C.3     1  UNL1        0.0938
     26 C           6.7963    0.4315   18.0802 C.3     1  UNL1        0.0991
     27 C           5.3253    0.7022   18.1948 C.ar    1  UNL1       -0.0061
     28 C           4.3380   -0.2492   17.5867 C.ar    1  UNL1       -0.0029
     29 C           2.8671    0.0216   17.7014 C.ar    1  UNL1       -0.0002
     30 C           2.3836    1.2438   18.4242 C.ar    1  UNL1        0.0022
     31 C           0.9127    1.5146   18.5388 C.ar    1  UNL1        0.0296
     32 C           0.4292    2.7368   19.2616 C.ar    1  UNL1        0.1401
     33 F          -1.0417    3.0076   19.3762 F       1  UNL1       -0.2042
     34 C           1.4166    3.6883   19.8697 C.ar    1  UNL1        0.0296
     35 C           2.8875    3.4175   19.7550 C.ar    1  UNL1        0.0023
     36 C           3.3710    2.1953   19.0323 C.ar    1  UNL1       -0.0001
     37 C           4.8418    1.9245   18.9176 C.ar    1  UNL1       -0.0029
@<TRIPOS>BOND
     1     9    10    2
     2    10    11   am
     3     1    11    1
     4     1     2    1
     5     3     2    1
     6     3     4    1
     7     4     5    1
     8     6     5    1
     9     6     7    1
    10     6     8    1
    11     8    26    1
    12    26    27    1
    13    27    28   ar
    14    28    29   ar
    15    29    30   ar
    16    30    31   ar
    17    31    32   ar
    18    32    33    1
    19    32    34   ar
    20    34    35   ar
    21    35    36   ar
    22    36    37   ar
    23    10    13    1
    24    13    14   ar
    25    14    15   ar
    26    15    16   ar
    27    16    17   ar
    28    17    18   ar
    29    18    19    1
    30    19    20    2
    31    19    21   am
    32    21    22    1
    33    22    23    1
    34    23    24    1
    35    24    25    1
    36     7     1    1
    37    37    27   ar
    38    18    13   ar
    39    25    21    1
    40     8     3    1
    41    36    30   ar
    42    11    12    1
@<TRIPOS>MOLECULE
*****
 37 42 0 0 0
SMALL
GASTEIGER

@<TRIPOS>ATOM
      1 C           3.3207    1.5390   18.7536 C.3     1  UNL1        0.0745
      2 C           4.4488    2.4175   18.3002 C.3     1  UNL1        0.0356
      3 C           4.1698    3.8153   17.8329 C.3     1  UNL1        0.0594
      4 C           3.4521    5.0805   17.4669 C.3     1  UNL1        0.0174
      5 C           1.9883    4.8731   17.7206 C.3     1  UNL1        0.0174
      6 C           1.8014    3.4796   18.2435 C.3     1  UNL1        0.0594
      7 C           1.9135    2.0582   18.7397 C.3     1  UNL1        0.0356
      8 N           3.1496    2.8259   18.3129 N.3     1  UNL1       -0.2715
      9 O           3.7700   -0.6501   16.7521 O.2     1  UNL1       -0.2701
     10 C           3.8244   -0.9533   18.2201 C.2     1  UNL1        0.2459
     11 N           3.5998    0.1412   19.2209 N.am    1  UNL1       -0.3024
     12 H           3.6355   -0.0578   20.1844 H       1  UNL1        0.1497
     13 C           4.1035   -2.3511   18.6874 C.ar    1  UNL1        0.0577
     14 C           2.9696   -3.3063   18.9151 C.ar    1  UNL1        0.0047
     15 C           3.2487   -4.7040   19.3823 C.ar    1  UNL1        0.0001
     16 C           4.6618   -5.1466   19.6219 C.ar    1  UNL1        0.0001
     17 C           5.7957   -4.1915   19.3942 C.ar    1  UNL1        0.0047
     18 C           5.5165   -2.7937   18.9269 C.ar    1  UNL1        0.0579
     19 C           6.6505   -1.8385   18.6992 C.2     1  UNL1        0.2492
     20 O           6.9725   -1.9203   17.2365 O.2     1  UNL1       -0.2699
     21 N           7.2089   -1.0500   19.8467 N.am    1  UNL1       -0.2761
     22 C           8.3356   -0.0626   19.7725 C.3     1  UNL1        0.0938
     23 C           8.5616    0.4871   21.1497 C.3     1  UNL1        0.0233
     24 C           7.5746   -0.1607   22.0751 C.3     1  UNL1        0.0233
     25 C           6.7386   -1.1106   21.2698 C.3     1  UNL1        0.0938
     26 C           3.4286    1.4281   18.7802 C.3     1  UNL1        0.0991
     27 C           3.2692    1.0760   20.2296 C.ar    1  UNL1       -0.0061
     28 C           2.1521    0.1742   20.6638 C.ar    1  UNL1       -0.0029
     29 C           1.9927   -0.1779   22.1131 C.ar    1  UNL1       -0.0002
     30 C           2.9506    0.3718   23.1282 C.ar    1  UNL1        0.0022
     31 C           2.7912    0.0196   24.5776 C.ar    1  UNL1        0.0296
     32 C           3.7491    0.5693   25.5927 C.ar    1  UNL1        0.1401
     33 F           3.5897    0.2172   27.0420 F       1  UNL1       -0.2042
     34 C           4.8663    1.4712   25.1583 C.ar    1  UNL1        0.0296
     35 C           5.0256    1.8233   23.7090 C.ar    1  UNL1        0.0023
     36 C           4.0678    1.2736   22.6939 C.ar    1  UNL1       -0.0001
     37 C           4.2271    1.6257   21.2446 C.ar    1  UNL1       -0.0029
@<TRIPOS>BOND
     1     9    10    2
     2    10    11   am
     3     1    11    1
     4     1     2    1
     5     3     2    1
     6     3     4    1
     7     4     5    1
     8     6     5    1
     9     6     7    1
    10     6     8    1
    11     8    26    1
    12    26    27    1
    13    27    28   ar
    14    28    29   ar
    15    29    30   ar
    16    30    31   ar
    17    31    32   ar
    18    32    33    1
    19    32    34   ar
    20    34    35   ar
    21    35    36   ar
    22    36    37   ar
    23    10    13    1
    24    13    14   ar
    25    14    15   ar
    26    15    16   ar
    27    16    17   ar
    28    17    18   ar
    29    18    19    1
    30    19    20    2
    31    19    21   am
    32    21    22    1
    33    22    23    1
    34    23    24    1
    35    24    25    1
    36     7     1    1
    37    37    27   ar
    38    18    13   ar
    39    25    21    1
    40     8     3    1
    41    36    30   ar
    42    11    12    1
@<TRIPOS>MOLECULE
*****
 37 42 0 0 0
SMALL
GASTEIGER

@<TRIPOS>ATOM
      1 C           6.9787   -4.4397   23.7165 C.3     1  UNL1        0.0745
      2 C           7.8641   -4.8704   22.5849 C.3     1  UNL1        0.0356
      3 C           8.6858   -6.1191   22.7088 C.3     1  UNL1        0.0594
      4 C           9.2980   -7.3759   23.2526 C.3     1  UNL1        0.0174
      5 C           8.7500   -7.5996   24.6310 C.3     1  UNL1        0.0174
      6 C           7.7993   -6.4811   24.9390 C.3     1  UNL1        0.0594
      7 C           6.9151   -5.2578   24.9722 C.3     1  UNL1        0.0356
      8 N           7.7595   -5.5661   23.7510 N.3     1  UNL1       -0.2715
      9 O           4.3313   -4.5199   22.3077 O.2     1  UNL1       -0.2701
     10 C           4.8333   -3.2310   22.8881 C.2     1  UNL1        0.2459
     11 N           6.1570   -3.1909   23.5925 N.am    1  UNL1       -0.3024
     12 H           6.4865   -2.3450   23.9735 H       1  UNL1        0.1497
     13 C           4.0116   -1.9823   22.7641 C.ar    1  UNL1        0.0577
     14 C           3.4752   -1.3121   23.9943 C.ar    1  UNL1        0.0047
     15 C           2.6535   -0.0634   23.8702 C.ar    1  UNL1        0.0001
     16 C           2.3681    0.5152   22.5160 C.ar    1  UNL1        0.0001
     17 C           2.9045   -0.1549   21.2859 C.ar    1  UNL1        0.0047
     18 C           3.7262   -1.4037   21.4100 C.ar    1  UNL1        0.0579
     19 C           4.2626   -2.0739   20.1798 C.2     1  UNL1        0.2492
     20 O           3.1047   -2.8074   19.5705 O.2     1  UNL1       -0.2699
     21 N           5.7071   -1.9145   19.8083 N.am    1  UNL1       -0.2761
     22 C           6.3825   -2.5213   18.6143 C.3     1  UNL1        0.0938
     23 C           7.8226   -2.1021   18.6336 C.3     1  UNL1        0.0233
     24 C           8.0372   -1.2362   19.8394 C.3     1  UNL1        0.0233
     25 C           6.7298   -1.1203   20.5655 C.3     1  UNL1        0.0938
     26 C           6.9378   -4.3174   23.6271 C.3     1  UNL1        0.0991
     27 C           7.2223   -3.1412   24.5136 C.ar    1  UNL1       -0.0061
     28 C           8.2520   -2.1285   24.1087 C.ar    1  UNL1       -0.0029
     29 C           8.5364   -0.9525   24.9953 C.ar    1  UNL1       -0.0002
     30 C           7.7911   -0.7892   26.2867 C.ar    1  UNL1        0.0022
     31 C           8.0756    0.3869   27.1733 C.ar    1  UNL1        0.0296
     32 C           7.3303    0.5502   28.4648 C.ar    1  UNL1        0.1401
     33 F           7.6147    1.7262   29.3513 F       1  UNL1       -0.2042
     34 C           6.3006   -0.4626   28.8697 C.ar    1  UNL1        0.0296
     35 C           6.0162   -1.6387   27.9831 C.ar    1  UNL1        0.0023
     36 C           6.7614   -1.8019   26.6917 C.ar    1  UNL1       -0.0001
     37 C           6.4770   -2.9780   25.8051 C.ar    1  UNL1       -0.0029
@<TRIPOS>BOND
     1     9    10    2
     2    10    11   am
     3     1    11    1
     4     1     2    1
     5     3     2    1
     6     3     4    1
     7     4     5    1
     8     6     5    1
     9     6     7    1
    10     6     8    1
    11     8    26    1
    12    26    27    1
    13    27    28   ar
    14    28    29   ar
    15    29    30   ar
    16    30    31   ar
    17    31    32   ar
    18    32    33    1
    19    32    34   ar
    20    34    35   ar
    21    35    36   ar
    22    36    37   ar
    23    10    13    1
    24    13    14   ar
    25    14    15   ar
    26    15    16   ar
    27    16    17   ar
    28    17    18   ar
    29    18    19    1
    30    19    20    2
    31    19    21   am
    32    21    22    1
    33    22    23    1
    34    23    24    1
    35    24    25    1
    36     7     1    1
    37    37    27   ar
    38    18    13   ar
    39    25    21    1
    40     8     3    1
    41    36    30   ar
    42    11    12    1
@<TRIPOS>MOLECULE
*****
 37 42 0 0 0
SMALL
GASTEIGER

@<TRIPOS>ATOM
      1 C           5.2912   -1.6052   31.7681 C.3     1  UNL1        0.0745
      2 C           5.8933   -1.7986   30.4079 C.3     1  UNL1        0.0356
      3 C           6.6208   -3.0696   30.0835 C.3     1  UNL1        0.0594
      4 C           7.2276   -4.4362   30.2025 C.3     1  UNL1        0.0174
      5 C           6.9523   -4.9468   31.5858 C.3     1  UNL1        0.0174
      6 C           6.1754   -3.8957   32.3218 C.3     1  UNL1        0.0594
      7 C           5.4166   -2.6829   32.8039 C.3     1  UNL1        0.0356
      8 N           5.9705   -2.7355   31.3933 N.3     1  UNL1       -0.2715
      9 O           2.4191   -1.2745   30.9670 O.2     1  UNL1       -0.2701
     10 C           3.1277   -0.1687   31.6919 C.2     1  UNL1        0.2459
     11 N           4.5637   -0.3341   32.0924 N.am    1  UNL1       -0.3024
     12 H           5.0288    0.3916   32.5682 H       1  UNL1        0.1497
     13 C           2.4002    1.1023   32.0162 C.ar    1  UNL1        0.0577
     14 C           2.5832    1.7501   33.3566 C.ar    1  UNL1        0.0047
     15 C           1.8557    3.0212   33.6809 C.ar    1  UNL1        0.0001
     16 C           0.9452    3.6444   32.6648 C.ar    1  UNL1        0.0001
     17 C           0.7621    2.9965   31.3244 C.ar    1  UNL1        0.0047
     18 C           1.4897    1.7254   31.0001 C.ar    1  UNL1        0.0579
     19 C           1.3066    1.0776   29.6596 C.2     1  UNL1        0.2492
     20 O           0.0151    0.3190   29.7400 O.2     1  UNL1       -0.2699
     21 N           2.3333    1.2762   28.5842 N.am    1  UNL1       -0.2761
     22 C           2.2862    0.6949   27.2021 C.3     1  UNL1        0.0938
     23 C           3.5110    1.1505   26.4658 C.3     1  UNL1        0.0233
     24 C           4.3151    2.0132   27.3927 C.3     1  UNL1        0.0233
     25 C           3.5872    2.0909   28.7019 C.3     1  UNL1        0.0938
     26 C           5.2430   -1.4645   31.7177 C.3     1  UNL1        0.0991
     27 C           5.6745   -0.6311   32.8879 C.ar    1  UNL1       -0.0061
     28 C           6.8686    0.2687   32.7683 C.ar    1  UNL1       -0.0029
     29 C           7.2999    1.1021   33.9385 C.ar    1  UNL1       -0.0002
     30 C           6.5372    1.0356   35.2283 C.ar    1  UNL1        0.0022
     31 C           6.9686    1.8690   36.3986 C.ar    1  UNL1        0.0296
     32 C           6.2059    1.8025   37.6885 C.ar    1  UNL1        0.1401
     33 F           6.6372    2.6358   38.8587 F       1  UNL1       -0.2042
     34 C           5.0117    0.9025   37.8081 C.ar    1  UNL1        0.0296
     35 C           4.5804    0.0692   36.6379 C.ar    1  UNL1        0.0023
     36 C           5.3431    0.1357   35.3480 C.ar    1  UNL1       -0.0001
     37 C           4.9117   -0.6976   34.1778 C.ar    1  UNL1       -0.0029
@<TRIPOS>BOND
     1     9    10    2
     2    10    11   am
     3     1    11    1
     4     1     2    1
     5     3     2    1
     6     3     4    1
     7     4     5    1
     8     6     5    1
     9     6     7    1
    10     6     8    1
    11     8    26    1
    12    26    27    1
    13    27    28   ar
    14    28    29   ar
    15    29    30   ar
    16    30    31   ar
    17    31    32   ar
    18    32    33    1
    19    32    34   ar
    20    34    35   ar
    21    35    36   ar
    22    36    37   ar
    23    10    13    1
    24    13    14   ar
    25    14    15   ar
    26    15    16   ar
    27    16    17   ar
    28    17    18   ar
    29    18    19    1
    30    19    20    2
    31    19    21   am
    32    21    22    1
    33    22    23    1
    34    23    24    1
    35    24    25    1
    36     7     1    1
    37    37    27   ar
    38    18    13   ar
    39    25    21    1
    40     8     3    1
    41    36    30   ar
    42    11    12    1
