@<TRIPOS>MOLECULE
*****
 36 39 0 0 0
SMALL
GASTEIGER

@<TRIPOS>ATOM
      1 N           2.2850    0.9559   22.9450 N.ar    1  UNL1       -0.2459
      2 C           2.6661    0.5792   24.3461 C.ar    1  UNL1        0.1116
      3 C           1.4950    0.8665   25.2382 C.ar    1  UNL1        0.0908
      4 C           0.3900    1.4208   24.3886 C.ar    1  UNL1        0.1363
      5 N           0.8783    1.4760   22.9714 N.ar    1  UNL1       -0.1661
      6 N           1.4387    0.6395   26.7199 N.am    1  UNL1       -0.2762
      7 C           1.9558    1.6882   27.6595 C.2     1  UNL1        0.2754
      8 O           2.5291    2.9639   27.1174 O.2     1  UNL1       -0.2675
      9 H           1.0625   -0.1978   27.0756 H       1  UNL1        0.1553
     10 C           1.8995    1.4611   29.1411 C.ar    1  UNL1        0.1872
     11 N           0.7583    1.8211   30.0456 N.ar    1  UNL1       -0.1361
     12 N           1.1282    1.4166   31.4419 N.ar    1  UNL1       -0.1391
     13 C           2.4979    0.8067   31.4004 C.ar    1  UNL1        0.1529
     14 S           2.9747    0.8342   29.9784 S.2     1  UNL1       -0.0394
     15 C           3.2576    0.2645   32.5747 C.ar    1  UNL1        0.1260
     16 C           3.6261    1.1699   33.7124 C.ar    1  UNL1        0.1201
     17 N           4.3858    0.6277   34.8867 N.ar    1  UNL1       -0.2390
     18 C           4.7769   -0.8200   34.9232 C.ar    1  UNL1        0.1195
     19 C           4.4083   -1.7254   33.7855 C.ar    1  UNL1        0.1195
     20 N           3.6487   -1.1832   32.6113 N.ar    1  UNL1       -0.2385
     21 C           3.7393    2.0634   21.0989 C.3     1  UNL1        0.0312
     22 C           3.1573    0.8339   21.7309 C.3     1  UNL1        0.1274
     23 C           3.4477   -0.5178   21.1488 C.ar    1  UNL1        0.0038
     24 C           4.4899   -1.3960   21.7752 C.ar    1  UNL1       -0.0025
     25 C           4.7803   -2.7476   21.1931 C.ar    1  UNL1        0.0036
     26 C           4.0284   -3.2209   19.9846 C.ar    1  UNL1        0.0714
     27 C           2.9861   -2.3427   19.3582 C.ar    1  UNL1        0.0074
     28 C           2.6958   -0.9912   19.9403 C.ar    1  UNL1        0.0692
     29 C           4.3187   -4.5726   19.4025 C.3     1  UNL1        0.4186
     30 F           4.6092   -5.9242   18.8204 F       1  UNL1       -0.1659
     31 F           2.8529   -4.7860   19.1667 F       1  UNL1       -0.1659
     32 F           5.7846   -4.3592   19.6383 F       1  UNL1       -0.1659
     33 C           1.6535   -0.1129   19.3138 C.3     1  UNL1        0.4183
     34 F           0.6112    0.7653   18.6875 F       1  UNL1       -0.1659
     35 F           0.6284   -0.6482   20.2690 F       1  UNL1       -0.1659
     36 F           2.6786    0.4225   18.3587 F       1  UNL1       -0.1659
@<TRIPOS>BOND
     1    22    21    1
     2    22    23    1
     3    23    24   ar
     4    24    25   ar
     5    25    26   ar
     6    26    29    1
     7    29    30    1
     8    29    31    1
     9    29    32    1
    10    26    27   ar
    11    27    28   ar
    12    28    33    1
    13    33    34    1
    14    33    35    1
    15    33    36    1
    16    22     1    1
    17     1     2   ar
    18     2     3   ar
    19     3     6    1
    20     6     7   am
    21     7     8    2
    22     7    10    1
    23    10    11   ar
    24    11    12   ar
    25    12    13   ar
    26    13    15    1
    27    15    16   ar
    28    16    17   ar
    29    17    18   ar
    30    18    19   ar
    31    19    20   ar
    32    13    14   ar
    33     3     4   ar
    34     4     5   ar
    35    28    23   ar
    36     5     1   ar
    37    14    10   ar
    38    20    15   ar
    39     6     9    1
@<TRIPOS>MOLECULE
*****
 36 39 0 0 0
SMALL
GASTEIGER

@<TRIPOS>ATOM
      1 N           6.8205   -3.9173   22.5781 N.ar    1  UNL1       -0.2459
      2 C           6.2733   -3.5675   23.9303 C.ar    1  UNL1        0.1116
      3 C           6.7481   -4.6042   24.9048 C.ar    1  UNL1        0.0908
      4 C           7.5888   -5.5947   24.1550 C.ar    1  UNL1        0.1363
      5 N           7.6335   -5.1701   22.7171 N.ar    1  UNL1       -0.1661
      6 N           6.4369   -4.6435   26.3717 N.am    1  UNL1       -0.2762
      7 C           7.3486   -3.9644   27.3502 C.2     1  UNL1        0.2754
      8 O           8.5715   -3.2460   26.8620 O.2     1  UNL1       -0.2675
      9 H           5.6343   -5.1151   26.6921 H       1  UNL1        0.1553
     10 C           7.0374   -4.0037   28.8170 C.ar    1  UNL1        0.1872
     11 N           7.1214   -5.2103   29.7042 N.ar    1  UNL1       -0.1361
     12 N           6.7234   -4.7956   31.0897 N.ar    1  UNL1       -0.1391
     13 C           6.3934   -3.3326   31.0589 C.ar    1  UNL1        0.1529
     14 S           6.5875   -2.8432   29.6542 S.2     1  UNL1       -0.0394
     15 C           5.9477   -2.5045   32.2274 C.ar    1  UNL1        0.1260
     16 C           4.5792   -2.7031   32.8089 C.ar    1  UNL1        0.1201
     17 N           4.1335   -1.8750   33.9775 N.ar    1  UNL1       -0.2390
     18 C           5.0562   -0.8483   34.5645 C.ar    1  UNL1        0.1195
     19 C           6.4245   -0.6497   33.9831 C.ar    1  UNL1        0.1195
     20 N           6.8703   -1.4778   32.8145 N.ar    1  UNL1       -0.2385
     21 C           7.6361   -3.1598   20.2306 C.3     1  UNL1        0.0312
     22 C           6.5944   -3.1490   21.3098 C.3     1  UNL1        0.1274
     23 C           5.3266   -2.3699   21.1207 C.ar    1  UNL1        0.0038
     24 C           5.1354   -1.0640   21.8335 C.ar    1  UNL1       -0.0025
     25 C           3.8676   -0.2850   21.6444 C.ar    1  UNL1        0.0036
     26 C           2.7910   -0.8119   20.7425 C.ar    1  UNL1        0.0714
     27 C           2.9822   -2.1178   20.0298 C.ar    1  UNL1        0.0074
     28 C           4.2500   -2.8968   20.2189 C.ar    1  UNL1        0.0692
     29 C           1.5232   -0.0328   20.5535 C.3     1  UNL1        0.4186
     30 F           0.2554    0.7463   20.3644 F       1  UNL1       -0.1659
     31 F           0.8447   -1.2639   20.0299 F       1  UNL1       -0.1659
     32 F           2.2016    1.1982   21.0770 F       1  UNL1       -0.1659
     33 C           4.4412   -4.2028   19.5062 C.3     1  UNL1        0.4183
     34 F           4.6324   -5.5087   18.7934 F       1  UNL1       -0.1659
     35 F           5.0116   -3.4747   18.3253 F       1  UNL1       -0.1659
     36 F           3.8708   -4.9308   20.6870 F       1  UNL1       -0.1659
@<TRIPOS>BOND
     1    22    21    1
     2    22    23    1
     3    23    24   ar
     4    24    25   ar
     5    25    26   ar
     6    26    29    1
     7    29    30    1
     8    29    31    1
     9    29    32    1
    10    26    27   ar
    11    27    28   ar
    12    28    33    1
    13    33    34    1
    14    33    35    1
    15    33    36    1
    16    22     1    1
    17     1     2   ar
    18     2     3   ar
    19     3     6    1
    20     6     7   am
    21     7     8    2
    22     7    10    1
    23    10    11   ar
    24    11    12   ar
    25    12    13   ar
    26    13    15    1
    27    15    16   ar
    28    16    17   ar
    29    17    18   ar
    30    18    19   ar
    31    19    20   ar
    32    13    14   ar
    33     3     4   ar
    34     4     5   ar
    35    28    23   ar
    36     5     1   ar
    37    14    10   ar
    38    20    15   ar
    39     6     9    1
@<TRIPOS>MOLECULE
*****
 36 39 0 0 0
SMALL
GASTEIGER

@<TRIPOS>ATOM
      1 N           5.3249   -3.8241   21.4488 N.ar    1  UNL1       -0.2459
      2 C           4.9177   -3.5399   22.8643 C.ar    1  UNL1        0.1116
      3 C           6.0960   -3.8170   23.7502 C.ar    1  UNL1        0.0908
      4 C           7.2315   -4.2724   22.8823 C.ar    1  UNL1        0.1363
      5 N           6.7549   -4.2768   21.4600 N.ar    1  UNL1       -0.1661
      6 N           6.1324   -3.6652   25.2420 N.am    1  UNL1       -0.2762
      7 C           6.6727   -4.7740   26.0957 C.2     1  UNL1        0.2754
      8 O           7.1766   -6.0345   25.4575 O.2     1  UNL1       -0.2675
      9 H           5.8017   -2.8379   25.6609 H       1  UNL1        0.1553
     10 C           6.7091   -4.6222   27.5875 C.ar    1  UNL1        0.1872
     11 N           6.9159   -5.7266   28.5813 N.ar    1  UNL1       -0.1361
     12 N           6.8797   -5.1263   29.9555 N.ar    1  UNL1       -0.1391
     13 C           6.6505   -3.6510   29.8110 C.ar    1  UNL1        0.1529
     14 S           6.5451   -3.3394   28.3475 S.2     1  UNL1       -0.0394
     15 C           6.5452   -2.6610   30.9330 C.ar    1  UNL1        0.1260
     16 C           7.3931   -1.4236   30.9235 C.ar    1  UNL1        0.1201
     17 N           7.2879   -0.4337   32.0455 N.ar    1  UNL1       -0.2390
     18 C           6.3347   -0.6811   33.1770 C.ar    1  UNL1        0.1195
     19 C           5.4869   -1.9184   33.1865 C.ar    1  UNL1        0.1195
     20 N           5.5921   -2.9084   32.0645 N.ar    1  UNL1       -0.2385
     21 C           4.0242   -4.8988   19.4733 C.3     1  UNL1        0.0312
     22 C           4.4549   -3.6808   20.2354 C.3     1  UNL1        0.1274
     23 C           4.0157   -2.3193   19.7840 C.ar    1  UNL1        0.0038
     24 C           2.6492   -1.8151   20.1422 C.ar    1  UNL1       -0.0025
     25 C           2.2100   -0.4538   19.6908 C.ar    1  UNL1        0.0036
     26 C           3.1373    0.4034   18.8813 C.ar    1  UNL1        0.0714
     27 C           4.5038   -0.1008   18.5231 C.ar    1  UNL1        0.0074
     28 C           4.9430   -1.4622   18.9745 C.ar    1  UNL1        0.0692
     29 C           2.6981    1.7648   18.4300 C.3     1  UNL1        0.4186
     30 F           2.2588    3.1262   17.9786 F       1  UNL1       -0.1659
     31 F           4.0669    2.3037   18.7231 F       1  UNL1       -0.1659
     32 F           1.3293    1.2260   18.1368 F       1  UNL1       -0.1659
     33 C           6.3096   -1.9665   18.6163 C.3     1  UNL1        0.4183
     34 F           7.6761   -2.4708   18.2581 F       1  UNL1       -0.1659
     35 F           5.7242   -2.7405   17.4726 F       1  UNL1       -0.1659
     36 F           6.8950   -1.1925   19.7600 F       1  UNL1       -0.1659
@<TRIPOS>BOND
     1    22    21    1
     2    22    23    1
     3    23    24   ar
     4    24    25   ar
     5    25    26   ar
     6    26    29    1
     7    29    30    1
     8    29    31    1
     9    29    32    1
    10    26    27   ar
    11    27    28   ar
    12    28    33    1
    13    33    34    1
    14    33    35    1
    15    33    36    1
    16    22     1    1
    17     1     2   ar
    18     2     3   ar
    19     3     6    1
    20     6     7   am
    21     7     8    2
    22     7    10    1
    23    10    11   ar
    24    11    12   ar
    25    12    13   ar
    26    13    15    1
    27    15    16   ar
    28    16    17   ar
    29    17    18   ar
    30    18    19   ar
    31    19    20   ar
    32    13    14   ar
    33     3     4   ar
    34     4     5   ar
    35    28    23   ar
    36     5     1   ar
    37    14    10   ar
    38    20    15   ar
    39     6     9    1
@<TRIPOS>MOLECULE
*****
 36 39 0 0 0
SMALL
GASTEIGER

@<TRIPOS>ATOM
      1 N           1.7302    2.0971   19.7669 N.ar    1  UNL1       -0.2459
      2 C           0.6251    2.0357   20.7793 C.ar    1  UNL1        0.1116
      3 C          -0.5896    2.6793   20.1792 C.ar    1  UNL1        0.0908
      4 C          -0.2353    3.1385   18.7959 C.ar    1  UNL1        0.1363
      5 N           1.1985    2.7787   18.5411 N.ar    1  UNL1       -0.1661
      6 N          -1.9244    2.8362   20.8454 N.am    1  UNL1       -0.2762
      7 C          -2.0443    3.6444   22.1033 C.2     1  UNL1        0.2754
      8 O          -0.8295    4.2957   22.6950 O.2     1  UNL1       -0.2675
      9 H          -2.7217    2.4087   20.4571 H       1  UNL1        0.1553
     10 C          -3.3791    3.8013   22.7696 C.ar    1  UNL1        0.1872
     11 N          -4.6596    3.1466   22.3434 N.ar    1  UNL1       -0.1361
     12 N          -5.7395    3.5811   23.2894 N.ar    1  UNL1       -0.1391
     13 C          -5.1264    4.5043   24.3003 C.ar    1  UNL1        0.1529
     14 S          -3.6675    4.6404   23.9790 S.2     1  UNL1       -0.0394
     15 C          -5.8459    5.1739   25.4335 C.ar    1  UNL1        0.1260
     16 C          -5.2432    5.1769   26.8071 C.ar    1  UNL1        0.1201
     17 N          -5.9626    5.8464   27.9403 N.ar    1  UNL1       -0.2390
     18 C          -7.2848    6.5130   27.6998 C.ar    1  UNL1        0.1195
     19 C          -7.8874    6.5099   26.3263 C.ar    1  UNL1        0.1195
     20 N          -7.1680    5.8404   25.1931 N.ar    1  UNL1       -0.2385
     21 C           4.2048    2.4710   20.4645 C.3     1  UNL1        0.0312
     22 C           3.1226    1.5696   19.9485 C.3     1  UNL1        0.1274
     23 C           3.4328    0.1405   19.6141 C.ar    1  UNL1        0.0038
     24 C           3.9013   -0.2225   18.2362 C.ar    1  UNL1       -0.0025
     25 C           4.2114   -1.6515   17.9018 C.ar    1  UNL1        0.0036
     26 C           4.0530   -2.7174   18.9453 C.ar    1  UNL1        0.0714
     27 C           3.5846   -2.3543   20.3232 C.ar    1  UNL1        0.0074
     28 C           3.2744   -0.9253   20.6576 C.ar    1  UNL1        0.0692
     29 C           4.3632   -4.1464   18.6108 C.3     1  UNL1        0.4186
     30 F           4.6734   -5.5753   18.2763 F       1  UNL1       -0.1659
     31 F           3.0009   -4.5538   19.0882 F       1  UNL1       -0.1659
     32 F           5.7256   -3.7389   18.1334 F       1  UNL1       -0.1659
     33 C           2.8059   -0.5621   22.0355 C.3     1  UNL1        0.4183
     34 F           2.3374   -0.1990   23.4134 F       1  UNL1       -0.1659
     35 F           1.3889   -0.8329   21.6250 F       1  UNL1       -0.1659
     36 F           4.2230   -0.2914   22.4460 F       1  UNL1       -0.1659
@<TRIPOS>BOND
     1    22    21    1
     2    22    23    1
     3    23    24   ar
     4    24    25   ar
     5    25    26   ar
     6    26    29    1
     7    29    30    1
     8    29    31    1
     9    29    32    1
    10    26    27   ar
    11    27    28   ar
    12    28    33    1
    13    33    34    1
    14    33    35    1
    15    33    36    1
    16    22     1    1
    17     1     2   ar
    18     2     3   ar
    19     3     6    1
    20     6     7   am
    21     7     8    2
    22     7    10    1
    23    10    11   ar
    24    11    12   ar
    25    12    13   ar
    26    13    15    1
    27    15    16   ar
    28    16    17   ar
    29    17    18   ar
    30    18    19   ar
    31    19    20   ar
    32    13    14   ar
    33     3     4   ar
    34     4     5   ar
    35    28    23   ar
    36     5     1   ar
    37    14    10   ar
    38    20    15   ar
    39     6     9    1
@<TRIPOS>MOLECULE
*****
 36 39 0 0 0
SMALL
GASTEIGER

@<TRIPOS>ATOM
      1 N           4.6929    0.8668   33.3680 N.ar    1  UNL1       -0.2459
      2 C           5.7567    0.0230   32.7307 C.ar    1  UNL1        0.1116
      3 C           5.0942   -0.8882   31.7403 C.ar    1  UNL1        0.0908
      4 C           3.6210   -0.6075   31.7655 C.ar    1  UNL1        0.1363
      5 N           3.3729    0.4771   32.7715 N.ar    1  UNL1       -0.1661
      6 N           5.7840   -1.9020   30.8763 N.am    1  UNL1       -0.2762
      7 C           6.1433   -3.2457   31.4379 C.2     1  UNL1        0.2754
      8 O           5.8129   -3.5756   32.8634 O.2     1  UNL1       -0.2675
      9 H           6.0008   -1.6856   29.9407 H       1  UNL1        0.1553
     10 C           6.8330   -4.2596   30.5740 C.ar    1  UNL1        0.1872
     11 N           7.7753   -5.3263   31.0473 N.ar    1  UNL1       -0.1361
     12 N           8.2262   -6.1107   29.8508 N.ar    1  UNL1       -0.1391
     13 C           7.5625   -5.5287   28.6380 C.ar    1  UNL1        0.1529
     14 S           6.7014   -4.3846   29.0850 S.2     1  UNL1       -0.0394
     15 C           7.7304   -6.0068   27.2262 C.ar    1  UNL1        0.1260
     16 C           7.5327   -7.4569   26.8969 C.ar    1  UNL1        0.1201
     17 N           7.7006   -7.9350   25.4851 N.ar    1  UNL1       -0.2390
     18 C           8.0662   -6.9630   24.4026 C.ar    1  UNL1        0.1195
     19 C           8.2639   -5.5131   24.7319 C.ar    1  UNL1        0.1195
     20 N           8.0960   -5.0350   26.1437 N.ar    1  UNL1       -0.2385
     21 C           5.9897    2.9427   34.2392 C.3     1  UNL1        0.0312
     22 C           4.9108    1.9161   34.4176 C.3     1  UNL1        0.1274
     23 C           4.0497    1.9387   35.6457 C.ar    1  UNL1        0.0038
     24 C           2.8735    2.8666   35.7200 C.ar    1  UNL1       -0.0025
     25 C           2.0125    2.8892   36.9480 C.ar    1  UNL1        0.0036
     26 C           2.3275    1.9838   38.1016 C.ar    1  UNL1        0.0714
     27 C           3.5037    1.0558   38.0273 C.ar    1  UNL1        0.0074
     28 C           4.3647    1.0332   36.7993 C.ar    1  UNL1        0.0692
     29 C           1.4664    2.0064   39.3297 C.3     1  UNL1        0.4186
     30 F           0.6054    2.0290   40.5577 F       1  UNL1       -0.1659
     31 F           0.7645    0.7667   38.8603 F       1  UNL1       -0.1659
     32 F           2.1684    3.2461   39.7990 F       1  UNL1       -0.1659
     33 C           5.5409    0.1052   36.7250 C.3     1  UNL1        0.4183
     34 F           6.7171   -0.8227   36.6506 F       1  UNL1       -0.1659
     35 F           6.4006    1.1420   37.3853 F       1  UNL1       -0.1659
     36 F           4.6812   -0.9315   36.0647 F       1  UNL1       -0.1659
@<TRIPOS>BOND
     1    22    21    1
     2    22    23    1
     3    23    24   ar
     4    24    25   ar
     5    25    26   ar
     6    26    29    1
     7    29    30    1
     8    29    31    1
     9    29    32    1
    10    26    27   ar
    11    27    28   ar
    12    28    33    1
    13    33    34    1
    14    33    35    1
    15    33    36    1
    16    22     1    1
    17     1     2   ar
    18     2     3   ar
    19     3     6    1
    20     6     7   am
    21     7     8    2
    22     7    10    1
    23    10    11   ar
    24    11    12   ar
    25    12    13   ar
    26    13    15    1
    27    15    16   ar
    28    16    17   ar
    29    17    18   ar
    30    18    19   ar
    31    19    20   ar
    32    13    14   ar
    33     3     4   ar
    34     4     5   ar
    35    28    23   ar
    36     5     1   ar
    37    14    10   ar
    38    20    15   ar
    39     6     9    1
@<TRIPOS>MOLECULE
*****
 36 39 0 0 0
SMALL
GASTEIGER

@<TRIPOS>ATOM
      1 N           4.9979   -3.6278   21.2454 N.ar    1  UNL1       -0.2459
      2 C           4.6655   -3.5141   22.7037 C.ar    1  UNL1        0.1116
      3 C           5.9159   -3.7851   23.4867 C.ar    1  UNL1        0.0908
      4 C           7.0211   -4.0663   22.5123 C.ar    1  UNL1        0.1363
      5 N           6.4537   -3.9691   21.1272 N.ar    1  UNL1       -0.1661
      6 N           6.0394   -3.7764   24.9816 N.am    1  UNL1       -0.2762
      7 C           6.1477   -2.4738   25.7176 C.2     1  UNL1        0.2754
      8 O           6.1325   -1.1801   24.9587 O.2     1  UNL1       -0.2675
      9 H           6.0494   -4.6255   25.4796 H       1  UNL1        0.1553
     10 C           6.2712   -2.4651   27.2124 C.ar    1  UNL1        0.1872
     11 N           7.3364   -3.1538   28.0132 N.ar    1  UNL1       -0.1361
     12 N           7.0746   -2.8804   29.4647 N.ar    1  UNL1       -0.1391
     13 C           5.8477   -2.0229   29.5610 C.ar    1  UNL1        0.1529
     14 S           5.3511   -1.7662   28.1690 S.2     1  UNL1       -0.0394
     15 C           5.2265   -1.5117   30.8270 C.ar    1  UNL1        0.1260
     16 C           5.4836   -2.2161   32.1262 C.ar    1  UNL1        0.1201
     17 N           4.8623   -1.7050   33.3922 N.ar    1  UNL1       -0.2390
     18 C           3.9839   -0.4894   33.3590 C.ar    1  UNL1        0.1195
     19 C           3.7269    0.2149   32.0599 C.ar    1  UNL1        0.1195
     20 N           4.3481   -0.2963   30.7939 N.ar    1  UNL1       -0.2385
     21 C           3.4901   -4.6249   19.3793 C.3     1  UNL1        0.0312
     22 C           4.0422   -3.4343   20.1056 C.3     1  UNL1        0.1274
     23 C           3.6387   -2.0500   19.6920 C.ar    1  UNL1        0.0038
     24 C           2.3401   -1.4725   20.1718 C.ar    1  UNL1       -0.0025
     25 C           1.9366   -0.0883   19.7582 C.ar    1  UNL1        0.0036
     26 C           2.8317    0.7184   18.8649 C.ar    1  UNL1        0.0714
     27 C           4.1303    0.1410   18.3851 C.ar    1  UNL1        0.0074
     28 C           4.5337   -1.2433   18.7987 C.ar    1  UNL1        0.0692
     29 C           2.4281    2.1027   18.4513 C.3     1  UNL1        0.4186
     30 F           2.0247    3.4870   18.0378 F       1  UNL1       -0.1659
     31 F           1.0515    1.6041   18.1256 F       1  UNL1       -0.1659
     32 F           3.8048    2.6013   18.7770 F       1  UNL1       -0.1659
     33 C           5.8324   -1.8208   18.3190 C.3     1  UNL1        0.4183
     34 F           7.1309   -2.3984   17.8392 F       1  UNL1       -0.1659
     35 F           5.1151   -2.4918   17.1853 F       1  UNL1       -0.1659
     36 F           6.5497   -1.1498   19.4526 F       1  UNL1       -0.1659
@<TRIPOS>BOND
     1    22    21    1
     2    22    23    1
     3    23    24   ar
     4    24    25   ar
     5    25    26   ar
     6    26    29    1
     7    29    30    1
     8    29    31    1
     9    29    32    1
    10    26    27   ar
    11    27    28   ar
    12    28    33    1
    13    33    34    1
    14    33    35    1
    15    33    36    1
    16    22     1    1
    17     1     2   ar
    18     2     3   ar
    19     3     6    1
    20     6     7   am
    21     7     8    2
    22     7    10    1
    23    10    11   ar
    24    11    12   ar
    25    12    13   ar
    26    13    15    1
    27    15    16   ar
    28    16    17   ar
    29    17    18   ar
    30    18    19   ar
    31    19    20   ar
    32    13    14   ar
    33     3     4   ar
    34     4     5   ar
    35    28    23   ar
    36     5     1   ar
    37    14    10   ar
    38    20    15   ar
    39     6     9    1
@<TRIPOS>MOLECULE
*****
 36 39 0 0 0
SMALL
GASTEIGER

@<TRIPOS>ATOM
      1 N           5.2485   -0.7795   33.9204 N.ar    1  UNL1       -0.2459
      2 C           6.2773   -1.5279   33.1259 C.ar    1  UNL1        0.1116
      3 C           5.6495   -2.7985   32.6345 C.ar    1  UNL1        0.0908
      4 C           4.2326   -2.8354   33.1255 C.ar    1  UNL1        0.1363
      5 N           3.9848   -1.5876   33.9202 N.ar    1  UNL1       -0.1661
      6 N           6.3208   -3.8479   31.7990 N.am    1  UNL1       -0.2762
      7 C           6.5102   -3.6272   30.3275 C.2     1  UNL1        0.2754
      8 O           6.0283   -2.3570   29.6915 O.2     1  UNL1       -0.2675
      9 H           6.6371   -4.6816   32.2164 H       1  UNL1        0.1553
     10 C           7.1814   -4.6766   29.4920 C.ar    1  UNL1        0.1872
     11 N           7.9352   -5.8661   30.0086 N.ar    1  UNL1       -0.1361
     12 N           8.4364   -6.6454   28.8290 N.ar    1  UNL1       -0.1391
     13 C           7.9924   -5.9375   27.5833 C.ar    1  UNL1        0.1529
     14 S           7.2168   -4.7207   27.9930 S.2     1  UNL1       -0.0394
     15 C           8.2745   -6.3705   26.1751 C.ar    1  UNL1        0.1260
     16 C           7.5772   -5.6980   25.0298 C.ar    1  UNL1        0.1201
     17 N           7.8593   -6.1309   23.6216 N.ar    1  UNL1       -0.2390
     18 C           8.8387   -7.2363   23.3587 C.ar    1  UNL1        0.1195
     19 C           9.5359   -7.9087   24.5040 C.ar    1  UNL1        0.1195
     20 N           9.2538   -7.4758   25.9122 N.ar    1  UNL1       -0.2385
     21 C           6.5650    1.4471   34.1630 C.3     1  UNL1        0.0312
     22 C           5.4482    0.5445   34.5965 C.3     1  UNL1        0.1274
     23 C           4.5311    0.9658   35.7063 C.ar    1  UNL1        0.0038
     24 C           4.7199    0.4107   37.0869 C.ar    1  UNL1       -0.0025
     25 C           3.8029    0.8321   38.1965 C.ar    1  UNL1        0.0036
     26 C           2.6970    1.8086   37.9256 C.ar    1  UNL1        0.0714
     27 C           2.5082    2.3637   36.5450 C.ar    1  UNL1        0.0074
     28 C           3.4253    1.9424   35.4353 C.ar    1  UNL1        0.0692
     29 C           1.7799    2.2300   39.0353 C.3     1  UNL1        0.4186
     30 F           0.8629    2.6513   40.1450 F       1  UNL1       -0.1659
     31 F           0.9048    1.0425   38.7631 F       1  UNL1       -0.1659
     32 F           2.6550    3.4174   39.3075 F       1  UNL1       -0.1659
     33 C           3.2365    2.4975   34.0547 C.3     1  UNL1        0.4183
     34 F           3.0477    3.0526   32.6740 F       1  UNL1       -0.1659
     35 F           2.4110    1.3005   33.6863 F       1  UNL1       -0.1659
     36 F           4.0619    3.6946   34.4231 F       1  UNL1       -0.1659
@<TRIPOS>BOND
     1    22    21    1
     2    22    23    1
     3    23    24   ar
     4    24    25   ar
     5    25    26   ar
     6    26    29    1
     7    29    30    1
     8    29    31    1
     9    29    32    1
    10    26    27   ar
    11    27    28   ar
    12    28    33    1
    13    33    34    1
    14    33    35    1
    15    33    36    1
    16    22     1    1
    17     1     2   ar
    18     2     3   ar
    19     3     6    1
    20     6     7   am
    21     7     8    2
    22     7    10    1
    23    10    11   ar
    24    11    12   ar
    25    12    13   ar
    26    13    15    1
    27    15    16   ar
    28    16    17   ar
    29    17    18   ar
    30    18    19   ar
    31    19    20   ar
    32    13    14   ar
    33     3     4   ar
    34     4     5   ar
    35    28    23   ar
    36     5     1   ar
    37    14    10   ar
    38    20    15   ar
    39     6     9    1
@<TRIPOS>MOLECULE
*****
 36 39 0 0 0
SMALL
GASTEIGER

@<TRIPOS>ATOM
      1 N         -14.8886   -2.5496   18.3277 N.ar    1  UNL1       -0.2459
      2 C         -14.9756   -1.2347   19.0442 C.ar    1  UNL1        0.1116
      3 C         -16.1971   -1.2609   19.9144 C.ar    1  UNL1        0.0908
      4 C         -16.8651   -2.5919   19.7357 C.ar    1  UNL1        0.1363
      5 N         -16.0565   -3.3884   18.7550 N.ar    1  UNL1       -0.1661
      6 N         -16.6679   -0.1508   20.8067 N.am    1  UNL1       -0.2762
      7 C         -17.5815    0.9092   20.2666 C.2     1  UNL1        0.2754
      8 O         -18.0243    0.8592   18.8343 O.2     1  UNL1       -0.2675
      9 H         -16.3773   -0.1180   21.7467 H       1  UNL1        0.1553
     10 C         -18.0523    2.0193   21.1588 C.ar    1  UNL1        0.1872
     11 N         -19.2576    2.8826   20.9310 N.ar    1  UNL1       -0.1361
     12 N         -19.3506    3.8578   22.0670 N.ar    1  UNL1       -0.1391
     13 C         -18.2029    3.5972   22.9969 C.ar    1  UNL1        0.1529
     14 S         -17.4004    2.4608   22.4356 S.2     1  UNL1       -0.0394
     15 C         -17.9091    4.3420   24.2653 C.ar    1  UNL1        0.1260
     16 C         -19.0275    4.7125   25.1937 C.ar    1  UNL1        0.1201
     17 N         -18.7338    5.4573   26.4621 N.ar    1  UNL1       -0.2390
     18 C         -17.3215    5.8317   26.8022 C.ar    1  UNL1        0.1195
     19 C         -16.2032    5.4612   25.8738 C.ar    1  UNL1        0.1195
     20 N         -16.4969    4.7163   24.6053 N.ar    1  UNL1       -0.2385
     21 C         -13.7894   -2.3506   15.9821 C.3     1  UNL1        0.0312
     22 C         -13.8213   -2.9546   17.3547 C.3     1  UNL1        0.1274
     23 C         -12.7859   -3.9638   17.7543 C.ar    1  UNL1        0.0038
     24 C         -13.1154   -5.4269   17.7287 C.ar    1  UNL1       -0.0025
     25 C         -12.0800   -6.4359   18.1283 C.ar    1  UNL1        0.0036
     26 C         -10.7151   -5.9818   18.5535 C.ar    1  UNL1        0.0714
     27 C         -10.3855   -4.5187   18.5791 C.ar    1  UNL1        0.0074
     28 C         -11.4210   -3.5097   18.1794 C.ar    1  UNL1        0.0692
     29 C          -9.6796   -6.9910   18.9531 C.3     1  UNL1        0.4186
     30 F          -8.6443   -8.0001   19.3527 F       1  UNL1       -0.1659
     31 F          -9.0429   -5.9790   19.8589 F       1  UNL1       -0.1659
     32 F         -10.3164   -8.0029   18.0473 F       1  UNL1       -0.1659
     33 C         -11.0915   -2.0465   18.2050 C.3     1  UNL1        0.4183
     34 F         -10.7620   -0.5834   18.2305 F       1  UNL1       -0.1659
     35 F         -10.4692   -2.1629   16.8451 F       1  UNL1       -0.1659
     36 F         -11.7137   -1.9301   19.5648 F       1  UNL1       -0.1659
@<TRIPOS>BOND
     1    22    21    1
     2    22    23    1
     3    23    24   ar
     4    24    25   ar
     5    25    26   ar
     6    26    29    1
     7    29    30    1
     8    29    31    1
     9    29    32    1
    10    26    27   ar
    11    27    28   ar
    12    28    33    1
    13    33    34    1
    14    33    35    1
    15    33    36    1
    16    22     1    1
    17     1     2   ar
    18     2     3   ar
    19     3     6    1
    20     6     7   am
    21     7     8    2
    22     7    10    1
    23    10    11   ar
    24    11    12   ar
    25    12    13   ar
    26    13    15    1
    27    15    16   ar
    28    16    17   ar
    29    17    18   ar
    30    18    19   ar
    31    19    20   ar
    32    13    14   ar
    33     3     4   ar
    34     4     5   ar
    35    28    23   ar
    36     5     1   ar
    37    14    10   ar
    38    20    15   ar
    39     6     9    1
@<TRIPOS>MOLECULE
*****
 36 39 0 0 0
SMALL
GASTEIGER

@<TRIPOS>ATOM
      1 N         -15.0751    1.4168   18.8359 N.ar    1  UNL1       -0.2459
      2 C         -15.4586   -0.0297   18.7349 C.ar    1  UNL1        0.1116
      3 C         -14.2189   -0.8180   18.4321 C.ar    1  UNL1        0.0908
      4 C         -13.0691    0.1414   18.3460 C.ar    1  UNL1        0.1363
      5 N         -13.5982    1.5226   18.5956 N.ar    1  UNL1       -0.1661
      6 N         -14.1424   -2.3047   18.2477 N.am    1  UNL1       -0.2762
      7 C         -14.0468   -3.2048   19.4438 C.2     1  UNL1        0.2754
      8 O         -14.0277   -2.6182   20.8243 O.2     1  UNL1       -0.2675
      9 H         -14.1550   -2.6896   17.3417 H       1  UNL1        0.1553
     10 C         -13.9704   -4.6914   19.2595 C.ar    1  UNL1        0.1872
     11 N         -12.7179   -5.4914   19.0559 N.ar    1  UNL1       -0.1361
     12 N         -13.1065   -6.9335   18.9169 N.ar    1  UNL1       -0.1391
     13 C         -14.5991   -7.0249   19.0346 C.ar    1  UNL1        0.1529
     14 S         -15.1330   -5.6391   19.2463 S.2     1  UNL1       -0.0394
     15 C         -15.4145   -8.2813   18.9547 C.ar    1  UNL1        0.1260
     16 C         -14.8923   -9.4676   18.1997 C.ar    1  UNL1        0.1201
     17 N         -15.7078  -10.7240   18.1197 N.ar    1  UNL1       -0.2390
     18 C         -17.0455  -10.7941   18.7947 C.ar    1  UNL1        0.1195
     19 C         -17.5677   -9.6078   19.5497 C.ar    1  UNL1        0.1195
     20 N         -16.7522   -8.3514   19.6297 N.ar    1  UNL1       -0.2385
     21 C         -16.8685    3.1176   18.0353 C.3     1  UNL1        0.0312
     22 C         -16.0050    2.5574   19.1264 C.3     1  UNL1        0.1274
     23 C         -16.0715    3.1378   20.5080 C.ar    1  UNL1        0.0038
     24 C         -15.1966    4.2991   20.8765 C.ar    1  UNL1       -0.0025
     25 C         -15.2630    4.8794   22.2581 C.ar    1  UNL1        0.0036
     26 C         -16.2044    4.2984   23.2711 C.ar    1  UNL1        0.0714
     27 C         -17.0793    3.1371   22.9026 C.ar    1  UNL1        0.0074
     28 C         -17.0128    2.5568   21.5211 C.ar    1  UNL1        0.0692
     29 C         -16.2708    4.8788   24.6528 C.3     1  UNL1        0.4186
     30 F         -16.3372    5.4591   26.0343 F       1  UNL1       -0.1659
     31 F         -17.2850    5.8794   24.1837 F       1  UNL1       -0.1659
     32 F         -15.2566    3.8782   25.1218 F       1  UNL1       -0.1659
     33 C         -17.8877    1.3954   21.1525 C.3     1  UNL1        0.4183
     34 F         -18.7625    0.2340   20.7840 F       1  UNL1       -0.1659
     35 F         -16.7913    0.4471   21.5381 F       1  UNL1       -0.1659
     36 F         -18.9841    2.3436   20.7669 F       1  UNL1       -0.1659
@<TRIPOS>BOND
     1    22    21    1
     2    22    23    1
     3    23    24   ar
     4    24    25   ar
     5    25    26   ar
     6    26    29    1
     7    29    30    1
     8    29    31    1
     9    29    32    1
    10    26    27   ar
    11    27    28   ar
    12    28    33    1
    13    33    34    1
    14    33    35    1
    15    33    36    1
    16    22     1    1
    17     1     2   ar
    18     2     3   ar
    19     3     6    1
    20     6     7   am
    21     7     8    2
    22     7    10    1
    23    10    11   ar
    24    11    12   ar
    25    12    13   ar
    26    13    15    1
    27    15    16   ar
    28    16    17   ar
    29    17    18   ar
    30    18    19   ar
    31    19    20   ar
    32    13    14   ar
    33     3     4   ar
    34     4     5   ar
    35    28    23   ar
    36     5     1   ar
    37    14    10   ar
    38    20    15   ar
    39     6     9    1
