@<TRIPOS>MOLECULE
*****
 18 19 0 0 0
SMALL
GASTEIGER

@<TRIPOS>ATOM
      1 C          -8.2932  -16.2008   23.3832 C.2     1  UNL1        0.0063
      2 C          -8.2055  -17.6009   22.8523 C.2     1  UNL1        0.0436
      3 C          -6.2016  -15.6444   24.8205 C.ar    1  UNL1        0.1386
      4 C          -5.5901  -15.3059   26.1476 C.ar    1  UNL1        0.0369
      5 C          -6.4586  -15.1851   27.3647 C.ar    1  UNL1        0.0031
      6 C          -7.9386  -15.4030   27.2546 C.ar    1  UNL1        0.0002
      7 C          -8.5501  -15.7415   25.9274 C.ar    1  UNL1        0.0030
      8 C          -7.6816  -15.8622   24.7104 C.ar    1  UNL1        0.0341
      9 C          -4.3928  -16.9255   23.4652 C.3     1  UNL1        0.2525
     10 O          -5.3332  -15.7651   23.6034 O.3     1  UNL1       -0.4714
     11 C          -8.8170  -17.9395   21.5251 C.2     1  UNL1        0.2111
     12 O          -8.0114  -18.6713   20.4929 O.2     1  UNL1       -0.2850
     13 C         -10.2342  -17.5464   21.2302 C.ar    1  UNL1        0.0961
     14 C         -11.4648  -18.2485   21.7229 C.ar    1  UNL1        0.0218
     15 C         -12.6608  -17.5182   21.1880 C.ar    1  UNL1        0.0200
     16 C         -12.1694  -16.3646   20.3646 C.ar    1  UNL1        0.0725
     17 N         -10.6698  -16.3821   20.3907 N.ar    1  UNL1       -0.3495
     18 H         -10.0756  -15.7418   19.9366 H       1  UNL1        0.1661
@<TRIPOS>BOND
     1     9    10    1
     2    10     3    1
     3     3     4   ar
     4     4     5   ar
     5     5     6   ar
     6     6     7   ar
     7     7     8   ar
     8     8     1    1
     9     1     2    2
    10     2    11    1
    11    11    12    2
    12    11    13    1
    13    13    14   ar
    14    14    15   ar
    15    15    16   ar
    16    16    17   ar
    17     8     3   ar
    18    17    13   ar
    19    17    18    1
@<TRIPOS>MOLECULE
*****
 18 19 0 0 0
SMALL
GASTEIGER

@<TRIPOS>ATOM
      1 C          -9.4184  -16.5108   24.2155 C.2     1  UNL1        0.0063
      2 C         -10.0641  -17.8340   24.5021 C.2     1  UNL1        0.0436
      3 C          -6.8721  -16.0107   24.3430 C.ar    1  UNL1        0.1386
      4 C          -5.6715  -15.5759   25.1301 C.ar    1  UNL1        0.0369
      5 C          -5.8165  -15.2066   26.5766 C.ar    1  UNL1        0.0031
      6 C          -7.1621  -15.2720   27.2362 C.ar    1  UNL1        0.0002
      7 C          -8.3627  -15.7068   26.4491 C.ar    1  UNL1        0.0030
      8 C          -8.2177  -16.0761   25.0025 C.ar    1  UNL1        0.0341
      9 C          -6.6315  -17.8225   22.4966 C.3     1  UNL1        0.2525
     10 O          -6.7271  -16.3800   22.8964 O.3     1  UNL1       -0.4714
     11 C         -11.2648  -18.2688   23.7151 C.2     1  UNL1        0.2111
     12 O         -12.5724  -18.5052   24.4111 O.2     1  UNL1       -0.2850
     13 C         -11.1579  -18.4672   22.2321 C.ar    1  UNL1        0.0961
     14 C         -10.8242  -19.7536   21.5365 C.ar    1  UNL1        0.0218
     15 C         -10.8260  -19.4955   20.0588 C.ar    1  UNL1        0.0200
     16 C         -11.1608  -18.0496   19.8413 C.ar    1  UNL1        0.0725
     17 N         -11.3659  -17.4141   21.1844 N.ar    1  UNL1       -0.3495
     18 H         -11.5966  -16.4714   21.3494 H       1  UNL1        0.1661
@<TRIPOS>BOND
     1     9    10    1
     2    10     3    1
     3     3     4   ar
     4     4     5   ar
     5     5     6   ar
     6     6     7   ar
     7     7     8   ar
     8     8     1    1
     9     1     2    2
    10     2    11    1
    11    11    12    2
    12    11    13    1
    13    13    14   ar
    14    14    15   ar
    15    15    16   ar
    16    16    17   ar
    17     8     3   ar
    18    17    13   ar
    19    17    18    1
@<TRIPOS>MOLECULE
*****
 18 19 0 0 0
SMALL
GASTEIGER

@<TRIPOS>ATOM
      1 C         -10.0159  -19.1409   20.9176 C.2     1  UNL1        0.0063
      2 C          -8.5479  -18.8941   21.1024 C.2     1  UNL1        0.0436
      3 C         -12.1632  -17.9729   21.7978 C.ar    1  UNL1        0.1386
      4 C         -13.1190  -17.6841   22.9172 C.ar    1  UNL1        0.0369
      5 C         -12.8832  -18.2745   24.2759 C.ar    1  UNL1        0.0031
      6 C         -11.6916  -19.1536   24.5151 C.ar    1  UNL1        0.0002
      7 C         -10.7359  -19.4424   23.3957 C.ar    1  UNL1        0.0030
      8 C         -10.9717  -18.8520   22.0371 C.ar    1  UNL1        0.0341
      9 C         -11.7505  -16.0834   20.0631 C.3     1  UNL1        0.2525
     10 O         -12.3991  -17.3825   20.4392 O.3     1  UNL1       -0.4714
     11 C          -7.5921  -19.1829   19.9831 C.2     1  UNL1        0.2111
     12 O          -8.1110  -19.4173   18.5953 O.2     1  UNL1       -0.2850
     13 C          -6.1173  -19.2374   20.2514 C.ar    1  UNL1        0.0961
     14 C          -5.4479  -20.0191   21.3427 C.ar    1  UNL1        0.0218
     15 C          -3.9699  -19.7846   21.2413 C.ar    1  UNL1        0.0200
     16 C          -3.7257  -18.8579   20.0874 C.ar    1  UNL1        0.0725
     17 N          -5.0528  -18.5197   19.4756 N.ar    1  UNL1       -0.3495
     18 H          -5.1995  -17.9302   18.7009 H       1  UNL1        0.1661
@<TRIPOS>BOND
     1     9    10    1
     2    10     3    1
     3     3     4   ar
     4     4     5   ar
     5     5     6   ar
     6     6     7   ar
     7     7     8   ar
     8     8     1    1
     9     1     2    2
    10     2    11    1
    11    11    12    2
    12    11    13    1
    13    13    14   ar
    14    14    15   ar
    15    15    16   ar
    16    16    17   ar
    17     8     3   ar
    18    17    13   ar
    19    17    18    1
@<TRIPOS>MOLECULE
*****
 18 19 0 0 0
SMALL
GASTEIGER

@<TRIPOS>ATOM
      1 C          -8.8294  -18.5756   21.5577 C.2     1  UNL1        0.0063
      2 C          -7.8543  -19.4309   22.3112 C.2     1  UNL1        0.0436
      3 C         -11.2133  -17.5727   21.3103 C.ar    1  UNL1        0.1386
      4 C         -12.5850  -17.3309   21.8669 C.ar    1  UNL1        0.0369
      5 C         -12.9446  -17.8502   23.2274 C.ar    1  UNL1        0.0031
      6 C         -11.9325  -18.6113   24.0313 C.ar    1  UNL1        0.0002
      7 C         -10.5608  -18.8531   23.4747 C.ar    1  UNL1        0.0030
      8 C         -10.2012  -18.3337   22.1142 C.ar    1  UNL1        0.0341
      9 C         -11.5139  -15.8146   19.4212 C.3     1  UNL1        0.2525
     10 O         -10.8537  -17.0534   19.9498 O.3     1  UNL1       -0.4714
     11 C          -6.4826  -19.6727   21.7546 C.2     1  UNL1        0.2111
     12 O          -6.2771  -20.7091   20.6898 O.2     1  UNL1       -0.2850
     13 C          -5.3162  -18.8782   22.2629 C.ar    1  UNL1        0.0961
     14 C          -3.8829  -19.3204   22.2672 C.ar    1  UNL1        0.0218
     15 C          -3.0592  -18.2175   22.8630 C.ar    1  UNL1        0.0200
     16 C          -3.9834  -17.0935   23.2270 C.ar    1  UNL1        0.0725
     17 N          -5.3783  -17.5018   22.8561 N.ar    1  UNL1       -0.3495
     18 H          -6.1918  -16.9614   22.9802 H       1  UNL1        0.1661
@<TRIPOS>BOND
     1     9    10    1
     2    10     3    1
     3     3     4   ar
     4     4     5   ar
     5     5     6   ar
     6     6     7   ar
     7     7     8   ar
     8     8     1    1
     9     1     2    2
    10     2    11    1
    11    11    12    2
    12    11    13    1
    13    13    14   ar
    14    14    15   ar
    15    15    16   ar
    16    16    17   ar
    17     8     3   ar
    18    17    13   ar
    19    17    18    1
@<TRIPOS>MOLECULE
*****
 18 19 0 0 0
SMALL
GASTEIGER

@<TRIPOS>ATOM
      1 C          -7.7216  -17.6472   22.7773 C.2     1  UNL1        0.0063
      2 C          -7.5984  -16.1522   22.7768 C.2     1  UNL1        0.0436
      3 C         -10.1118  -18.4234   22.1184 C.ar    1  UNL1        0.1386
      4 C         -11.0375  -19.0999   21.1513 C.ar    1  UNL1        0.0369
      5 C         -10.4986  -19.6768   19.8758 C.ar    1  UNL1        0.0031
      6 C          -9.0340  -19.5772   19.5675 C.ar    1  UNL1        0.0002
      7 C          -8.1084  -18.9006   20.5347 C.ar    1  UNL1        0.0030
      8 C          -8.6473  -18.3237   21.8101 C.ar    1  UNL1        0.0341
      9 C         -10.8093  -18.7190   24.6036 C.3     1  UNL1        0.2525
     10 O         -10.6508  -17.8465   23.3939 O.3     1  UNL1       -0.4714
     11 C          -6.6727  -15.4757   23.7440 C.2     1  UNL1        0.2111
     12 O          -5.3822  -14.8847   23.2586 O.2     1  UNL1       -0.2850
     13 C          -7.0375  -15.3900   25.1964 C.ar    1  UNL1        0.0961
     14 C          -8.4055  -15.5974   25.7757 C.ar    1  UNL1        0.0218
     15 C          -8.3117  -15.4175   27.2619 C.ar    1  UNL1        0.0200
     16 C          -6.8858  -15.0989   27.6012 C.ar    1  UNL1        0.0725
     17 N          -6.0983  -15.0819   26.3247 N.ar    1  UNL1       -0.3495
     18 H          -5.1342  -14.9004   26.2419 H       1  UNL1        0.1661
@<TRIPOS>BOND
     1     9    10    1
     2    10     3    1
     3     3     4   ar
     4     4     5   ar
     5     5     6   ar
     6     6     7   ar
     7     7     8   ar
     8     8     1    1
     9     1     2    2
    10     2    11    1
    11    11    12    2
    12    11    13    1
    13    13    14   ar
    14    14    15   ar
    15    15    16   ar
    16    16    17   ar
    17     8     3   ar
    18    17    13   ar
    19    17    18    1
@<TRIPOS>MOLECULE
*****
 18 19 0 0 0
SMALL
GASTEIGER

@<TRIPOS>ATOM
      1 C          -7.9717  -19.2399   21.5212 C.2     1  UNL1        0.0063
      2 C          -7.2203  -19.4675   20.2431 C.2     1  UNL1        0.0436
      3 C          -9.2539  -16.9847   21.6635 C.ar    1  UNL1        0.1386
      4 C         -10.5450  -16.2213   21.6487 C.ar    1  UNL1        0.0369
      5 C         -11.8450  -16.9496   21.4768 C.ar    1  UNL1        0.0031
      6 C         -11.8539  -18.4413   21.3197 C.ar    1  UNL1        0.0002
      7 C         -10.5628  -19.2047   21.3346 C.ar    1  UNL1        0.0030
      8 C          -9.2628  -18.4764   21.5064 C.ar    1  UNL1        0.0341
      9 C          -7.6380  -15.5829   23.1379 C.3     1  UNL1        0.2525
     10 O          -7.9539  -16.2564   21.8354 O.3     1  UNL1       -0.4714
     11 C          -5.9292  -20.2310   20.2579 C.2     1  UNL1        0.2111
     12 O          -5.9420  -21.7233   20.4094 O.2     1  UNL1       -0.2850
     13 C          -4.6253  -19.5022   20.1211 C.ar    1  UNL1        0.0961
     14 C          -3.3383  -19.8623   20.8022 C.ar    1  UNL1        0.0218
     15 C          -2.2971  -18.8680   20.3813 C.ar    1  UNL1        0.0200
     16 C          -2.9406  -17.8933   19.4400 C.ar    1  UNL1        0.0725
     17 N          -4.3795  -18.2853   19.2792 N.ar    1  UNL1       -0.3495
     18 H          -5.0456  -17.8247   18.7194 H       1  UNL1        0.1661
@<TRIPOS>BOND
     1     9    10    1
     2    10     3    1
     3     3     4   ar
     4     4     5   ar
     5     5     6   ar
     6     6     7   ar
     7     7     8   ar
     8     8     1    1
     9     1     2    2
    10     2    11    1
    11    11    12    2
    12    11    13    1
    13    13    14   ar
    14    14    15   ar
    15    15    16   ar
    16    16    17   ar
    17     8     3   ar
    18    17    13   ar
    19    17    18    1
@<TRIPOS>MOLECULE
*****
 18 19 0 0 0
SMALL
GASTEIGER

@<TRIPOS>ATOM
      1 C          -6.8356  -18.7956   21.4345 C.2     1  UNL1        0.0063
      2 C          -5.5190  -19.3691   21.8678 C.2     1  UNL1        0.0436
      3 C          -8.0492  -17.2370   23.1221 C.ar    1  UNL1        0.1386
      4 C          -9.1364  -17.0096   24.1302 C.ar    1  UNL1        0.0369
      5 C         -10.0972  -18.1136   24.4589 C.ar    1  UNL1        0.0031
      6 C          -9.9708  -19.4449   23.7795 C.ar    1  UNL1        0.0002
      7 C          -8.8836  -19.6722   22.7714 C.ar    1  UNL1        0.0030
      8 C          -7.9228  -18.5683   22.4427 C.ar    1  UNL1        0.0341
      9 C          -6.1315  -15.6363   23.8362 C.3     1  UNL1        0.2525
     10 O          -7.0884  -16.1330   22.7934 O.3     1  UNL1       -0.4714
     11 C          -4.4318  -19.5965   20.8598 C.2     1  UNL1        0.2111
     12 O          -4.4415  -20.8343   20.0125 O.2     1  UNL1       -0.2850
     13 C          -3.3349  -18.5861   20.6989 C.ar    1  UNL1        0.0961
     14 C          -2.3412  -18.5347   19.5764 C.ar    1  UNL1        0.0218
     15 C          -1.4313  -17.3665   19.8160 C.ar    1  UNL1        0.0200
     16 C          -1.8626  -16.6959   21.0865 C.ar    1  UNL1        0.0725
     17 N          -3.0392  -17.4496   21.6321 N.ar    1  UNL1       -0.3495
     18 H          -3.5309  -17.2360   22.4578 H       1  UNL1        0.1661
@<TRIPOS>BOND
     1     9    10    1
     2    10     3    1
     3     3     4   ar
     4     4     5   ar
     5     5     6   ar
     6     6     7   ar
     7     7     8   ar
     8     8     1    1
     9     1     2    2
    10     2    11    1
    11    11    12    2
    12    11    13    1
    13    13    14   ar
    14    14    15   ar
    15    15    16   ar
    16    16    17   ar
    17     8     3   ar
    18    17    13   ar
    19    17    18    1
@<TRIPOS>MOLECULE
*****
 18 19 0 0 0
SMALL
GASTEIGER

@<TRIPOS>ATOM
      1 C          -6.8128  -17.7575   22.7145 C.2     1  UNL1        0.0063
      2 C          -8.1587  -18.3256   23.0549 C.2     1  UNL1        0.0436
      3 C          -6.1231  -19.0622   20.5762 C.ar    1  UNL1        0.1386
      4 C          -5.1249  -19.8951   19.8281 C.ar    1  UNL1        0.0369
      5 C          -3.8182  -20.2563   20.4699 C.ar    1  UNL1        0.0031
      6 C          -3.5097  -19.7845   21.8600 C.ar    1  UNL1        0.0002
      7 C          -4.5079  -18.9516   22.6081 C.ar    1  UNL1        0.0030
      8 C          -5.8146  -18.5904   21.9662 C.ar    1  UNL1        0.0341
      9 C          -8.3081  -19.7755   19.3651 C.3     1  UNL1        0.2525
     10 O          -7.4298  -18.7010   19.9343 O.3     1  UNL1       -0.4714
     11 C          -9.1569  -17.4927   23.8031 C.2     1  UNL1        0.2111
     12 O          -8.7842  -16.8779   25.1196 O.2     1  UNL1       -0.2850
     13 C         -10.5279  -17.2746   23.2348 C.ar    1  UNL1        0.0961
     14 C         -11.5865  -18.3226   23.0591 C.ar    1  UNL1        0.0218
     15 C         -12.7938  -17.6658   22.4581 C.ar    1  UNL1        0.0200
     16 C         -12.4813  -16.2119   22.2624 C.ar    1  UNL1        0.0725
     17 N         -11.0809  -15.9701   22.7424 N.ar    1  UNL1       -0.3495
     18 H         -10.6078  -15.1067   22.7355 H       1  UNL1        0.1661
@<TRIPOS>BOND
     1     9    10    1
     2    10     3    1
     3     3     4   ar
     4     4     5   ar
     5     5     6   ar
     6     6     7   ar
     7     7     8   ar
     8     8     1    1
     9     1     2    2
    10     2    11    1
    11    11    12    2
    12    11    13    1
    13    13    14   ar
    14    14    15   ar
    15    15    16   ar
    16    16    17   ar
    17     8     3   ar
    18    17    13   ar
    19    17    18    1
@<TRIPOS>MOLECULE
*****
 18 19 0 0 0
SMALL
GASTEIGER

@<TRIPOS>ATOM
      1 C         -13.4646   -6.9285   19.1004 C.2     1  UNL1        0.0063
      2 C         -13.6741   -8.1268   18.2229 C.2     1  UNL1        0.0436
      3 C         -12.3270   -4.5927   19.1033 C.ar    1  UNL1        0.1386
      4 C         -11.1014   -3.7446   18.9345 C.ar    1  UNL1        0.0369
      5 C          -9.7879   -4.3839   18.5939 C.ar    1  UNL1        0.0031
      6 C          -9.7000   -5.8714   18.4222 C.ar    1  UNL1        0.0002
      7 C         -10.9255   -6.7196   18.5910 C.ar    1  UNL1        0.0030
      8 C         -12.2390   -6.0802   18.9316 C.ar    1  UNL1        0.0341
      9 C         -13.8155   -3.2540   20.7592 C.3     1  UNL1        0.2525
     10 O         -13.6405   -3.9534   19.4439 O.3     1  UNL1       -0.4714
     11 C         -14.8996   -8.9751   18.3917 C.2     1  UNL1        0.2111
     12 O         -14.8452  -10.4417   18.0813 O.2     1  UNL1       -0.2850
     13 C         -16.1795   -8.3568   18.8708 C.ar    1  UNL1        0.0961
     14 C         -16.9374   -8.7439   20.1059 C.ar    1  UNL1        0.0218
     15 C         -18.1526   -7.8692   20.1974 C.ar    1  UNL1        0.0200
     16 C         -18.1457   -6.9415   19.0187 C.ar    1  UNL1        0.0725
     17 N         -16.9262   -7.2429   18.1989 N.ar    1  UNL1       -0.3495
     18 H         -16.6623   -6.7892   17.3659 H       1  UNL1        0.1661
@<TRIPOS>BOND
     1     9    10    1
     2    10     3    1
     3     3     4   ar
     4     4     5   ar
     5     5     6   ar
     6     6     7   ar
     7     7     8   ar
     8     8     1    1
     9     1     2    2
    10     2    11    1
    11    11    12    2
    12    11    13    1
    13    13    14   ar
    14    14    15   ar
    15    15    16   ar
    16    16    17   ar
    17     8     3   ar
    18    17    13   ar
    19    17    18    1
