@<TRIPOS>MOLECULE
*****
 43 49 0 0 0
SMALL
GASTEIGER

@<TRIPOS>ATOM
      1 C           0.6425    1.7205   19.5174 C.ar    1  UNL1        0.0508
      2 C           0.2055    0.4147   20.1123 C.ar    1  UNL1        0.0147
      3 C           1.1791   -0.7207   20.2266 C.ar    1  UNL1        0.0019
      4 C           2.5898   -0.5502   19.7460 C.ar    1  UNL1        0.0090
      5 C           3.0268    0.7556   19.1511 C.ar    1  UNL1        0.0307
      6 S           4.3422    1.2154   18.5959 S.2     1  UNL1       -0.0869
      7 C           4.1816    2.6349   18.1384 C.ar    1  UNL1        0.0295
      8 C           5.1407    3.6012   17.5089 C.ar    1  UNL1        0.0065
      9 C           4.6851    4.9850   17.1520 C.ar    1  UNL1        0.0005
     10 C           3.2704    5.4025   17.4245 C.ar    1  UNL1        0.0000
     11 C           2.3113    4.4362   18.0539 C.ar    1  UNL1        0.0006
     12 C           2.7668    3.0524   18.4109 C.ar    1  UNL1        0.0077
     13 C           2.0532    1.8909   19.0368 C.ar    1  UNL1        0.0200
     14 C           3.5634   -1.6855   19.8604 C.ar    1  UNL1        0.0352
     15 C           4.0102   -2.4173   18.6294 C.ar    1  UNL1        0.0031
     16 C           4.9838   -3.5526   18.7437 C.ar    1  UNL1        0.0003
     17 C           5.5106   -3.9563   20.0889 C.ar    1  UNL1        0.0062
     18 C           5.0638   -3.2246   21.3197 C.ar    1  UNL1        0.0736
     19 C           5.5907   -3.6283   22.6649 C.ar    1  UNL1        0.2030
     20 O           6.5643   -4.7636   22.7792 O.2     1  UNL1       -0.2863
     21 C           5.1439   -2.8967   23.8958 C.ar    1  UNL1        0.0955
     22 C           4.1702   -1.7613   23.7815 C.ar    1  UNL1        0.2024
     23 O           3.6434   -1.3576   22.4363 O.2     1  UNL1       -0.4398
     24 C           4.0902   -2.0892   21.2055 C.ar    1  UNL1        0.1498
     25 N           3.7235   -1.0296   25.0124 N.pl3   1  UNL1       -0.2742
     26 C           2.8719    0.1988   24.8871 C.3     1  UNL1        0.1257
     27 C           2.4251    0.9304   26.1180 C.3     1  UNL1        0.1637
     28 O           2.8299    0.4337   27.4741 O.3     1  UNL1       -0.3501
     29 C           3.6815   -0.7948   27.5995 C.3     1  UNL1        0.1637
     30 C           4.1283   -1.5264   26.3686 C.3     1  UNL1        0.1257
     31 C          -0.6691    3.6784   20.6110 C.2     1  UNL1        0.2425
     32 O          -0.0336    3.3658   21.9332 O.2     1  UNL1       -0.2733
     33 N          -0.3312    2.8558   19.4031 N.am    1  UNL1       -0.2828
     34 H          -0.7484    3.0611   18.5353 H       1  UNL1        0.1549
     35 C          -1.6428    4.8137   20.4967 C.3     1  UNL1        0.1588
     36 N          -5.7719    4.4210   22.2422 N.3     1  UNL1       -0.2703
     37 C          -5.0385    3.2010   21.7690 C.3     1  UNL1        0.0897
     38 C          -3.6621    3.3319   21.1872 C.3     1  UNL1        0.0900
     39 N          -3.0191    4.6828   21.0785 N.3     1  UNL1       -0.2626
     40 C          -3.7525    5.9028   21.5517 C.3     1  UNL1        0.0900
     41 C          -5.1289    5.7719   22.1335 C.3     1  UNL1        0.0897
     42 C          -7.5192    5.0642   24.0541 C.3     1  UNL1        0.0188
     43 C          -7.1482    4.2901   22.8240 C.3     1  UNL1        0.0722
@<TRIPOS>BOND
     1    42    43    1
     2    43    36    1
     3    36    37    1
     4    37    38    1
     5    38    39    1
     6    39    35    1
     7    35    31    1
     8    31    32    2
     9    31    33   am
    10    33     1    1
    11     1     2   ar
    12     2     3   ar
    13     3     4   ar
    14     4    14    1
    15    14    15   ar
    16    15    16   ar
    17    16    17   ar
    18    17    18   ar
    19    18    19   ar
    20    19    20    2
    21    19    21   ar
    22    21    22   ar
    23    22    25    1
    24    25    26    1
    25    26    27    1
    26    27    28    1
    27    28    29    1
    28    29    30    1
    29    22    23   ar
    30    23    24   ar
    31     4     5   ar
    32     5     6   ar
    33     6     7   ar
    34     7     8   ar
    35     8     9   ar
    36     9    10   ar
    37    10    11   ar
    38    11    12   ar
    39    12    13   ar
    40    39    40    1
    41    40    41    1
    42    41    36    1
    43    13     1   ar
    44    24    14   ar
    45    13     5   ar
    46    24    18   ar
    47    12     7   ar
    48    30    25    1
    49    33    34    1
@<TRIPOS>MOLECULE
*****
 43 49 0 0 0
SMALL
GASTEIGER

@<TRIPOS>ATOM
      1 C           0.7575    1.6236   19.6722 C.ar    1  UNL1        0.0508
      2 C           0.3295    0.3176   20.2730 C.ar    1  UNL1        0.0147
      3 C           1.2938   -0.8295   20.3391 C.ar    1  UNL1        0.0019
      4 C           2.6861   -0.6705   19.8043 C.ar    1  UNL1        0.0090
      5 C           3.1142    0.6356   19.2035 C.ar    1  UNL1        0.0307
      6 S           4.4117    1.0856   18.6003 S.2     1  UNL1       -0.0869
      7 C           4.2494    2.5108   18.1615 C.ar    1  UNL1        0.0295
      8 C           5.1938    3.4718   17.5025 C.ar    1  UNL1        0.0065
      9 C           4.7404    4.8637   17.1755 C.ar    1  UNL1        0.0005
     10 C           3.3424    5.2945   17.5075 C.ar    1  UNL1        0.0000
     11 C           2.3980    4.3335   18.1664 C.ar    1  UNL1        0.0006
     12 C           2.8515    2.9416   18.4934 C.ar    1  UNL1        0.0077
     13 C           2.1499    1.7826   19.1374 C.ar    1  UNL1        0.0200
     14 C           3.6504   -1.8175   19.8704 C.ar    1  UNL1        0.0352
     15 C           4.0256   -2.5550   18.6191 C.ar    1  UNL1        0.0031
     16 C           4.9898   -3.7021   18.6851 C.ar    1  UNL1        0.0003
     17 C           5.5790   -4.1117   20.0023 C.ar    1  UNL1        0.0062
     18 C           5.2039   -3.3743   21.2535 C.ar    1  UNL1        0.0736
     19 C           5.7931   -3.7839   22.5708 C.ar    1  UNL1        0.2030
     20 O           6.7574   -4.9310   22.6368 O.2     1  UNL1       -0.2863
     21 C           5.4180   -3.0465   23.8219 C.ar    1  UNL1        0.0955
     22 C           4.4536   -1.8994   23.7559 C.ar    1  UNL1        0.2024
     23 O           3.8644   -1.4897   22.4387 O.2     1  UNL1       -0.4398
     24 C           4.2396   -2.2271   21.1875 C.ar    1  UNL1        0.1498
     25 N           4.0785   -1.1619   25.0071 N.pl3   1  UNL1       -0.2742
     26 C           3.0861   -0.0388   24.9468 C.3     1  UNL1        0.1257
     27 C           2.7110    0.6986   26.1980 C.3     1  UNL1        0.1637
     28 O           3.3283    0.3129   27.5095 O.3     1  UNL1       -0.3501
     29 C           4.3207   -0.8102   27.5699 C.3     1  UNL1        0.1637
     30 C           4.6958   -1.5477   26.3187 C.3     1  UNL1        0.1257
     31 C          -0.2378    3.7888   20.7074 C.2     1  UNL1        0.2425
     32 O           0.6954    3.6599   21.8745 O.2     1  UNL1       -0.2733
     33 N          -0.2069    2.7707   19.6062 N.am    1  UNL1       -0.2828
     34 H          -0.8194    2.8554   18.8401 H       1  UNL1        0.1549
     35 C          -1.2022    4.9358   20.6413 C.3     1  UNL1        0.1588
     36 N          -5.3840    4.2744   19.1163 N.3     1  UNL1       -0.2703
     37 C          -4.4388    5.1560   18.3551 C.3     1  UNL1        0.0897
     38 C          -3.0449    5.3764   18.8634 C.3     1  UNL1        0.0900
     39 N          -2.5961    4.7153   20.1330 N.3     1  UNL1       -0.2626
     40 C          -3.5413    3.8338   20.8942 C.3     1  UNL1        0.0900
     41 C          -4.9353    3.6133   20.3859 C.3     1  UNL1        0.0897
     42 C          -7.8246    5.1098   18.8072 C.3     1  UNL1        0.0188
     43 C          -6.7779    4.0539   18.6080 C.3     1  UNL1        0.0722
@<TRIPOS>BOND
     1    42    43    1
     2    43    36    1
     3    36    37    1
     4    37    38    1
     5    38    39    1
     6    39    35    1
     7    35    31    1
     8    31    32    2
     9    31    33   am
    10    33     1    1
    11     1     2   ar
    12     2     3   ar
    13     3     4   ar
    14     4    14    1
    15    14    15   ar
    16    15    16   ar
    17    16    17   ar
    18    17    18   ar
    19    18    19   ar
    20    19    20    2
    21    19    21   ar
    22    21    22   ar
    23    22    25    1
    24    25    26    1
    25    26    27    1
    26    27    28    1
    27    28    29    1
    28    29    30    1
    29    22    23   ar
    30    23    24   ar
    31     4     5   ar
    32     5     6   ar
    33     6     7   ar
    34     7     8   ar
    35     8     9   ar
    36     9    10   ar
    37    10    11   ar
    38    11    12   ar
    39    12    13   ar
    40    39    40    1
    41    40    41    1
    42    41    36    1
    43    13     1   ar
    44    24    14   ar
    45    13     5   ar
    46    24    18   ar
    47    12     7   ar
    48    30    25    1
    49    33    34    1
@<TRIPOS>MOLECULE
*****
 43 49 0 0 0
SMALL
GASTEIGER

@<TRIPOS>ATOM
      1 C           0.5706    0.6787   20.9043 C.ar    1  UNL1        0.0508
      2 C           1.0425   -0.0629   19.6888 C.ar    1  UNL1        0.0147
      3 C           2.2741   -0.9160   19.7618 C.ar    1  UNL1        0.0019
      4 C           3.0338   -1.0275   21.0503 C.ar    1  UNL1        0.0090
      5 C           2.5619   -0.2859   22.2658 C.ar    1  UNL1        0.0307
      6 S           3.1005   -0.2035   23.6634 S.2     1  UNL1       -0.0869
      7 C           2.2018    0.7004   24.4540 C.ar    1  UNL1        0.0295
      8 C           2.2384    1.1514   25.8842 C.ar    1  UNL1        0.0065
      9 C           1.1808    2.0786   26.4054 C.ar    1  UNL1        0.0005
     10 C           0.0867    2.5550   25.4965 C.ar    1  UNL1        0.0000
     11 C           0.0502    2.1040   24.0664 C.ar    1  UNL1        0.0006
     12 C           1.1077    1.1768   23.5452 C.ar    1  UNL1        0.0077
     13 C           1.3303    0.5672   22.1928 C.ar    1  UNL1        0.0200
     14 C           4.2654   -1.8805   21.1234 C.ar    1  UNL1        0.0352
     15 C           4.2741   -3.1138   21.9774 C.ar    1  UNL1        0.0031
     16 C           5.5056   -3.9669   22.0505 C.ar    1  UNL1        0.0003
     17 C           6.7286   -3.5868   21.2695 C.ar    1  UNL1        0.0062
     18 C           6.7200   -2.3537   20.4156 C.ar    1  UNL1        0.0736
     19 C           7.9430   -1.9736   19.6346 C.ar    1  UNL1        0.2030
     20 O           9.1747   -2.8267   19.7077 O.2     1  UNL1       -0.2863
     21 C           7.9344   -0.7405   18.7807 C.ar    1  UNL1        0.0955
     22 C           6.7028    0.1127   18.7076 C.ar    1  UNL1        0.2024
     23 O           5.4797   -0.2674   19.4885 O.2     1  UNL1       -0.4398
     24 C           5.4884   -1.5005   20.3425 C.ar    1  UNL1        0.1498
     25 N           6.6942    1.3458   17.8536 N.pl3   1  UNL1       -0.2742
     26 C           5.5913    2.3518   18.0001 C.3     1  UNL1        0.1257
     27 C           5.5827    3.5850   17.1461 C.3     1  UNL1        0.1637
     28 O           6.6769    3.8121   16.1457 O.3     1  UNL1       -0.3501
     29 C           7.7798    2.8060   15.9992 C.3     1  UNL1        0.1637
     30 C           7.7884    1.5729   16.8531 C.3     1  UNL1        0.1257
     31 C          -0.6190    2.8500   20.1167 C.2     1  UNL1        0.2425
     32 O           0.6545    3.3152   19.4753 O.2     1  UNL1       -0.2733
     33 N          -0.6611    1.5318   20.8312 N.am    1  UNL1       -0.2828
     34 H          -1.4971    1.2265   21.2521 H       1  UNL1        0.1549
     35 C          -1.8507    3.7031   20.0436 C.3     1  UNL1        0.1588
     36 N          -4.6138    3.9732   23.5852 N.3     1  UNL1       -0.2703
     37 C          -3.2293    4.5444   23.6688 C.3     1  UNL1        0.0897
     38 C          -2.3083    4.4544   22.4883 C.3     1  UNL1        0.0900
     39 N          -2.7717    3.7931   21.2241 N.3     1  UNL1       -0.2626
     40 C          -4.1562    3.2220   21.1405 C.3     1  UNL1        0.0900
     41 C          -5.0772    3.3120   22.3210 C.3     1  UNL1        0.0897
     42 C          -6.7263    4.9733   24.7196 C.3     1  UNL1        0.0188
     43 C          -5.5348    4.0633   24.7657 C.3     1  UNL1        0.0722
@<TRIPOS>BOND
     1    42    43    1
     2    43    36    1
     3    36    37    1
     4    37    38    1
     5    38    39    1
     6    39    35    1
     7    35    31    1
     8    31    32    2
     9    31    33   am
    10    33     1    1
    11     1     2   ar
    12     2     3   ar
    13     3     4   ar
    14     4    14    1
    15    14    15   ar
    16    15    16   ar
    17    16    17   ar
    18    17    18   ar
    19    18    19   ar
    20    19    20    2
    21    19    21   ar
    22    21    22   ar
    23    22    25    1
    24    25    26    1
    25    26    27    1
    26    27    28    1
    27    28    29    1
    28    29    30    1
    29    22    23   ar
    30    23    24   ar
    31     4     5   ar
    32     5     6   ar
    33     6     7   ar
    34     7     8   ar
    35     8     9   ar
    36     9    10   ar
    37    10    11   ar
    38    11    12   ar
    39    12    13   ar
    40    39    40    1
    41    40    41    1
    42    41    36    1
    43    13     1   ar
    44    24    14   ar
    45    13     5   ar
    46    24    18   ar
    47    12     7   ar
    48    30    25    1
    49    33    34    1
@<TRIPOS>MOLECULE
*****
 43 49 0 0 0
SMALL
GASTEIGER

@<TRIPOS>ATOM
      1 C           7.4141   -2.4413   25.2665 C.ar    1  UNL1        0.0508
      2 C           7.1489   -1.1095   25.9036 C.ar    1  UNL1        0.0147
      3 C           6.9137   -1.0189   27.3823 C.ar    1  UNL1        0.0019
      4 C           6.9436   -2.2602   28.2239 C.ar    1  UNL1        0.0090
      5 C           7.2087   -3.5920   27.5868 C.ar    1  UNL1        0.0307
      6 S           7.2980   -4.9770   28.1560 S.2     1  UNL1       -0.0869
      7 C           7.5885   -5.9235   27.0291 C.ar    1  UNL1        0.0295
      8 C           7.7825   -7.4104   26.9920 C.ar    1  UNL1        0.0065
      9 C           8.0667   -8.0973   25.6892 C.ar    1  UNL1        0.0005
     10 C           8.1568   -7.2973   24.4235 C.ar    1  UNL1        0.0000
     11 C           7.9628   -5.8104   24.4607 C.ar    1  UNL1        0.0006
     12 C           7.6787   -5.1235   25.7634 C.ar    1  UNL1        0.0077
     13 C           7.4440   -3.6826   26.1081 C.ar    1  UNL1        0.0200
     14 C           6.7083   -2.1696   29.7025 C.ar    1  UNL1        0.0352
     15 C           7.7500   -2.6687   30.6597 C.ar    1  UNL1        0.0031
     16 C           7.5148   -2.5781   32.1383 C.ar    1  UNL1        0.0003
     17 C           6.2380   -1.9885   32.6599 C.ar    1  UNL1        0.0062
     18 C           5.1964   -1.4894   31.7028 C.ar    1  UNL1        0.0736
     19 C           3.9196   -0.8998   32.2244 C.ar    1  UNL1        0.2030
     20 O           3.6843   -0.8092   33.7031 O.2     1  UNL1       -0.2863
     21 C           2.8780   -0.4007   31.2674 C.ar    1  UNL1        0.0955
     22 C           3.1132   -0.4913   29.7886 C.ar    1  UNL1        0.2024
     23 O           4.3900   -1.0809   29.2670 O.2     1  UNL1       -0.4398
     24 C           5.4316   -1.5800   30.2241 C.ar    1  UNL1        0.1498
     25 N           2.0716    0.0078   28.8316 N.pl3   1  UNL1       -0.2742
     26 C           0.6161   -0.1661   29.1495 C.3     1  UNL1        0.1257
     27 C          -0.4255    0.3330   28.1924 C.3     1  UNL1        0.1637
     28 O          -0.0116    1.0060   26.9174 O.3     1  UNL1       -0.3501
     29 C           1.4439    1.1799   26.5995 C.3     1  UNL1        0.1637
     30 C           2.4855    0.6808   27.5565 C.3     1  UNL1        0.1257
     31 C           6.5549   -3.0143   22.8825 C.2     1  UNL1        0.2425
     32 O           5.2254   -3.4062   23.4557 O.2     1  UNL1       -0.2733
     33 N           7.6493   -2.5318   23.7878 N.am    1  UNL1       -0.2828
     34 H           8.5219   -2.2746   23.4115 H       1  UNL1        0.1549
     35 C           6.7902   -3.1048   21.4038 C.3     1  UNL1        0.1588
     36 N           4.0809   -0.9137   18.5562 N.3     1  UNL1       -0.2703
     37 C           4.2141   -2.4051   18.4671 C.3     1  UNL1        0.0897
     38 C           5.1172   -3.1355   19.4162 C.3     1  UNL1        0.0900
     39 N           5.8871   -2.3744   20.4546 N.3     1  UNL1       -0.2626
     40 C           5.7539   -0.8830   20.5437 C.3     1  UNL1        0.0900
     41 C           4.8508   -0.1526   19.5946 C.3     1  UNL1        0.0897
     42 C           2.0204    0.6117   18.1347 C.3     1  UNL1        0.0188
     43 C           3.1778   -0.1833   17.6070 C.3     1  UNL1        0.0722
@<TRIPOS>BOND
     1    42    43    1
     2    43    36    1
     3    36    37    1
     4    37    38    1
     5    38    39    1
     6    39    35    1
     7    35    31    1
     8    31    32    2
     9    31    33   am
    10    33     1    1
    11     1     2   ar
    12     2     3   ar
    13     3     4   ar
    14     4    14    1
    15    14    15   ar
    16    15    16   ar
    17    16    17   ar
    18    17    18   ar
    19    18    19   ar
    20    19    20    2
    21    19    21   ar
    22    21    22   ar
    23    22    25    1
    24    25    26    1
    25    26    27    1
    26    27    28    1
    27    28    29    1
    28    29    30    1
    29    22    23   ar
    30    23    24   ar
    31     4     5   ar
    32     5     6   ar
    33     6     7   ar
    34     7     8   ar
    35     8     9   ar
    36     9    10   ar
    37    10    11   ar
    38    11    12   ar
    39    12    13   ar
    40    39    40    1
    41    40    41    1
    42    41    36    1
    43    13     1   ar
    44    24    14   ar
    45    13     5   ar
    46    24    18   ar
    47    12     7   ar
    48    30    25    1
    49    33    34    1
@<TRIPOS>MOLECULE
*****
 43 49 0 0 0
SMALL
GASTEIGER

@<TRIPOS>ATOM
      1 C           4.6029    1.0743   26.6762 C.ar    1  UNL1        0.0508
      2 C           6.0374    0.7132   26.9250 C.ar    1  UNL1        0.0147
      3 C           6.3956   -0.1941   28.0645 C.ar    1  UNL1        0.0019
      4 C           5.3194   -0.7405   28.9551 C.ar    1  UNL1        0.0090
      5 C           3.8849   -0.3794   28.7062 C.ar    1  UNL1        0.0307
      6 S           2.6169   -0.7616   29.4107 S.2     1  UNL1       -0.0869
      7 C           1.4751   -0.0904   28.7067 C.ar    1  UNL1        0.0295
      8 C          -0.0040   -0.1019   28.9561 C.ar    1  UNL1        0.0065
      9 C          -0.9208    0.6835   28.0659 C.ar    1  UNL1        0.0005
     10 C          -0.3586    1.4805   26.9263 C.ar    1  UNL1        0.0000
     11 C           1.1205    1.4920   26.6768 C.ar    1  UNL1        0.0006
     12 C           2.0373    0.7066   27.5671 C.ar    1  UNL1        0.0077
     13 C           3.5266    0.5279   27.5668 C.ar    1  UNL1        0.0200
     14 C           5.6776   -1.6478   30.0945 C.ar    1  UNL1        0.0352
     15 C           5.4792   -1.1898   31.5091 C.ar    1  UNL1        0.0031
     16 C           5.8374   -2.0970   32.6485 C.ar    1  UNL1        0.0003
     17 C           6.3941   -3.4625   32.3735 C.ar    1  UNL1        0.0062
     18 C           6.5925   -3.9206   30.9590 C.ar    1  UNL1        0.0736
     19 C           7.1492   -5.2861   30.6840 C.ar    1  UNL1        0.2030
     20 O           7.5074   -6.1935   31.8234 O.2     1  UNL1       -0.2863
     21 C           7.3476   -5.7442   29.2695 C.ar    1  UNL1        0.0955
     22 C           6.9894   -4.8368   28.1300 C.ar    1  UNL1        0.2024
     23 O           6.4327   -3.4713   28.4050 O.2     1  UNL1       -0.4398
     24 C           6.2343   -3.0132   29.8195 C.ar    1  UNL1        0.1498
     25 N           7.1878   -5.2949   26.7155 N.pl3   1  UNL1       -0.2742
     26 C           6.9351   -4.3497   25.5786 C.3     1  UNL1        0.1257
     27 C           7.1336   -4.8078   24.1641 C.3     1  UNL1        0.1637
     28 O           7.5846   -6.2111   23.8866 O.3     1  UNL1       -0.3501
     29 C           7.8373   -7.1564   25.0235 C.3     1  UNL1        0.1637
     30 C           7.6389   -6.6983   26.4379 C.3     1  UNL1        0.1257
     31 C           3.7627    1.4024   24.2397 C.2     1  UNL1        0.2425
     32 O           3.6389   -0.0840   24.0821 O.2     1  UNL1       -0.2733
     33 N           4.2446    1.9817   25.5367 N.am    1  UNL1       -0.2828
     34 H           4.3259    2.9574   25.6401 H       1  UNL1        0.1549
     35 C           3.4045    2.3099   23.1003 C.3     1  UNL1        0.1588
     36 N           3.2287    0.6917   18.9049 N.3     1  UNL1       -0.2703
     37 C           4.5487    1.0720   19.5074 C.3     1  UNL1        0.0897
     38 C           4.6073    1.6114   20.9058 C.3     1  UNL1        0.0900
     39 N           3.3459    1.7705   21.7018 N.3     1  UNL1       -0.2626
     40 C           2.0259    1.3902   21.0994 C.3     1  UNL1        0.0900
     41 C           1.9673    0.8508   19.7009 C.3     1  UNL1        0.0897
     42 C           3.9696   -1.0618   17.1368 C.3     1  UNL1        0.0188
     43 C           3.1701    0.1523   17.5065 C.3     1  UNL1        0.0722
@<TRIPOS>BOND
     1    42    43    1
     2    43    36    1
     3    36    37    1
     4    37    38    1
     5    38    39    1
     6    39    35    1
     7    35    31    1
     8    31    32    2
     9    31    33   am
    10    33     1    1
    11     1     2   ar
    12     2     3   ar
    13     3     4   ar
    14     4    14    1
    15    14    15   ar
    16    15    16   ar
    17    16    17   ar
    18    17    18   ar
    19    18    19   ar
    20    19    20    2
    21    19    21   ar
    22    21    22   ar
    23    22    25    1
    24    25    26    1
    25    26    27    1
    26    27    28    1
    27    28    29    1
    28    29    30    1
    29    22    23   ar
    30    23    24   ar
    31     4     5   ar
    32     5     6   ar
    33     6     7   ar
    34     7     8   ar
    35     8     9   ar
    36     9    10   ar
    37    10    11   ar
    38    11    12   ar
    39    12    13   ar
    40    39    40    1
    41    40    41    1
    42    41    36    1
    43    13     1   ar
    44    24    14   ar
    45    13     5   ar
    46    24    18   ar
    47    12     7   ar
    48    30    25    1
    49    33    34    1
@<TRIPOS>MOLECULE
*****
 43 49 0 0 0
SMALL
GASTEIGER

@<TRIPOS>ATOM
      1 C           4.3311    1.0256   26.3955 C.ar    1  UNL1        0.0508
      2 C           5.7697    0.6344   26.5610 C.ar    1  UNL1        0.0147
      3 C           6.1798   -0.2516   27.6999 C.ar    1  UNL1        0.0019
      4 C           5.1512   -0.7463   28.6732 C.ar    1  UNL1        0.0090
      5 C           3.7126   -0.3551   28.5076 C.ar    1  UNL1        0.0307
      6 S           2.4846   -0.6857   29.3031 S.2     1  UNL1       -0.0869
      7 C           1.3156   -0.0041   28.6559 C.ar    1  UNL1        0.0295
      8 C          -0.1438    0.0291   29.0006 C.ar    1  UNL1        0.0065
      9 C          -1.0977    0.8141   28.1499 C.ar    1  UNL1        0.0005
     10 C          -0.5922    1.5660   26.9545 C.ar    1  UNL1        0.0000
     11 C           0.8673    1.5329   26.6097 C.ar    1  UNL1        0.0006
     12 C           1.8212    0.7478   27.4604 C.ar    1  UNL1        0.0077
     13 C           3.3026    0.5309   27.3688 C.ar    1  UNL1        0.0200
     14 C           5.5613   -1.6323   29.8120 C.ar    1  UNL1        0.0352
     15 C           5.3543   -1.1792   31.2269 C.ar    1  UNL1        0.0031
     16 C           5.7643   -2.0650   32.3657 C.ar    1  UNL1        0.0003
     17 C           6.3814   -3.4041   32.0897 C.ar    1  UNL1        0.0062
     18 C           6.5885   -3.8572   30.6749 C.ar    1  UNL1        0.0736
     19 C           7.2056   -5.1962   30.3989 C.ar    1  UNL1        0.2030
     20 O           7.6157   -6.0822   31.5377 O.2     1  UNL1       -0.2863
     21 C           7.4127   -5.6493   28.9840 C.ar    1  UNL1        0.0955
     22 C           7.0026   -4.7633   27.8451 C.ar    1  UNL1        0.2024
     23 O           6.3855   -3.4243   28.1211 O.2     1  UNL1       -0.4398
     24 C           6.1784   -2.9712   29.5360 C.ar    1  UNL1        0.1498
     25 N           7.2096   -5.2164   26.4303 N.pl3   1  UNL1       -0.2742
     26 C           7.7383   -6.5925   26.1532 C.3     1  UNL1        0.1257
     27 C           7.9454   -7.0456   24.7383 C.3     1  UNL1        0.1637
     28 O           7.6238   -6.1226   23.6006 O.3     1  UNL1       -0.3501
     29 C           7.0950   -4.7465   23.8776 C.3     1  UNL1        0.1637
     30 C           6.8880   -4.2934   25.2924 C.3     1  UNL1        0.1257
     31 C           3.4294    1.3065   23.9751 C.2     1  UNL1        0.2425
     32 O           3.3478   -0.1844   23.8324 O.2     1  UNL1       -0.2733
     33 N           3.9211    1.9116   25.2566 N.am    1  UNL1       -0.2828
     34 H           3.9746    2.8902   25.3502 H       1  UNL1        0.1549
     35 C           3.0194    2.1925   22.8363 C.3     1  UNL1        0.1588
     36 N          -1.3083    3.2992   22.2919 N.3     1  UNL1       -0.2703
     37 C          -0.5831    3.7005   23.5422 C.3     1  UNL1        0.0897
     38 C           0.8595    3.3316   23.7236 C.3     1  UNL1        0.0900
     39 N           1.5769    2.5614   22.6548 N.3     1  UNL1       -0.2626
     40 C           0.8517    2.1601   21.4046 C.3     1  UNL1        0.0900
     41 C          -0.5909    2.5290   21.2232 C.3     1  UNL1        0.0897
     42 C          -3.6605    3.7457   23.3006 C.3     1  UNL1        0.0188
     43 C          -2.7508    3.6681   22.1105 C.3     1  UNL1        0.0722
@<TRIPOS>BOND
     1    42    43    1
     2    43    36    1
     3    36    37    1
     4    37    38    1
     5    38    39    1
     6    39    35    1
     7    35    31    1
     8    31    32    2
     9    31    33   am
    10    33     1    1
    11     1     2   ar
    12     2     3   ar
    13     3     4   ar
    14     4    14    1
    15    14    15   ar
    16    15    16   ar
    17    16    17   ar
    18    17    18   ar
    19    18    19   ar
    20    19    20    2
    21    19    21   ar
    22    21    22   ar
    23    22    25    1
    24    25    26    1
    25    26    27    1
    26    27    28    1
    27    28    29    1
    28    29    30    1
    29    22    23   ar
    30    23    24   ar
    31     4     5   ar
    32     5     6   ar
    33     6     7   ar
    34     7     8   ar
    35     8     9   ar
    36     9    10   ar
    37    10    11   ar
    38    11    12   ar
    39    12    13   ar
    40    39    40    1
    41    40    41    1
    42    41    36    1
    43    13     1   ar
    44    24    14   ar
    45    13     5   ar
    46    24    18   ar
    47    12     7   ar
    48    30    25    1
    49    33    34    1
@<TRIPOS>MOLECULE
*****
 43 49 0 0 0
SMALL
GASTEIGER

@<TRIPOS>ATOM
      1 C           7.1239   -3.4642   25.2873 C.ar    1  UNL1        0.0508
      2 C           7.6701   -4.3076   24.1736 C.ar    1  UNL1        0.0147
      3 C           7.0077   -4.2936   22.8279 C.ar    1  UNL1        0.0019
      4 C           5.7990   -3.4362   22.5959 C.ar    1  UNL1        0.0090
      5 C           5.2527   -2.5928   23.7096 C.ar    1  UNL1        0.0307
      6 S           4.0843   -1.6546   23.7780 S.2     1  UNL1       -0.0869
      7 C           4.0247   -1.0888   25.1659 C.ar    1  UNL1        0.0295
      8 C           3.0863   -0.1137   25.8128 C.ar    1  UNL1        0.0065
      9 C           3.2793    0.2728   27.2492 C.ar    1  UNL1        0.0005
     10 C           4.4109   -0.3157   28.0386 C.ar    1  UNL1        0.0000
     11 C           5.3493   -1.2908   27.3917 C.ar    1  UNL1        0.0006
     12 C           5.1562   -1.6773   25.9554 C.ar    1  UNL1        0.0077
     13 C           5.9151   -2.6068   25.0554 C.ar    1  UNL1        0.0200
     14 C           5.1365   -3.4222   21.2502 C.ar    1  UNL1        0.0352
     15 C           4.2240   -4.5441   20.8517 C.ar    1  UNL1        0.0031
     16 C           3.5616   -4.5302   19.5060 C.ar    1  UNL1        0.0003
     17 C           3.8116   -3.3942   18.5588 C.ar    1  UNL1        0.0062
     18 C           4.7240   -2.2723   18.9573 C.ar    1  UNL1        0.0736
     19 C           4.9740   -1.1364   18.0100 C.ar    1  UNL1        0.2030
     20 O           4.3115   -1.1224   16.6643 O.2     1  UNL1       -0.2863
     21 C           5.8864   -0.0145   18.4085 C.ar    1  UNL1        0.0955
     22 C           6.5489   -0.0285   19.7543 C.ar    1  UNL1        0.2024
     23 O           6.2989   -1.1644   20.7015 O.2     1  UNL1       -0.4398
     24 C           5.3865   -2.2863   20.3030 C.ar    1  UNL1        0.1498
     25 N           7.4613    1.0934   20.1527 N.pl3   1  UNL1       -0.2742
     26 C           7.5234    2.3407   19.3220 C.3     1  UNL1        0.1257
     27 C           8.4359    3.4626   19.7205 C.3     1  UNL1        0.1637
     28 O           9.2862    3.3372   20.9497 O.3     1  UNL1       -0.3501
     29 C           9.2241    2.0898   21.7805 C.3     1  UNL1        0.1637
     30 C           8.3117    0.9679   21.3820 C.3     1  UNL1        0.1257
     31 C           7.4309   -4.5384   27.6330 C.2     1  UNL1        0.2425
     32 O           6.4130   -5.5845   27.2873 O.2     1  UNL1       -0.2733
     33 N           7.7864   -3.4783   26.6331 N.am    1  UNL1       -0.2828
     34 H           8.4545   -2.7917   26.8601 H       1  UNL1        0.1549
     35 C           8.0934   -4.5525   28.9787 C.3     1  UNL1        0.1588
     36 N           6.3721   -2.1319   32.3592 N.3     1  UNL1       -0.2703
     37 C           7.0395   -1.4419   31.2066 C.3     1  UNL1        0.0897
     38 C           7.6133   -2.2487   30.0798 C.3     1  UNL1        0.0900
     39 N           7.5196   -3.7456   30.1055 N.3     1  UNL1       -0.2626
     40 C           6.8522   -4.4356   31.2581 C.3     1  UNL1        0.0900
     41 C           6.2785   -3.6288   32.3850 C.3     1  UNL1        0.0897
     42 C           4.4088   -1.6045   33.9769 C.3     1  UNL1        0.0188
     43 C           5.7983   -1.3250   33.4861 C.3     1  UNL1        0.0722
@<TRIPOS>BOND
     1    42    43    1
     2    43    36    1
     3    36    37    1
     4    37    38    1
     5    38    39    1
     6    39    35    1
     7    35    31    1
     8    31    32    2
     9    31    33   am
    10    33     1    1
    11     1     2   ar
    12     2     3   ar
    13     3     4   ar
    14     4    14    1
    15    14    15   ar
    16    15    16   ar
    17    16    17   ar
    18    17    18   ar
    19    18    19   ar
    20    19    20    2
    21    19    21   ar
    22    21    22   ar
    23    22    25    1
    24    25    26    1
    25    26    27    1
    26    27    28    1
    27    28    29    1
    28    29    30    1
    29    22    23   ar
    30    23    24   ar
    31     4     5   ar
    32     5     6   ar
    33     6     7   ar
    34     7     8   ar
    35     8     9   ar
    36     9    10   ar
    37    10    11   ar
    38    11    12   ar
    39    12    13   ar
    40    39    40    1
    41    40    41    1
    42    41    36    1
    43    13     1   ar
    44    24    14   ar
    45    13     5   ar
    46    24    18   ar
    47    12     7   ar
    48    30    25    1
    49    33    34    1
@<TRIPOS>MOLECULE
*****
 43 49 0 0 0
SMALL
GASTEIGER

@<TRIPOS>ATOM
      1 C           2.5192   -0.0125   23.8592 C.ar    1  UNL1        0.0508
      2 C           1.7204    1.2297   24.1214 C.ar    1  UNL1        0.0147
      3 C           1.0624    1.9525   22.9836 C.ar    1  UNL1        0.0019
      4 C           1.2032    1.4329   21.5835 C.ar    1  UNL1        0.0090
      5 C           2.0020    0.1906   21.3213 C.ar    1  UNL1        0.0307
      6 S           2.3146   -0.5535   20.0570 S.2     1  UNL1       -0.0869
      7 C           3.1658   -1.7361   20.4134 C.ar    1  UNL1        0.0295
      8 C           3.7741   -2.8232   19.5779 C.ar    1  UNL1        0.0065
      9 C           4.5958   -3.8971   20.2271 C.ar    1  UNL1        0.0005
     10 C           4.8092   -3.8839   21.7118 C.ar    1  UNL1        0.0000
     11 C           4.2010   -2.7968   22.5473 C.ar    1  UNL1        0.0006
     12 C           3.3793   -1.7228   21.8981 C.ar    1  UNL1        0.0077
     13 C           2.6600   -0.5321   22.4592 C.ar    1  UNL1        0.0200
     14 C           0.5453    2.1556   20.4456 C.ar    1  UNL1        0.0352
     15 C           1.1727    2.1385   19.0832 C.ar    1  UNL1        0.0031
     16 C           0.5148    2.8611   17.9453 C.ar    1  UNL1        0.0003
     17 C          -0.7706    3.6010   18.1698 C.ar    1  UNL1        0.0062
     18 C          -1.3980    3.6181   19.5321 C.ar    1  UNL1        0.0736
     19 C          -2.6834    4.3580   19.7566 C.ar    1  UNL1        0.2030
     20 O          -3.3414    5.0807   18.6188 O.2     1  UNL1       -0.2863
     21 C          -3.3109    4.3751   21.1190 C.ar    1  UNL1        0.0955
     22 C          -2.6529    3.6524   22.2569 C.ar    1  UNL1        0.2024
     23 O          -1.3675    2.9125   22.0325 O.2     1  UNL1       -0.4398
     24 C          -0.7401    2.8954   20.6701 C.ar    1  UNL1        0.1498
     25 N          -3.2803    3.6695   23.6193 N.pl3   1  UNL1       -0.2742
     26 C          -2.4145    3.6582   24.8440 C.3     1  UNL1        0.1257
     27 C          -3.0419    3.6753   26.2063 C.3     1  UNL1        0.1637
     28 O          -4.5352    3.7038   26.3440 O.3     1  UNL1       -0.3501
     29 C          -5.4012    3.7152   25.1192 C.3     1  UNL1        0.1637
     30 C          -4.7738    3.6981   23.7569 C.3     1  UNL1        0.1257
     31 C           4.4406   -0.1947   25.5985 C.2     1  UNL1        0.2425
     32 O           5.0461    1.0684   25.0620 O.2     1  UNL1       -0.2733
     33 N           3.1772   -0.7352   24.9972 N.am    1  UNL1       -0.2828
     34 H           2.7798   -1.5643   25.3494 H       1  UNL1        0.1549
     35 C           5.0985   -0.9174   26.7364 C.3     1  UNL1        0.1588
     36 N           7.6060   -4.5670   25.9345 N.3     1  UNL1       -0.2703
     37 C           7.3197   -3.5958   24.8278 C.3     1  UNL1        0.0897
     38 C           6.4839   -2.3793   25.0951 C.3     1  UNL1        0.0900
     39 N           5.9344   -2.1339   26.4691 N.3     1  UNL1       -0.2626
     40 C           6.2207   -3.1052   27.5758 C.3     1  UNL1        0.0900
     41 C           7.0565   -4.3217   27.3086 C.3     1  UNL1        0.0897
     42 C           7.8050   -7.0246   25.1156 C.3     1  UNL1        0.0188
     43 C           8.4418   -5.7836   25.6672 C.3     1  UNL1        0.0722
@<TRIPOS>BOND
     1    42    43    1
     2    43    36    1
     3    36    37    1
     4    37    38    1
     5    38    39    1
     6    39    35    1
     7    35    31    1
     8    31    32    2
     9    31    33   am
    10    33     1    1
    11     1     2   ar
    12     2     3   ar
    13     3     4   ar
    14     4    14    1
    15    14    15   ar
    16    15    16   ar
    17    16    17   ar
    18    17    18   ar
    19    18    19   ar
    20    19    20    2
    21    19    21   ar
    22    21    22   ar
    23    22    25    1
    24    25    26    1
    25    26    27    1
    26    27    28    1
    27    28    29    1
    28    29    30    1
    29    22    23   ar
    30    23    24   ar
    31     4     5   ar
    32     5     6   ar
    33     6     7   ar
    34     7     8   ar
    35     8     9   ar
    36     9    10   ar
    37    10    11   ar
    38    11    12   ar
    39    12    13   ar
    40    39    40    1
    41    40    41    1
    42    41    36    1
    43    13     1   ar
    44    24    14   ar
    45    13     5   ar
    46    24    18   ar
    47    12     7   ar
    48    30    25    1
    49    33    34    1
@<TRIPOS>MOLECULE
*****
 43 49 0 0 0
SMALL
GASTEIGER

@<TRIPOS>ATOM
      1 C           3.5121    2.0177   25.7892 C.ar    1  UNL1        0.0508
      2 C           4.9699    1.7816   25.5264 C.ar    1  UNL1        0.0147
      3 C           5.6930    0.6814   26.2452 C.ar    1  UNL1        0.0019
      4 C           4.9583   -0.1826   27.2269 C.ar    1  UNL1        0.0090
      5 C           3.5005    0.0536   27.4897 C.ar    1  UNL1        0.0307
      6 S           2.5200   -0.6311   28.3951 S.2     1  UNL1       -0.0869
      7 C           1.1909    0.0458   28.2359 C.ar    1  UNL1        0.0295
      8 C          -0.1435   -0.1997   28.8753 C.ar    1  UNL1        0.0065
      9 C          -1.3189    0.6579   28.5108 C.ar    1  UNL1        0.0005
     10 C          -1.1599    1.7610   27.5069 C.ar    1  UNL1        0.0000
     11 C           0.1746    2.0066   26.8675 C.ar    1  UNL1        0.0006
     12 C           1.3500    1.1490   27.2320 C.ar    1  UNL1        0.0077
     13 C           2.7774    1.1537   26.7708 C.ar    1  UNL1        0.0200
     14 C           5.6814   -1.2827   27.9457 C.ar    1  UNL1        0.0352
     15 C           5.9023   -1.1925   29.4267 C.ar    1  UNL1        0.0031
     16 C           6.6253   -2.2926   30.1456 C.ar    1  UNL1        0.0003
     17 C           7.1276   -3.4830   29.3836 C.ar    1  UNL1        0.0062
     18 C           6.9067   -3.5733   27.9027 C.ar    1  UNL1        0.0736
     19 C           7.4090   -4.7637   27.1407 C.ar    1  UNL1        0.2030
     20 O           8.1321   -5.8638   27.8595 O.2     1  UNL1       -0.2863
     21 C           7.1881   -4.8539   25.6598 C.ar    1  UNL1        0.0955
     22 C           6.4650   -3.7537   24.9408 C.ar    1  UNL1        0.2024
     23 O           5.9628   -2.5633   25.7029 O.2     1  UNL1       -0.4398
     24 C           6.1836   -2.4731   27.1837 C.ar    1  UNL1        0.1498
     25 N           6.2442   -3.8440   23.4599 N.pl3   1  UNL1       -0.2742
     26 C           4.8693   -3.6478   22.8934 C.3     1  UNL1        0.1257
     27 C           4.6484   -3.7381   21.4125 C.3     1  UNL1        0.1637
     28 O           5.8024   -4.0245   20.4982 O.3     1  UNL1       -0.3501
     29 C           7.1774   -4.2207   21.0647 C.3     1  UNL1        0.1637
     30 C           7.3983   -4.1304   22.5456 C.3     1  UNL1        0.1257
     31 C           2.0212    2.8171   23.8172 C.2     1  UNL1        0.2425
     32 O           1.9765    1.4163   23.2831 O.2     1  UNL1       -0.2733
     33 N           2.7890    3.1180   25.0703 N.am    1  UNL1       -0.2828
     34 H           2.8183    4.0375   25.4209 H       1  UNL1        0.1549
     35 C           1.2982    3.9173   23.0984 C.3     1  UNL1        0.1588
     36 N          -2.9252    3.2828   21.6804 N.3     1  UNL1       -0.2703
     37 C          -2.6578    3.6011   23.1217 C.3     1  UNL1        0.0897
     38 C          -1.2500    3.8126   23.5943 C.3     1  UNL1        0.0900
     39 N          -0.1096    3.7058   22.6257 N.3     1  UNL1       -0.2626
     40 C          -0.3770    3.3875   21.1845 C.3     1  UNL1        0.0900
     41 C          -1.7848    3.1760   20.7118 C.3     1  UNL1        0.0897
     42 C          -5.4359    3.9497   21.7196 C.3     1  UNL1        0.0188
     43 C          -4.3330    3.0713   21.2077 C.3     1  UNL1        0.0722
@<TRIPOS>BOND
     1    42    43    1
     2    43    36    1
     3    36    37    1
     4    37    38    1
     5    38    39    1
     6    39    35    1
     7    35    31    1
     8    31    32    2
     9    31    33   am
    10    33     1    1
    11     1     2   ar
    12     2     3   ar
    13     3     4   ar
    14     4    14    1
    15    14    15   ar
    16    15    16   ar
    17    16    17   ar
    18    17    18   ar
    19    18    19   ar
    20    19    20    2
    21    19    21   ar
    22    21    22   ar
    23    22    25    1
    24    25    26    1
    25    26    27    1
    26    27    28    1
    27    28    29    1
    28    29    30    1
    29    22    23   ar
    30    23    24   ar
    31     4     5   ar
    32     5     6   ar
    33     6     7   ar
    34     7     8   ar
    35     8     9   ar
    36     9    10   ar
    37    10    11   ar
    38    11    12   ar
    39    12    13   ar
    40    39    40    1
    41    40    41    1
    42    41    36    1
    43    13     1   ar
    44    24    14   ar
    45    13     5   ar
    46    24    18   ar
    47    12     7   ar
    48    30    25    1
    49    33    34    1
