@<TRIPOS>MOLECULE
*****
 31 34 0 0 0
SMALL
GASTEIGER

@<TRIPOS>ATOM
      1 C           6.9067   -3.9601   25.0061 C.2     1  UNL1        0.0020
      2 C           6.6155   -3.5419   26.4170 C.2     1  UNL1        0.0130
      3 C           7.1184   -4.3685   27.5632 C.3     1  UNL1        0.1542
      4 C           6.3243   -3.1238   27.8277 C.3     1  UNL1        0.0614
      5 C           6.0331   -2.7057   29.2385 C.3     1  UNL1        0.0725
      6 N           6.5360   -3.5323   30.3847 N.3     1  UNL1       -0.2972
      7 C           7.3301   -4.7770   30.1202 C.3     1  UNL1        0.0725
      8 C           7.6212   -5.1952   28.7094 C.3     1  UNL1        0.0614
      9 O           7.9125   -5.6133   27.2986 O.3     1  UNL1       -0.4785
     10 C           8.2036   -6.0315   25.8878 C.ar    1  UNL1        0.1386
     11 C           8.9977   -7.2763   25.6232 C.ar    1  UNL1        0.0369
     12 C           9.2889   -7.6944   24.2124 C.ar    1  UNL1        0.0031
     13 C           8.7860   -6.8678   23.0662 C.ar    1  UNL1        0.0002
     14 C           7.9920   -5.6231   23.3307 C.ar    1  UNL1        0.0030
     15 C           7.7008   -5.2049   24.7416 C.ar    1  UNL1        0.0338
     16 H           5.7184   -3.8140   30.9256 H       1  UNL1        0.1233
     17 C           5.3980   -1.4803   21.5675 C.ar    1  UNL1        0.0536
     18 C           6.7559   -1.2129   22.1460 C.ar    1  UNL1        0.0045
     19 C           7.2587   -2.0395   23.2923 C.ar    1  UNL1        0.0001
     20 C           6.4038   -3.1335   23.8599 C.ar    1  UNL1       -0.0001
     21 C           5.0459   -3.4009   23.2813 C.ar    1  UNL1        0.0001
     22 C           4.5430   -2.5743   22.1351 C.ar    1  UNL1        0.0045
     23 N           5.1138   -1.1153   19.0109 N.am    1  UNL1       -0.2793
     24 C           4.8951   -0.6537   20.4213 C.2     1  UNL1        0.2489
     25 O           4.1736    0.6346   20.6854 O.2     1  UNL1       -0.2699
     26 C           3.1612   -0.3393   17.4828 C.3     1  UNL1        0.0215
     27 C           4.6109   -0.2887   17.8647 C.3     1  UNL1        0.0757
     28 C           5.5577    0.5884   17.1004 C.3     1  UNL1        0.0215
     29 C           5.8353   -2.4036   18.7468 C.3     1  UNL1        0.0757
     30 C           5.0621   -3.6814   18.6073 C.3     1  UNL1        0.0215
     31 C           7.3301   -2.4141   18.6221 C.3     1  UNL1        0.0215
@<TRIPOS>BOND
     1    26    27    1
     2    27    28    1
     3    27    23    1
     4    23    24   am
     5    24    25    2
     6    24    17    1
     7    17    18   ar
     8    18    19   ar
     9    19    20   ar
    10    20     1    1
    11     1     2    2
    12     2     3    1
    13     3     4    1
    14     4     5    1
    15     5     6    1
    16     6     7    1
    17     7     8    1
    18     3     9    1
    19     9    10    1
    20    10    11   ar
    21    11    12   ar
    22    12    13   ar
    23    13    14   ar
    24    14    15   ar
    25    20    21   ar
    26    21    22   ar
    27    23    29    1
    28    29    30    1
    29    29    31    1
    30    22    17   ar
    31    15     1    1
    32     8     3    1
    33    15    10   ar
    34     6    16    1
@<TRIPOS>MOLECULE
*****
 31 34 0 0 0
SMALL
GASTEIGER

@<TRIPOS>ATOM
      1 C           6.9168   -3.9941   24.7150 C.2     1  UNL1        0.0020
      2 C           6.4888   -3.1547   25.8823 C.2     1  UNL1        0.0130
      3 C           6.7345   -3.6354   27.2818 C.3     1  UNL1        0.1542
      4 C           6.0609   -2.3154   27.0495 C.3     1  UNL1        0.0614
      5 C           5.6330   -1.4762   28.2167 C.3     1  UNL1        0.0725
      6 N           5.8786   -1.9568   29.6162 N.3     1  UNL1       -0.2972
      7 C           6.5521   -3.2768   29.8485 C.3     1  UNL1        0.0725
      8 C           6.9801   -4.1161   28.6813 C.3     1  UNL1        0.0614
      9 O           7.4081   -4.9554   27.5140 O.3     1  UNL1       -0.4785
     10 C           7.8360   -5.7947   26.3468 C.ar    1  UNL1        0.1386
     11 C           8.5096   -7.1147   26.5791 C.ar    1  UNL1        0.0369
     12 C           8.9376   -7.9540   25.4119 C.ar    1  UNL1        0.0031
     13 C           8.6919   -7.4733   24.0124 C.ar    1  UNL1        0.0002
     14 C           8.0184   -6.1534   23.7801 C.ar    1  UNL1        0.0030
     15 C           7.5904   -5.3140   24.9473 C.ar    1  UNL1        0.0338
     16 H           4.9687   -2.0058   30.0746 H       1  UNL1        0.1233
     17 C           6.1800   -2.5520   20.5165 C.ar    1  UNL1        0.0536
     18 C           5.1440   -3.3794   21.2180 C.ar    1  UNL1        0.0045
     19 C           5.3896   -3.8601   22.6175 C.ar    1  UNL1        0.0001
     20 C           6.6712   -3.5134   23.3155 C.ar    1  UNL1       -0.0001
     21 C           7.7073   -2.6860   22.6140 C.ar    1  UNL1        0.0001
     22 C           7.4617   -2.2053   21.2145 C.ar    1  UNL1        0.0045
     23 N           5.1202   -0.8339   18.8810 N.am    1  UNL1       -0.2793
     24 C           5.9344   -2.0714   19.1170 C.2     1  UNL1        0.2489
     25 O           6.5030   -2.8283   17.9534 O.2     1  UNL1       -0.2699
     26 C           5.8550    0.5720   16.8234 C.3     1  UNL1        0.0215
     27 C           4.8746   -0.3532   17.4815 C.3     1  UNL1        0.0757
     28 C           3.6487   -0.7977   16.7402 C.3     1  UNL1        0.0215
     29 C           4.5516   -0.0770   20.0446 C.3     1  UNL1        0.0757
     30 C           5.3784    0.9653   20.7375 C.3     1  UNL1        0.0215
     31 C           3.1563   -0.3624   20.5153 C.3     1  UNL1        0.0215
@<TRIPOS>BOND
     1    26    27    1
     2    27    28    1
     3    27    23    1
     4    23    24   am
     5    24    25    2
     6    24    17    1
     7    17    18   ar
     8    18    19   ar
     9    19    20   ar
    10    20     1    1
    11     1     2    2
    12     2     3    1
    13     3     4    1
    14     4     5    1
    15     5     6    1
    16     6     7    1
    17     7     8    1
    18     3     9    1
    19     9    10    1
    20    10    11   ar
    21    11    12   ar
    22    12    13   ar
    23    13    14   ar
    24    14    15   ar
    25    20    21   ar
    26    21    22   ar
    27    23    29    1
    28    29    30    1
    29    29    31    1
    30    22    17   ar
    31    15     1    1
    32     8     3    1
    33    15    10   ar
    34     6    16    1
@<TRIPOS>MOLECULE
*****
 31 34 0 0 0
SMALL
GASTEIGER

@<TRIPOS>ATOM
      1 C           6.4191   -3.4150   25.1717 C.2     1  UNL1        0.0020
      2 C           7.0177   -4.7892   25.1133 C.2     1  UNL1        0.0130
      3 C           7.3886   -5.5001   26.3810 C.3     1  UNL1        0.1542
      4 C           7.6162   -6.1633   25.0550 C.3     1  UNL1        0.0614
      5 C           8.2147   -7.5375   24.9967 C.3     1  UNL1        0.0725
      6 N           8.5856   -8.2484   26.2643 N.3     1  UNL1       -0.2972
      7 C           8.3580   -7.5852   27.5903 C.3     1  UNL1        0.0725
      8 C           7.7595   -6.2110   27.6487 C.3     1  UNL1        0.0614
      9 O           7.1610   -4.8368   27.7070 O.3     1  UNL1       -0.4785
     10 C           6.5624   -3.4627   27.7654 C.ar    1  UNL1        0.1386
     11 C           6.3348   -2.7994   29.0914 C.ar    1  UNL1        0.0369
     12 C           5.7363   -1.4253   29.1497 C.ar    1  UNL1        0.0031
     13 C           5.3653   -0.7143   27.8820 C.ar    1  UNL1        0.0002
     14 C           5.5929   -1.3775   26.5561 C.ar    1  UNL1        0.0030
     15 C           6.1915   -2.7518   26.4977 C.ar    1  UNL1        0.0338
     16 H           9.5829   -8.4543   26.2055 H       1  UNL1        0.1233
     17 C           5.3063   -1.2822   21.3687 C.ar    1  UNL1        0.0536
     18 C           4.3383   -2.2350   22.0050 C.ar    1  UNL1        0.0045
     19 C           4.7092   -2.9459   23.2727 C.ar    1  UNL1        0.0001
     20 C           6.0482   -2.7040   23.9040 C.ar    1  UNL1       -0.0001
     21 C           7.0163   -1.7512   23.2677 C.ar    1  UNL1        0.0001
     22 C           6.6454   -1.0403   22.0000 C.ar    1  UNL1        0.0045
     23 N           5.3108   -1.1600   18.7735 N.am    1  UNL1       -0.2793
     24 C           4.9354   -0.5712   20.1010 C.2     1  UNL1        0.2489
     25 O           4.1890    0.7286   20.1609 O.2     1  UNL1       -0.2699
     26 C           3.6687   -0.8025   16.7921 C.3     1  UNL1        0.0215
     27 C           4.9399   -0.4491   17.5058 C.3     1  UNL1        0.0757
     28 C           5.8401    0.6152   16.9518 C.3     1  UNL1        0.0215
     29 C           6.0572   -2.4599   18.7136 C.3     1  UNL1        0.0757
     30 C           5.3041   -3.7570   18.6955 C.3     1  UNL1        0.0215
     31 C           7.5566   -2.4625   18.6718 C.3     1  UNL1        0.0215
@<TRIPOS>BOND
     1    26    27    1
     2    27    28    1
     3    27    23    1
     4    23    24   am
     5    24    25    2
     6    24    17    1
     7    17    18   ar
     8    18    19   ar
     9    19    20   ar
    10    20     1    1
    11     1     2    2
    12     2     3    1
    13     3     4    1
    14     4     5    1
    15     5     6    1
    16     6     7    1
    17     7     8    1
    18     3     9    1
    19     9    10    1
    20    10    11   ar
    21    11    12   ar
    22    12    13   ar
    23    13    14   ar
    24    14    15   ar
    25    20    21   ar
    26    21    22   ar
    27    23    29    1
    28    29    30    1
    29    29    31    1
    30    22    17   ar
    31    15     1    1
    32     8     3    1
    33    15    10   ar
    34     6    16    1
@<TRIPOS>MOLECULE
*****
 31 34 0 0 0
SMALL
GASTEIGER

@<TRIPOS>ATOM
      1 C          -0.8225    2.6884   21.0941 C.2     1  UNL1        0.0020
      2 C          -1.8997    3.3350   20.2746 C.2     1  UNL1        0.0130
      3 C          -2.9716    4.1409   20.9465 C.3     1  UNL1        0.1542
      4 C          -2.9769    3.9815   19.4551 C.3     1  UNL1        0.0614
      5 C          -4.0541    4.6281   18.6356 C.3     1  UNL1        0.0725
      6 N          -5.1259    5.4340   19.3076 N.3     1  UNL1       -0.2972
      7 C          -5.1206    5.5934   20.7991 C.3     1  UNL1        0.0725
      8 C          -4.0435    4.9468   21.6185 C.3     1  UNL1        0.0614
      9 O          -2.9662    4.3002   22.4381 O.3     1  UNL1       -0.4785
     10 C          -1.8891    3.6537   23.2576 C.ar    1  UNL1        0.1386
     11 C          -1.8837    3.8130   24.7491 C.ar    1  UNL1        0.0369
     12 C          -0.8065    3.1664   25.5686 C.ar    1  UNL1        0.0031
     13 C           0.2653    2.3605   24.8966 C.ar    1  UNL1        0.0002
     14 C           0.2600    2.2011   23.4051 C.ar    1  UNL1        0.0030
     15 C          -0.8172    2.8477   22.5856 C.ar    1  UNL1        0.0338
     16 H          -6.0169    5.0031   19.0607 H       1  UNL1        0.1233
     17 C           2.3930    0.2705   19.0781 C.ar    1  UNL1        0.0536
     18 C           2.4757    1.7682   19.0878 C.ar    1  UNL1        0.0045
     19 C           1.4038    2.5741   19.7598 C.ar    1  UNL1        0.0001
     20 C           0.2493    1.8824   20.4221 C.ar    1  UNL1       -0.0001
     21 C           0.1667    0.3847   20.4124 C.ar    1  UNL1        0.0001
     22 C           1.2385   -0.4213   19.7404 C.ar    1  UNL1        0.0045
     23 N           4.5538   -1.1647   19.2236 N.am    1  UNL1       -0.2793
     24 C           3.4649   -0.5354   18.4061 C.2     1  UNL1        0.2489
     25 O           3.4478   -0.7121   16.9166 O.2     1  UNL1       -0.2699
     26 C           6.8840   -1.3021   18.0828 C.3     1  UNL1        0.0215
     27 C           5.6257   -1.9706   18.5516 C.3     1  UNL1        0.0757
     28 C           5.4392   -3.4450   18.3483 C.3     1  UNL1        0.0215
     29 C           4.5709   -0.9880   20.7131 C.3     1  UNL1        0.0757
     30 C           3.9486   -2.0264   21.5987 C.3     1  UNL1        0.0215
     31 C           5.2103    0.2271   21.3169 C.3     1  UNL1        0.0215
@<TRIPOS>BOND
     1    26    27    1
     2    27    28    1
     3    27    23    1
     4    23    24   am
     5    24    25    2
     6    24    17    1
     7    17    18   ar
     8    18    19   ar
     9    19    20   ar
    10    20     1    1
    11     1     2    2
    12     2     3    1
    13     3     4    1
    14     4     5    1
    15     5     6    1
    16     6     7    1
    17     7     8    1
    18     3     9    1
    19     9    10    1
    20    10    11   ar
    21    11    12   ar
    22    12    13   ar
    23    13    14   ar
    24    14    15   ar
    25    20    21   ar
    26    21    22   ar
    27    23    29    1
    28    29    30    1
    29    29    31    1
    30    22    17   ar
    31    15     1    1
    32     8     3    1
    33    15    10   ar
    34     6    16    1
@<TRIPOS>MOLECULE
*****
 31 34 0 0 0
SMALL
GASTEIGER

@<TRIPOS>ATOM
      1 C           6.6432   -3.9086   24.7550 C.2     1  UNL1        0.0020
      2 C           7.2344   -5.2605   25.0252 C.2     1  UNL1        0.0130
      3 C           7.4579   -5.7127   26.4378 C.3     1  UNL1        0.1542
      4 C           7.8255   -6.6123   25.2953 C.3     1  UNL1        0.0614
      5 C           8.4167   -7.9642   25.5655 C.3     1  UNL1        0.0725
      6 N           8.6401   -8.4163   26.9782 N.3     1  UNL1       -0.2972
      7 C           8.2725   -7.5167   28.1207 C.3     1  UNL1        0.0725
      8 C           7.6813   -6.1648   27.8505 C.3     1  UNL1        0.0614
      9 O           7.0901   -4.8129   27.5804 O.3     1  UNL1       -0.4785
     10 C           6.4990   -3.4611   27.3102 C.ar    1  UNL1        0.1386
     11 C           6.1313   -2.5613   28.4527 C.ar    1  UNL1        0.0369
     12 C           5.5402   -1.2095   28.1825 C.ar    1  UNL1        0.0031
     13 C           5.3167   -0.7573   26.7699 C.ar    1  UNL1        0.0002
     14 C           5.6844   -1.6570   25.6274 C.ar    1  UNL1        0.0030
     15 C           6.2756   -3.0089   25.8975 C.ar    1  UNL1        0.0338
     16 H           9.6362   -8.6160   27.0693 H       1  UNL1        0.1233
     17 C           5.9729   -2.5521   20.5170 C.ar    1  UNL1        0.0536
     18 C           4.8855   -3.2767   21.2535 C.ar    1  UNL1        0.0045
     19 C           5.1089   -3.7289   22.6661 C.ar    1  UNL1        0.0001
     20 C           6.4198   -3.4564   23.3424 C.ar    1  UNL1       -0.0001
     21 C           7.5073   -2.7317   22.6059 C.ar    1  UNL1        0.0001
     22 C           7.2838   -2.2795   21.1933 C.ar    1  UNL1        0.0045
     23 N           5.1080   -0.7711   18.8348 N.am    1  UNL1       -0.2793
     24 C           5.7494   -2.0999   19.1044 C.2     1  UNL1        0.2489
     25 O           6.1675   -2.9767   17.9613 O.2     1  UNL1       -0.2699
     26 C           5.8698    0.6014   16.7645 C.3     1  UNL1        0.0215
     27 C           4.8845   -0.3189   17.4221 C.3     1  UNL1        0.0757
     28 C           3.6759   -0.7870   16.6671 C.3     1  UNL1        0.0215
     29 C           4.6899    0.1056   19.9779 C.3     1  UNL1        0.0757
     30 C           5.6825    1.0333   20.6136 C.3     1  UNL1        0.0215
     31 C           3.2792    0.0547   20.4853 C.3     1  UNL1        0.0215
@<TRIPOS>BOND
     1    26    27    1
     2    27    28    1
     3    27    23    1
     4    23    24   am
     5    24    25    2
     6    24    17    1
     7    17    18   ar
     8    18    19   ar
     9    19    20   ar
    10    20     1    1
    11     1     2    2
    12     2     3    1
    13     3     4    1
    14     4     5    1
    15     5     6    1
    16     6     7    1
    17     7     8    1
    18     3     9    1
    19     9    10    1
    20    10    11   ar
    21    11    12   ar
    22    12    13   ar
    23    13    14   ar
    24    14    15   ar
    25    20    21   ar
    26    21    22   ar
    27    23    29    1
    28    29    30    1
    29    29    31    1
    30    22    17   ar
    31    15     1    1
    32     8     3    1
    33    15    10   ar
    34     6    16    1
@<TRIPOS>MOLECULE
*****
 31 34 0 0 0
SMALL
GASTEIGER

@<TRIPOS>ATOM
      1 C           2.3709    0.1912   22.2754 C.2     1  UNL1        0.0020
      2 C           3.1406   -1.0952   22.2220 C.2     1  UNL1        0.0130
      3 C           3.3397   -1.7962   20.9109 C.3     1  UNL1        0.1542
      4 C           3.9103   -2.3815   22.1685 C.3     1  UNL1        0.0614
      5 C           4.6799   -3.6679   22.1151 C.3     1  UNL1        0.0725
      6 N           4.8790   -4.3689   20.8040 N.3     1  UNL1       -0.2972
      7 C           4.3084   -3.7835   19.5463 C.3     1  UNL1        0.0725
      8 C           3.5387   -2.4972   19.5998 C.3     1  UNL1        0.0614
      9 O           2.7691   -1.2107   19.6532 O.3     1  UNL1       -0.4785
     10 C           1.9994    0.0756   19.7066 C.ar    1  UNL1        0.1386
     11 C           1.4288    0.6610   18.4489 C.ar    1  UNL1        0.0369
     12 C           0.6591    1.9474   18.5024 C.ar    1  UNL1        0.0031
     13 C           0.4601    2.6484   19.8135 C.ar    1  UNL1        0.0002
     14 C           1.0307    2.0630   21.0711 C.ar    1  UNL1        0.0030
     15 C           1.8004    0.7766   21.0177 C.ar    1  UNL1        0.0338
     16 H           4.4763   -5.3007   20.9041 H       1  UNL1        0.1233
     17 C           1.7738    2.2942   26.2087 C.ar    1  UNL1        0.0536
     18 C           0.6623    1.4781   25.6182 C.ar    1  UNL1        0.0045
     19 C           0.8614    0.7771   24.3071 C.ar    1  UNL1        0.0001
     20 C           2.1719    0.8922   23.5865 C.ar    1  UNL1       -0.0001
     21 C           3.2834    1.7083   24.1769 C.ar    1  UNL1        0.0001
     22 C           3.0843    2.4093   25.4880 C.ar    1  UNL1        0.0045
     23 N           1.9662    2.3177   28.7995 N.am    1  UNL1       -0.2793
     24 C           1.5747    2.9952   27.5198 C.2     1  UNL1        0.2489
     25 O           0.9841    4.3737   27.5511 O.2     1  UNL1       -0.2699
     26 C           0.5964    2.6659   30.9795 C.3     1  UNL1        0.0215
     27 C           1.7672    3.0187   30.1106 C.3     1  UNL1        0.0757
     28 C           2.7388    4.0725   30.5528 C.3     1  UNL1        0.0215
     29 C           2.5568    0.9392   28.7681 C.3     1  UNL1        0.0757
     30 C           1.6590   -0.2621   28.7939 C.3     1  UNL1        0.0215
     31 C           4.0452    0.7621   28.7111 C.3     1  UNL1        0.0215
@<TRIPOS>BOND
     1    26    27    1
     2    27    28    1
     3    27    23    1
     4    23    24   am
     5    24    25    2
     6    24    17    1
     7    17    18   ar
     8    18    19   ar
     9    19    20   ar
    10    20     1    1
    11     1     2    2
    12     2     3    1
    13     3     4    1
    14     4     5    1
    15     5     6    1
    16     6     7    1
    17     7     8    1
    18     3     9    1
    19     9    10    1
    20    10    11   ar
    21    11    12   ar
    22    12    13   ar
    23    13    14   ar
    24    14    15   ar
    25    20    21   ar
    26    21    22   ar
    27    23    29    1
    28    29    30    1
    29    29    31    1
    30    22    17   ar
    31    15     1    1
    32     8     3    1
    33    15    10   ar
    34     6    16    1
@<TRIPOS>MOLECULE
*****
 31 34 0 0 0
SMALL
GASTEIGER

@<TRIPOS>ATOM
      1 C          -1.4139    3.0717   25.4236 C.2     1  UNL1        0.0020
      2 C          -0.7401    2.8550   24.1010 C.2     1  UNL1        0.0130
      3 C          -1.4391    3.2406   22.8311 C.3     1  UNL1        0.1542
      4 C          -0.0664    2.6383   22.7785 C.3     1  UNL1        0.0614
      5 C           0.6073    2.4216   21.4559 C.3     1  UNL1        0.0725
      6 N          -0.0918    2.8072   20.1860 N.3     1  UNL1       -0.2972
      7 C          -1.4645    3.4095   20.2387 C.3     1  UNL1        0.0725
      8 C          -2.1382    3.6262   21.5612 C.3     1  UNL1        0.0614
      9 O          -2.8119    3.8430   22.8838 O.3     1  UNL1       -0.4785
     10 C          -3.4856    4.0597   24.2063 C.ar    1  UNL1        0.1386
     11 C          -4.8584    4.6620   24.2590 C.ar    1  UNL1        0.0369
     12 C          -5.5321    4.8787   25.5815 C.ar    1  UNL1        0.0031
     13 C          -4.8331    4.4931   26.8514 C.ar    1  UNL1        0.0002
     14 C          -3.4604    3.8908   26.7988 C.ar    1  UNL1        0.0030
     15 C          -2.7866    3.6741   25.4762 C.ar    1  UNL1        0.0338
     16 H          -0.1629    1.9613   19.6205 H       1  UNL1        0.1233
     17 C           0.6832    1.9149   29.2333 C.ar    1  UNL1        0.0536
     18 C           0.8467    3.2985   28.6775 C.ar    1  UNL1        0.0045
     19 C           0.1477    3.6841   27.4076 C.ar    1  UNL1        0.0001
     20 C          -0.7149    2.6861   26.6935 C.ar    1  UNL1       -0.0001
     21 C          -0.8784    1.3025   27.2493 C.ar    1  UNL1        0.0001
     22 C          -0.1794    0.9169   28.5192 C.ar    1  UNL1        0.0045
     23 N           2.7807    0.9889   30.4552 N.am    1  UNL1       -0.2793
     24 C           1.3822    1.5293   30.5032 C.2     1  UNL1        0.2489
     25 O           0.6828    1.6841   31.8211 O.2     1  UNL1       -0.2699
     26 C           3.6424   -0.8446   32.0818 C.3     1  UNL1        0.0215
     27 C           3.4797    0.6033   31.7251 C.3     1  UNL1        0.0757
     28 C           4.0160    1.6655   32.6384 C.3     1  UNL1        0.0215
     29 C           3.4801    0.8341   29.1373 C.3     1  UNL1        0.0757
     30 C           3.3050   -0.4233   28.3384 C.3     1  UNL1        0.0215
     31 C           4.3547    1.9368   28.6184 C.3     1  UNL1        0.0215
@<TRIPOS>BOND
     1    26    27    1
     2    27    28    1
     3    27    23    1
     4    23    24   am
     5    24    25    2
     6    24    17    1
     7    17    18   ar
     8    18    19   ar
     9    19    20   ar
    10    20     1    1
    11     1     2    2
    12     2     3    1
    13     3     4    1
    14     4     5    1
    15     5     6    1
    16     6     7    1
    17     7     8    1
    18     3     9    1
    19     9    10    1
    20    10    11   ar
    21    11    12   ar
    22    12    13   ar
    23    13    14   ar
    24    14    15   ar
    25    20    21   ar
    26    21    22   ar
    27    23    29    1
    28    29    30    1
    29    29    31    1
    30    22    17   ar
    31    15     1    1
    32     8     3    1
    33    15    10   ar
    34     6    16    1
@<TRIPOS>MOLECULE
*****
 31 34 0 0 0
SMALL
GASTEIGER

@<TRIPOS>ATOM
      1 C           2.7494    0.3628   26.0883 C.2     1  UNL1        0.0020
      2 C           3.5635   -0.1791   27.2257 C.2     1  UNL1        0.0130
      3 C           3.0480   -0.0804   28.6308 C.3     1  UNL1        0.1542
      4 C           4.3775   -0.7211   28.3630 C.3     1  UNL1        0.0614
      5 C           5.1916   -1.2630   29.5004 C.3     1  UNL1        0.0725
      6 N           4.6760   -1.1642   30.9055 N.3     1  UNL1       -0.2972
      7 C           3.3465   -0.5235   31.1733 C.3     1  UNL1        0.0725
      8 C           2.5325    0.0184   30.0360 C.3     1  UNL1        0.0614
      9 O           1.7184    0.5604   28.8986 O.3     1  UNL1       -0.4785
     10 C           0.9043    1.1023   27.7612 C.ar    1  UNL1        0.1386
     11 C          -0.4253    1.7430   28.0290 C.ar    1  UNL1        0.0369
     12 C          -1.2393    2.2850   26.8917 C.ar    1  UNL1        0.0031
     13 C          -0.7238    2.1862   25.4865 C.ar    1  UNL1        0.0002
     14 C           0.6058    1.5455   25.2187 C.ar    1  UNL1        0.0030
     15 C           1.4199    1.0035   26.3561 C.ar    1  UNL1        0.0338
     16 H           5.3691   -0.6375   31.4371 H       1  UNL1        0.1233
     17 C           4.2960    0.0666   21.8728 C.ar    1  UNL1        0.0536
     18 C           3.5739   -1.0942   22.4901 C.ar    1  UNL1        0.0045
     19 C           3.0584   -0.9955   23.8952 C.ar    1  UNL1        0.0001
     20 C           3.2649    0.2641   24.6831 C.ar    1  UNL1       -0.0001
     21 C           3.9870    1.4250   24.0658 C.ar    1  UNL1        0.0001
     22 C           4.5026    1.3262   22.6607 C.ar    1  UNL1        0.0045
     23 N           3.9365    0.3703   19.3177 N.am    1  UNL1       -0.2793
     24 C           4.8115   -0.0322   20.4676 C.2     1  UNL1        0.2489
     25 O           6.2021   -0.5335   20.2124 O.2     1  UNL1       -0.2699
     26 C           3.9146   -0.7810   16.9887 C.3     1  UNL1        0.0215
     27 C           4.4520    0.2715   17.9125 C.3     1  UNL1        0.0757
     28 C           5.5049    1.2252   17.4312 C.3     1  UNL1        0.0215
     29 C           2.5459    0.8716   19.5729 C.3     1  UNL1        0.0757
     30 C           2.3012    2.3388   19.7658 C.3     1  UNL1        0.0215
     31 C           1.4001   -0.0945   19.6353 C.3     1  UNL1        0.0215
@<TRIPOS>BOND
     1    26    27    1
     2    27    28    1
     3    27    23    1
     4    23    24   am
     5    24    25    2
     6    24    17    1
     7    17    18   ar
     8    18    19   ar
     9    19    20   ar
    10    20     1    1
    11     1     2    2
    12     2     3    1
    13     3     4    1
    14     4     5    1
    15     5     6    1
    16     6     7    1
    17     7     8    1
    18     3     9    1
    19     9    10    1
    20    10    11   ar
    21    11    12   ar
    22    12    13   ar
    23    13    14   ar
    24    14    15   ar
    25    20    21   ar
    26    21    22   ar
    27    23    29    1
    28    29    30    1
    29    29    31    1
    30    22    17   ar
    31    15     1    1
    32     8     3    1
    33    15    10   ar
    34     6    16    1
@<TRIPOS>MOLECULE
*****
 31 34 0 0 0
SMALL
GASTEIGER

@<TRIPOS>ATOM
      1 C           6.6576   -2.9803   30.8822 C.2     1  UNL1        0.0020
      2 C           7.4810   -4.2235   31.0455 C.2     1  UNL1        0.0130
      3 C           7.8886   -5.0169   29.8396 C.3     1  UNL1        0.1542
      4 C           8.3044   -5.4666   31.2088 C.3     1  UNL1        0.0614
      5 C           9.1277   -6.7097   31.3720 C.3     1  UNL1        0.0725
      6 N           9.5353   -7.5031   30.1661 N.3     1  UNL1       -0.2972
      7 C           9.1196   -7.0534   28.7968 C.3     1  UNL1        0.0725
      8 C           8.2962   -5.8103   28.6336 C.3     1  UNL1        0.0614
      9 O           7.4728   -4.5671   28.4703 O.3     1  UNL1       -0.4785
     10 C           6.6495   -3.3240   28.3070 C.ar    1  UNL1        0.1386
     11 C           6.2337   -2.8742   26.9377 C.ar    1  UNL1        0.0369
     12 C           5.4103   -1.6311   26.7745 C.ar    1  UNL1        0.0031
     13 C           5.0027   -0.8377   27.9805 C.ar    1  UNL1        0.0002
     14 C           5.4184   -1.2874   29.3497 C.ar    1  UNL1        0.0030
     15 C           6.2419   -2.5306   29.5130 C.ar    1  UNL1        0.0338
     16 H           9.1625   -8.4440   30.2928 H       1  UNL1        0.1233
     17 C           5.4348   -0.6002   34.5002 C.ar    1  UNL1        0.0536
     18 C           6.7505   -0.3284   33.8333 C.ar    1  UNL1        0.0045
     19 C           7.1582   -1.1218   32.6273 C.ar    1  UNL1        0.0001
     20 C           6.2500   -2.1869   32.0882 C.ar    1  UNL1       -0.0001
     21 C           4.9341   -2.4587   32.7551 C.ar    1  UNL1        0.0001
     22 C           4.5265   -1.6653   33.9611 C.ar    1  UNL1        0.0045
     23 N           4.3083    1.4988   35.5371 N.am    1  UNL1       -0.2793
     24 C           5.0271    0.1932   35.7062 C.2     1  UNL1        0.2489
     25 O           5.3384   -0.3191   37.0812 O.2     1  UNL1       -0.2699
     26 C           4.7775    3.4025   37.2419 C.3     1  UNL1        0.0215
     27 C           3.9007    2.2922   36.7431 C.3     1  UNL1        0.0757
     28 C           2.6164    1.9754   37.4503 C.3     1  UNL1        0.0215
     29 C           3.9971    2.0111   34.1620 C.3     1  UNL1        0.0757
     30 C           4.9807    2.8909   33.4490 C.3     1  UNL1        0.0215
     31 C           2.7022    1.6436   33.5000 C.3     1  UNL1        0.0215
@<TRIPOS>BOND
     1    26    27    1
     2    27    28    1
     3    27    23    1
     4    23    24   am
     5    24    25    2
     6    24    17    1
     7    17    18   ar
     8    18    19   ar
     9    19    20   ar
    10    20     1    1
    11     1     2    2
    12     2     3    1
    13     3     4    1
    14     4     5    1
    15     5     6    1
    16     6     7    1
    17     7     8    1
    18     3     9    1
    19     9    10    1
    20    10    11   ar
    21    11    12   ar
    22    12    13   ar
    23    13    14   ar
    24    14    15   ar
    25    20    21   ar
    26    21    22   ar
    27    23    29    1
    28    29    30    1
    29    29    31    1
    30    22    17   ar
    31    15     1    1
    32     8     3    1
    33    15    10   ar
    34     6    16    1
