@<TRIPOS>MOLECULE
*****
 53 58 0 0 0
SMALL
GASTEIGER

@<TRIPOS>ATOM
      1 C           6.9345   -3.8344   23.6784 C.ar    1  UNL1        0.1090
      2 C           7.2137   -4.7674   24.8192 C.ar    1  UNL1        0.0405
      3 C           7.9902   -6.0289   24.5836 C.ar    1  UNL1        0.1596
      4 F           8.2694   -6.9620   25.7244 F       1  UNL1       -0.2025
      5 C           8.4875   -6.3574   23.2071 C.ar    1  UNL1        0.1316
      6 N           8.2083   -5.4244   22.0662 N.ar    1  UNL1       -0.2073
      7 C           7.4318   -4.1629   22.3019 C.ar    1  UNL1        0.2341
      8 N           4.6773   -2.6356   24.1453 N.am    1  UNL1       -0.3024
      9 C           6.1580   -2.5728   23.9140 C.2     1  UNL1        0.2504
     10 O           6.8622   -1.2484   23.9183 O.2     1  UNL1       -0.2700
     11 H           4.2151   -3.5049   24.1425 H       1  UNL1        0.1497
     12 C           2.3478    1.1490   24.8523 C.3     1  UNL1        0.0720
     13 C           3.0756    0.4931   25.9880 C.3     1  UNL1        0.0213
     14 C           3.8521   -0.7684   25.7524 C.3     1  UNL1        0.0213
     15 C           3.9007   -1.3741   24.3810 C.3     1  UNL1        0.0720
     16 C           3.1729   -0.7182   23.2452 C.3     1  UNL1        0.0213
     17 C           2.3964    0.5433   23.4808 C.3     1  UNL1        0.0213
     18 C           0.1364    2.3386   25.5194 C.2     1  UNL1        0.2653
     19 O          -0.5219    1.0051   25.7152 O.2     1  UNL1       -0.2684
     20 N           1.5712    2.4106   25.0879 N.am    1  UNL1       -0.3012
     21 H           2.0033    3.2858   24.9593 H       1  UNL1        0.1497
     22 C          -3.4199    5.7749   27.3702 C.3     1  UNL1        0.0518
     23 C          -2.2748    5.1797   26.6057 C.ar    1  UNL1        0.0577
     24 C          -1.8080    3.7562   26.6833 C.ar    1  UNL1        0.0398
     25 C          -0.6401    3.6002   25.7550 C.ar    1  UNL1        0.1551
     26 N          -0.3851    4.9272   25.1037 N.ar    1  UNL1       -0.1649
     27 N          -1.3954    5.9033   25.6295 N.ar    1  UNL1       -0.2527
     28 C          -1.5067    7.3492   25.2463 C.3     1  UNL1        0.1533
     29 O           7.1526   -3.2299   21.1610 O.3     1  UNL1       -0.4360
     30 C           5.8379   -3.2968   20.4420 C.ar    1  UNL1        0.1472
     31 C           5.3991   -4.5791   19.7991 C.ar    1  UNL1        0.0376
     32 C           4.0844   -4.6460   19.0800 C.ar    1  UNL1        0.0031
     33 C           3.2085   -3.4306   19.0038 C.ar    1  UNL1        0.0002
     34 C           3.6473   -2.1484   19.6467 C.ar    1  UNL1        0.0030
     35 C           4.9620   -2.0815   20.3658 C.ar    1  UNL1        0.0376
     36 C           2.7714   -0.9331   19.5706 C.ar    1  UNL1        0.0001
     37 C           1.3838   -0.9718   20.1391 C.ar    1  UNL1       -0.0003
     38 C           0.5079    0.2435   20.0630 C.ar    1  UNL1       -0.0043
     39 C           1.0196    1.4975   19.4183 C.ar    1  UNL1       -0.0221
     40 C           2.4071    1.5362   18.8497 C.ar    1  UNL1       -0.0043
     41 C           3.2830    0.3209   18.9258 C.ar    1  UNL1       -0.0003
     42 C           0.1436    2.7129   19.3421 C.3     1  UNL1        0.0278
     43 C          -0.1198    3.5259   20.5748 C.3     1  UNL1        0.0220
     44 C          -0.9612    2.9606   21.6804 C.3     1  UNL1        0.0725
     45 N          -2.4341    3.2418   21.7209 N.3     1  UNL1       -0.2704
     46 C          -3.0998    3.5683   23.0248 C.3     1  UNL1        0.0880
     47 C          -4.5726    3.8495   23.0653 C.3     1  UNL1        0.0702
     48 C          -5.2383    4.1760   24.3693 C.3     1  UNL1        0.0186
     49 N          -5.3798    3.8043   21.8018 N.3     1  UNL1       -0.2974
     50 C          -4.7141    3.4779   20.4978 C.3     1  UNL1        0.0702
     51 C          -5.5213    3.4327   19.2343 C.3     1  UNL1        0.0186
     52 C          -3.2412    3.1966   20.4573 C.3     1  UNL1        0.0880
     53 H          -5.8069    4.7241   21.6922 H       1  UNL1        0.1232
@<TRIPOS>BOND
     1    22    23    1
     2    23    24   ar
     3    24    25   ar
     4    25    18    1
     5    18    19    2
     6    18    20   am
     7    12    20    1
     8    12    13    1
     9    13    14    1
    10    14    15    1
    11    15     8    1
    12     8     9   am
    13     9    10    2
    14     9     1    1
    15     1     2   ar
    16     2     3   ar
    17     3     4    1
    18     3     5   ar
    19     5     6   ar
    20     6     7   ar
    21     7    29    1
    22    29    30    1
    23    30    31   ar
    24    31    32   ar
    25    32    33   ar
    26    33    34   ar
    27    34    36    1
    28    36    37   ar
    29    37    38   ar
    30    38    39   ar
    31    39    42    1
    32    42    43    1
    33    43    44    1
    34    44    45    1
    35    45    46    1
    36    46    47    1
    37    47    48    1
    38    47    49    1
    39    49    50    1
    40    50    51    1
    41    50    52    1
    42    39    40   ar
    43    40    41   ar
    44    34    35   ar
    45    15    16    1
    46    16    17    1
    47    25    26   ar
    48    26    27   ar
    49    27    28    1
    50    27    23   ar
    51    17    12    1
    52     7     1   ar
    53    35    30   ar
    54    41    36   ar
    55    52    45    1
    56    20    21    1
    57     8    11    1
    58    49    53    1
@<TRIPOS>MOLECULE
*****
 53 58 0 0 0
SMALL
GASTEIGER

@<TRIPOS>ATOM
      1 C          -2.4036    3.3092   24.0751 C.ar    1  UNL1        0.1090
      2 C          -3.8968    3.4373   24.1376 C.ar    1  UNL1        0.0405
      3 C          -4.6843    3.6530   22.8794 C.ar    1  UNL1        0.1596
      4 F          -6.1776    3.7811   22.9419 F       1  UNL1       -0.2025
      5 C          -3.9787    3.7405   21.5586 C.ar    1  UNL1        0.1316
      6 N          -2.4855    3.6124   21.4961 N.ar    1  UNL1       -0.2073
      7 C          -1.6980    3.3967   22.7543 C.ar    1  UNL1        0.2341
      8 N          -0.7889    1.8529   25.4971 N.am    1  UNL1       -0.3024
      9 C          -1.6160    3.0934   25.3334 C.2     1  UNL1        0.2504
     10 O          -1.6555    4.1184   26.4279 O.2     1  UNL1       -0.2700
     11 H          -0.7630    1.1802   24.7787 H       1  UNL1        0.1497
     12 C           1.5740    1.2058   29.2717 C.3     1  UNL1        0.0720
     13 C           2.1383    2.0523   28.1695 C.3     1  UNL1        0.0213
     14 C           1.3507    2.2679   26.9113 C.3     1  UNL1        0.0213
     15 C          -0.0013    1.6372   26.7554 C.3     1  UNL1        0.0720
     16 C          -0.5656    0.7907   27.8576 C.3     1  UNL1        0.0213
     17 C           0.2220    0.5751   29.1158 C.3     1  UNL1        0.0213
     18 C           1.8952    1.5968   31.8201 C.2     1  UNL1        0.2653
     19 O           0.6412    2.4193   31.8520 O.2     1  UNL1       -0.2684
     20 N           2.3616    0.9901   30.5300 N.am    1  UNL1       -0.3012
     21 H           3.1847    0.4503   30.5091 H       1  UNL1        0.1497
     22 C           5.2200   -0.4506   35.3746 C.3     1  UNL1        0.0518
     23 C           4.2111    0.4400   34.7122 C.ar    1  UNL1        0.0577
     24 C           3.6574    0.2687   33.3286 C.ar    1  UNL1        0.0398
     25 C           2.6828    1.3811   33.0784 C.ar    1  UNL1        0.1551
     26 N           2.6342    2.2400   34.3072 N.ar    1  UNL1       -0.1649
     27 N           3.5786    1.6583   35.3169 N.ar    1  UNL1       -0.2527
     28 C           3.8441    2.1999   36.6903 C.3     1  UNL1        0.1533
     29 O          -0.2047    3.2686   22.6918 O.3     1  UNL1       -0.4360
     30 C           0.4185    2.0312   22.1169 C.ar    1  UNL1        0.1472
     31 C           0.0223    1.5578   20.7497 C.ar    1  UNL1        0.0376
     32 C           0.6454    0.3204   20.1747 C.ar    1  UNL1        0.0031
     33 C           1.6648   -0.4435   20.9669 C.ar    1  UNL1        0.0002
     34 C           2.0609    0.0300   22.3339 C.ar    1  UNL1        0.0030
     35 C           1.4378    1.2673   22.9089 C.ar    1  UNL1        0.0376
     36 C           3.0803   -0.7340   23.1261 C.ar    1  UNL1        0.0001
     37 C           3.8714   -1.8283   22.4729 C.ar    1  UNL1       -0.0003
     38 C           4.8907   -2.5922   23.2650 C.ar    1  UNL1       -0.0043
     39 C           5.1189   -2.2618   24.7102 C.ar    1  UNL1       -0.0221
     40 C           4.3278   -1.1675   25.3633 C.ar    1  UNL1       -0.0043
     41 C           3.3085   -0.4036   24.5713 C.ar    1  UNL1       -0.0003
     42 C           6.1383   -3.0257   25.5023 C.3     1  UNL1        0.0278
     43 C           6.2413   -2.8234   26.9850 C.3     1  UNL1        0.0220
     44 C           7.4986   -3.2049   27.7085 C.3     1  UNL1        0.0725
     45 N           7.4281   -3.7146   29.1174 N.3     1  UNL1       -0.2704
     46 C           8.2445   -4.9047   29.5263 C.3     1  UNL1        0.0880
     47 C           8.1739   -5.4144   30.9353 C.3     1  UNL1        0.0702
     48 C           8.9905   -6.6045   31.3441 C.3     1  UNL1        0.0186
     49 N           7.2869   -4.7341   31.9354 N.3     1  UNL1       -0.2974
     50 C           6.4704   -3.5440   31.5266 C.3     1  UNL1        0.0702
     51 C           5.5833   -2.8637   32.5267 C.3     1  UNL1        0.0186
     52 C           6.5410   -3.0343   30.1176 C.3     1  UNL1        0.0880
     53 H           7.8868   -4.4302   32.7023 H       1  UNL1        0.1232
@<TRIPOS>BOND
     1    22    23    1
     2    23    24   ar
     3    24    25   ar
     4    25    18    1
     5    18    19    2
     6    18    20   am
     7    12    20    1
     8    12    13    1
     9    13    14    1
    10    14    15    1
    11    15     8    1
    12     8     9   am
    13     9    10    2
    14     9     1    1
    15     1     2   ar
    16     2     3   ar
    17     3     4    1
    18     3     5   ar
    19     5     6   ar
    20     6     7   ar
    21     7    29    1
    22    29    30    1
    23    30    31   ar
    24    31    32   ar
    25    32    33   ar
    26    33    34   ar
    27    34    36    1
    28    36    37   ar
    29    37    38   ar
    30    38    39   ar
    31    39    42    1
    32    42    43    1
    33    43    44    1
    34    44    45    1
    35    45    46    1
    36    46    47    1
    37    47    48    1
    38    47    49    1
    39    49    50    1
    40    50    51    1
    41    50    52    1
    42    39    40   ar
    43    40    41   ar
    44    34    35   ar
    45    15    16    1
    46    16    17    1
    47    25    26   ar
    48    26    27   ar
    49    27    28    1
    50    27    23   ar
    51    17    12    1
    52     7     1   ar
    53    35    30   ar
    54    41    36   ar
    55    52    45    1
    56    20    21    1
    57     8    11    1
    58    49    53    1
@<TRIPOS>MOLECULE
*****
 53 58 0 0 0
SMALL
GASTEIGER

@<TRIPOS>ATOM
      1 C          -2.5932    4.4542   22.4623 C.ar    1  UNL1        0.1090
      2 C          -3.3709    5.6972   22.7785 C.ar    1  UNL1        0.0405
      3 C          -4.4173    6.1903   21.8236 C.ar    1  UNL1        0.1596
      4 F          -5.1951    7.4334   22.1398 F       1  UNL1       -0.2025
      5 C          -4.6861    5.4404   20.5526 C.ar    1  UNL1        0.1316
      6 N          -3.9084    4.1974   20.2364 N.ar    1  UNL1       -0.2073
      7 C          -2.8619    3.7043   21.1913 C.ar    1  UNL1        0.2341
      8 N          -1.9381    3.0922   24.5756 N.am    1  UNL1       -0.3024
      9 C          -1.5467    3.9610   23.4171 C.2     1  UNL1        0.2504
     10 O          -0.1088    4.3366   23.2135 O.2     1  UNL1       -0.2700
     11 H          -2.8818    2.8457   24.7092 H       1  UNL1        0.1497
     12 C           1.2013    1.6126   27.4399 C.3     1  UNL1        0.0720
     13 C           1.0977    1.0164   26.0674 C.3     1  UNL1        0.0213
     14 C           0.0512    1.5096   25.1127 C.3     1  UNL1        0.0213
     15 C          -0.8916    2.5990   25.5304 C.3     1  UNL1        0.0720
     16 C          -0.7879    3.1951   26.9029 C.3     1  UNL1        0.0213
     17 C           0.2586    2.7019   27.8577 C.3     1  UNL1        0.0213
     18 C           1.8881    0.1135   29.4477 C.2     1  UNL1        0.2653
     19 O           0.4819   -0.3993   29.5459 O.2     1  UNL1       -0.2684
     20 N           2.2479    1.1194   28.3948 N.am    1  UNL1       -0.3012
     21 H           3.1708    1.4559   28.3304 H       1  UNL1        0.1497
     22 C           6.4545   -1.6662   31.4129 C.3     1  UNL1        0.0518
     23 C           5.0336   -1.1977   31.3058 C.ar    1  UNL1        0.0577
     24 C           4.3402   -0.7652   30.0479 C.ar    1  UNL1        0.0398
     25 C           2.9346   -0.3797   30.4026 C.ar    1  UNL1        0.1551
     26 N           2.7592   -0.5740   31.8795 N.ar    1  UNL1       -0.1649
     27 N           4.0564   -1.0796   32.4378 N.ar    1  UNL1       -0.2527
     28 C           4.3287   -1.4091   33.8755 C.3     1  UNL1        0.1533
     29 O          -2.0841    2.4612   20.8751 O.3     1  UNL1       -0.4360
     30 C          -0.7904    2.5572   20.1222 C.ar    1  UNL1        0.1472
     31 C          -0.3634    3.8670   19.5286 C.ar    1  UNL1        0.0376
     32 C           0.9304    3.9630   18.7757 C.ar    1  UNL1        0.0031
     33 C           1.7972    2.7491   18.6163 C.ar    1  UNL1        0.0002
     34 C           1.3703    1.4394   19.2099 C.ar    1  UNL1        0.0030
     35 C           0.0765    1.3435   19.9628 C.ar    1  UNL1        0.0376
     36 C           2.2371    0.2256   19.0505 C.ar    1  UNL1        0.0001
     37 C           3.1928    0.1326   17.8981 C.ar    1  UNL1       -0.0003
     38 C           4.0596   -1.0811   17.7387 C.ar    1  UNL1       -0.0043
     39 C           3.9708   -2.2018   18.7317 C.ar    1  UNL1       -0.0221
     40 C           3.0151   -2.1088   19.8842 C.ar    1  UNL1       -0.0043
     41 C           2.1483   -0.8950   20.0436 C.ar    1  UNL1       -0.0003
     42 C           4.8376   -3.4156   18.5724 C.3     1  UNL1        0.0278
     43 C           5.5159   -4.0151   19.7685 C.3     1  UNL1        0.0220
     44 C           6.3491   -3.1522   20.6690 C.3     1  UNL1        0.0725
     45 N           6.1048   -3.1572   22.1490 N.3     1  UNL1       -0.2704
     46 C           5.1447   -2.1763   22.7540 C.3     1  UNL1        0.0880
     47 C           4.9004   -2.1813   24.2340 C.3     1  UNL1        0.0702
     48 C           3.9403   -1.2003   24.8389 C.3     1  UNL1        0.0186
     49 N           5.6162   -3.1672   25.1089 N.3     1  UNL1       -0.2974
     50 C           6.5763   -4.1481   24.5040 C.3     1  UNL1        0.0702
     51 C           7.2921   -5.1340   25.3789 C.3     1  UNL1        0.0186
     52 C           6.8206   -4.1432   23.0240 C.3     1  UNL1        0.0880
     53 H           4.8985   -3.7132   25.5855 H       1  UNL1        0.1232
@<TRIPOS>BOND
     1    22    23    1
     2    23    24   ar
     3    24    25   ar
     4    25    18    1
     5    18    19    2
     6    18    20   am
     7    12    20    1
     8    12    13    1
     9    13    14    1
    10    14    15    1
    11    15     8    1
    12     8     9   am
    13     9    10    2
    14     9     1    1
    15     1     2   ar
    16     2     3   ar
    17     3     4    1
    18     3     5   ar
    19     5     6   ar
    20     6     7   ar
    21     7    29    1
    22    29    30    1
    23    30    31   ar
    24    31    32   ar
    25    32    33   ar
    26    33    34   ar
    27    34    36    1
    28    36    37   ar
    29    37    38   ar
    30    38    39   ar
    31    39    42    1
    32    42    43    1
    33    43    44    1
    34    44    45    1
    35    45    46    1
    36    46    47    1
    37    47    48    1
    38    47    49    1
    39    49    50    1
    40    50    51    1
    41    50    52    1
    42    39    40   ar
    43    40    41   ar
    44    34    35   ar
    45    15    16    1
    46    16    17    1
    47    25    26   ar
    48    26    27   ar
    49    27    28    1
    50    27    23   ar
    51    17    12    1
    52     7     1   ar
    53    35    30   ar
    54    41    36   ar
    55    52    45    1
    56    20    21    1
    57     8    11    1
    58    49    53    1
@<TRIPOS>MOLECULE
*****
 53 58 0 0 0
SMALL
GASTEIGER

@<TRIPOS>ATOM
      1 C           3.2591    0.9511   32.5687 C.ar    1  UNL1        0.1090
      2 C           4.4823    0.9137   33.4361 C.ar    1  UNL1        0.0405
      3 C           4.4747    1.5934   34.7731 C.ar    1  UNL1        0.1596
      4 F           5.6980    1.5560   35.6405 F       1  UNL1       -0.2025
      5 C           3.2439    2.3107   35.2429 C.ar    1  UNL1        0.1316
      6 N           2.0207    2.3481   34.3756 N.ar    1  UNL1       -0.2073
      7 C           2.0283    1.6683   33.0385 C.ar    1  UNL1        0.2341
      8 N           4.1612    0.7763   30.1386 N.am    1  UNL1       -0.3024
      9 C           3.2667    0.2714   31.2316 C.2     1  UNL1        0.2504
     10 O           2.3797   -0.9134   30.9875 O.2     1  UNL1       -0.2700
     11 H           4.7434    1.5539   30.2987 H       1  UNL1        0.1497
     12 C           4.1838   -1.2629   26.1272 C.3     1  UNL1        0.0720
     13 C           3.3395   -0.0421   26.3432 C.3     1  UNL1        0.0213
     14 C           3.3319    0.6376   27.6803 C.3     1  UNL1        0.0213
     15 C           4.1688    0.0966   28.8014 C.3     1  UNL1        0.0720
     16 C           5.0131   -1.1242   28.5854 C.3     1  UNL1        0.0213
     17 C           5.0206   -1.8039   27.2483 C.3     1  UNL1        0.0213
     18 C           5.1025   -1.4518   23.7043 C.2     1  UNL1        0.2653
     19 O           6.0062   -0.2812   23.9556 O.2     1  UNL1       -0.2684
     20 N           4.1914   -1.9426   24.7900 N.am    1  UNL1       -0.3012
     21 H           3.5983   -2.7109   24.6251 H       1  UNL1        0.1497
     22 C           3.8686   -4.6556   19.6925 C.3     1  UNL1        0.0518
     23 C           4.5429   -3.6042   20.5231 C.ar    1  UNL1        0.0577
     24 C           4.1780   -3.2213   21.9269 C.ar    1  UNL1        0.0398
     25 C           5.1101   -2.1316   22.3671 C.ar    1  UNL1        0.1551
     26 N           6.0509   -1.8410   21.2356 N.ar    1  UNL1       -0.1649
     27 N           5.7004   -2.7511   20.0960 N.ar    1  UNL1       -0.2527
     28 C           6.3868   -2.7996   18.7632 C.3     1  UNL1        0.1533
     29 O           0.8050    1.7058   32.1711 O.3     1  UNL1       -0.4360
     30 C           0.6991    2.7156   31.0670 C.ar    1  UNL1        0.1472
     31 C           0.5613    4.1730   31.3944 C.ar    1  UNL1        0.0376
     32 C           0.4554    5.1829   30.2903 C.ar    1  UNL1        0.0031
     33 C           0.4873    4.7354   28.8589 C.ar    1  UNL1        0.0002
     34 C           0.6252    3.2780   28.5317 C.ar    1  UNL1        0.0030
     35 C           0.7310    2.2682   29.6357 C.ar    1  UNL1        0.0376
     36 C           0.6571    2.8305   27.1003 C.ar    1  UNL1        0.0001
     37 C           1.5150    3.5561   26.1066 C.ar    1  UNL1       -0.0003
     38 C           1.5470    3.1086   24.6753 C.ar    1  UNL1       -0.0043
     39 C           0.7210    1.9355   24.2377 C.ar    1  UNL1       -0.0221
     40 C          -0.1370    1.2099   25.2314 C.ar    1  UNL1       -0.0043
     41 C          -0.1689    1.6574   26.6627 C.ar    1  UNL1       -0.0003
     42 C           0.7529    1.4880   22.8063 C.3     1  UNL1        0.0278
     43 C           1.8797    0.6289   22.3141 C.3     1  UNL1        0.0220
     44 C           3.2594    1.2030   22.1847 C.3     1  UNL1        0.0725
     45 N           4.0183    1.0495   20.9000 N.3     1  UNL1       -0.2704
     46 C           3.4031    0.3095   19.7494 C.3     1  UNL1        0.0880
     47 C           4.1620    0.1560   18.4647 C.3     1  UNL1        0.0702
     48 C           3.5467   -0.5840   17.3140 C.3     1  UNL1        0.0186
     49 N           5.5360    0.7423   18.3306 N.3     1  UNL1       -0.2974
     50 C           6.1513    1.4823   19.4812 C.3     1  UNL1        0.0702
     51 C           7.5254    2.0686   19.3471 C.3     1  UNL1        0.0186
     52 C           5.3925    1.6358   20.7660 C.3     1  UNL1        0.0880
     53 H           5.5032    1.3930   17.5458 H       1  UNL1        0.1232
@<TRIPOS>BOND
     1    22    23    1
     2    23    24   ar
     3    24    25   ar
     4    25    18    1
     5    18    19    2
     6    18    20   am
     7    12    20    1
     8    12    13    1
     9    13    14    1
    10    14    15    1
    11    15     8    1
    12     8     9   am
    13     9    10    2
    14     9     1    1
    15     1     2   ar
    16     2     3   ar
    17     3     4    1
    18     3     5   ar
    19     5     6   ar
    20     6     7   ar
    21     7    29    1
    22    29    30    1
    23    30    31   ar
    24    31    32   ar
    25    32    33   ar
    26    33    34   ar
    27    34    36    1
    28    36    37   ar
    29    37    38   ar
    30    38    39   ar
    31    39    42    1
    32    42    43    1
    33    43    44    1
    34    44    45    1
    35    45    46    1
    36    46    47    1
    37    47    48    1
    38    47    49    1
    39    49    50    1
    40    50    51    1
    41    50    52    1
    42    39    40   ar
    43    40    41   ar
    44    34    35   ar
    45    15    16    1
    46    16    17    1
    47    25    26   ar
    48    26    27   ar
    49    27    28    1
    50    27    23   ar
    51    17    12    1
    52     7     1   ar
    53    35    30   ar
    54    41    36   ar
    55    52    45    1
    56    20    21    1
    57     8    11    1
    58    49    53    1
@<TRIPOS>MOLECULE
*****
 53 58 0 0 0
SMALL
GASTEIGER

@<TRIPOS>ATOM
      1 C          -2.7497    3.5388   23.3021 C.ar    1  UNL1        0.1090
      2 C          -4.2444    3.5825   23.4202 C.ar    1  UNL1        0.0405
      3 C          -5.0828    3.8983   22.2172 C.ar    1  UNL1        0.1596
      4 F          -6.5776    3.9420   22.3353 F       1  UNL1       -0.2025
      5 C          -4.4266    4.1703   20.8961 C.ar    1  UNL1        0.1316
      6 N          -2.9319    4.1265   20.7780 N.ar    1  UNL1       -0.2073
      7 C          -2.0935    3.8108   21.9810 C.ar    1  UNL1        0.2341
      8 N          -0.7793    2.2450   24.3947 N.am    1  UNL1       -0.3024
      9 C          -1.9111    3.2231   24.5051 C.2     1  UNL1        0.2504
     10 O          -2.2045    3.8854   25.8186 O.2     1  UNL1       -0.2700
     11 H          -0.5867    1.8103   23.5326 H       1  UNL1        0.1497
     12 C           1.7362    1.2978   28.0037 C.3     1  UNL1        0.0720
     13 C           0.2796    0.9399   27.9899 C.3     1  UNL1        0.0213
     14 C          -0.5588    1.2556   26.7869 C.3     1  UNL1        0.0213
     15 C           0.0593    1.9293   25.5977 C.3     1  UNL1        0.0720
     16 C           1.5159    2.2872   25.6115 C.3     1  UNL1        0.0213
     17 C           2.3543    1.9715   26.8145 C.3     1  UNL1        0.0213
     18 C           3.2286   -0.3619   29.3334 C.2     1  UNL1        0.2653
     19 O           3.0439   -1.3903   28.2571 O.2     1  UNL1       -0.2684
     20 N           2.5748    0.9821   29.2067 N.am    1  UNL1       -0.3012
     21 H           2.6960    1.6570   29.9132 H       1  UNL1        0.1497
     22 C           4.7525   -1.1385   34.3290 C.3     1  UNL1        0.0518
     23 C           4.7676   -1.0346   32.8327 C.ar    1  UNL1        0.0577
     24 C           3.6055   -0.6547   31.9635 C.ar    1  UNL1        0.0398
     25 C           4.0671   -0.6777   30.5365 C.ar    1  UNL1        0.1551
     26 N           5.5143   -1.0718   30.5237 N.ar    1  UNL1       -0.1649
     27 N           5.9473   -1.2924   31.9428 N.ar    1  UNL1       -0.2527
     28 C           7.3190   -1.6993   32.3929 C.3     1  UNL1        0.1533
     29 O          -0.5987    3.7671   21.8629 O.3     1  UNL1       -0.4360
     30 C           0.0480    2.8590   20.8593 C.ar    1  UNL1        0.1472
     31 C          -0.1442    3.1047   19.3921 C.ar    1  UNL1        0.0376
     32 C           0.5026    2.1967   18.3885 C.ar    1  UNL1        0.0031
     33 C           1.3416    1.0429   18.8522 C.ar    1  UNL1        0.0002
     34 C           1.5338    0.7972   20.3194 C.ar    1  UNL1        0.0030
     35 C           0.8870    1.7053   21.3229 C.ar    1  UNL1        0.0376
     36 C           2.3728   -0.3565   20.7831 C.ar    1  UNL1        0.0001
     37 C           2.7926   -1.4176   19.8095 C.ar    1  UNL1       -0.0003
     38 C           3.6316   -2.5713   20.2731 C.ar    1  UNL1       -0.0043
     39 C           4.0508   -2.6640   21.7103 C.ar    1  UNL1       -0.0221
     40 C           3.6310   -1.6029   22.6839 C.ar    1  UNL1       -0.0043
     41 C           2.7920   -0.4492   22.2203 C.ar    1  UNL1       -0.0003
     42 C           4.8898   -3.8177   22.1740 C.3     1  UNL1        0.0278
     43 C           6.3127   -3.5905   22.5909 C.3     1  UNL1        0.0220
     44 C           6.8236   -4.1849   23.8698 C.3     1  UNL1        0.0725
     45 N           6.5976   -3.4730   25.1706 N.3     1  UNL1       -0.2704
     46 C           6.7280   -4.2181   26.4659 C.3     1  UNL1        0.0880
     47 C           6.5020   -3.5062   27.7667 C.3     1  UNL1        0.0702
     48 C           6.6324   -4.2513   29.0620 C.3     1  UNL1        0.0186
     49 N           6.1456   -2.0492   27.7722 N.3     1  UNL1       -0.2974
     50 C           6.0151   -1.3040   26.4769 C.3     1  UNL1        0.0702
     51 C           5.6587    0.1530   26.4824 C.3     1  UNL1        0.0186
     52 C           6.2411   -2.0159   25.1761 C.3     1  UNL1        0.0880
     53 H           6.8652   -1.5721   28.3152 H       1  UNL1        0.1232
@<TRIPOS>BOND
     1    22    23    1
     2    23    24   ar
     3    24    25   ar
     4    25    18    1
     5    18    19    2
     6    18    20   am
     7    12    20    1
     8    12    13    1
     9    13    14    1
    10    14    15    1
    11    15     8    1
    12     8     9   am
    13     9    10    2
    14     9     1    1
    15     1     2   ar
    16     2     3   ar
    17     3     4    1
    18     3     5   ar
    19     5     6   ar
    20     6     7   ar
    21     7    29    1
    22    29    30    1
    23    30    31   ar
    24    31    32   ar
    25    32    33   ar
    26    33    34   ar
    27    34    36    1
    28    36    37   ar
    29    37    38   ar
    30    38    39   ar
    31    39    42    1
    32    42    43    1
    33    43    44    1
    34    44    45    1
    35    45    46    1
    36    46    47    1
    37    47    48    1
    38    47    49    1
    39    49    50    1
    40    50    51    1
    41    50    52    1
    42    39    40   ar
    43    40    41   ar
    44    34    35   ar
    45    15    16    1
    46    16    17    1
    47    25    26   ar
    48    26    27   ar
    49    27    28    1
    50    27    23   ar
    51    17    12    1
    52     7     1   ar
    53    35    30   ar
    54    41    36   ar
    55    52    45    1
    56    20    21    1
    57     8    11    1
    58    49    53    1
@<TRIPOS>MOLECULE
*****
 53 58 0 0 0
SMALL
GASTEIGER

@<TRIPOS>ATOM
      1 C           7.1905   -4.0813   23.5227 C.ar    1  UNL1        0.1090
      2 C           7.5077   -5.1760   24.4979 C.ar    1  UNL1        0.0405
      3 C           8.2443   -6.3992   24.0386 C.ar    1  UNL1        0.1596
      4 F           8.5616   -7.4940   25.0137 F       1  UNL1       -0.2025
      5 C           8.6637   -6.5278   22.6042 C.ar    1  UNL1        0.1316
      6 N           8.3464   -5.4331   21.6290 N.ar    1  UNL1       -0.2073
      7 C           7.6098   -4.2098   22.0883 C.ar    1  UNL1        0.2341
      8 N           5.0091   -2.9552   24.3734 N.am    1  UNL1       -0.3024
      9 C           6.4538   -2.8579   23.9820 C.2     1  UNL1        0.2504
     10 O           7.1619   -1.5373   24.0499 O.2     1  UNL1       -0.2700
     11 H           4.5443   -3.8219   24.3289 H       1  UNL1        0.1497
     12 C           2.7992    0.7147   25.7511 C.3     1  UNL1        0.0720
     13 C           2.7825    0.3293   24.3016 C.3     1  UNL1        0.0213
     14 C           3.5192   -0.8940   23.8424 C.3     1  UNL1        0.0213
     15 C           4.2724   -1.7319   24.8327 C.3     1  UNL1        0.0720
     16 C           4.2890   -1.3464   26.2822 C.3     1  UNL1        0.0213
     17 C           3.5524   -0.1231   26.7414 C.3     1  UNL1        0.0213
     18 C           0.5742    2.0237   26.0446 C.2     1  UNL1        0.2653
     19 O          -0.1776    0.8861   25.4196 O.2     1  UNL1       -0.2684
     20 N           2.0625    1.9380   26.2104 N.am    1  UNL1       -0.3012
     21 H           2.5559    2.6847   26.6206 H       1  UNL1        0.1497
     22 C          -0.7956    6.3327   28.7718 C.3     1  UNL1        0.0518
     23 C          -0.7921    5.2277   27.7575 C.ar    1  UNL1        0.0577
     24 C           0.2200    4.1248   27.6585 C.ar    1  UNL1        0.0398
     25 C          -0.1625    3.2470   26.5039 C.ar    1  UNL1        0.1551
     26 N          -1.4108    3.8073   25.8892 N.ar    1  UNL1       -0.1649
     27 N          -1.7999    5.0313   26.6639 N.ar    1  UNL1       -0.2527
     28 C          -2.9882    5.9056   26.3927 C.3     1  UNL1        0.1533
     29 O           7.2925   -3.1150   21.1132 O.3     1  UNL1       -0.4360
     30 C           5.9317   -3.0398   20.4867 C.ar    1  UNL1        0.1472
     31 C           5.4513   -4.1512   19.6011 C.ar    1  UNL1        0.0376
     32 C           4.0904   -4.0760   18.9747 C.ar    1  UNL1        0.0031
     33 C           3.2100   -2.8895   19.2337 C.ar    1  UNL1        0.0002
     34 C           3.6905   -1.7782   20.1192 C.ar    1  UNL1        0.0030
     35 C           5.0513   -1.8533   20.7457 C.ar    1  UNL1        0.0376
     36 C           2.8101   -0.5916   20.3783 C.ar    1  UNL1        0.0001
     37 C           3.4204    0.7594   20.6069 C.ar    1  UNL1       -0.0003
     38 C           2.5401    1.9460   20.8659 C.ar    1  UNL1       -0.0043
     39 C           1.0495    1.7815   20.8964 C.ar    1  UNL1       -0.0221
     40 C           0.4392    0.4304   20.6678 C.ar    1  UNL1       -0.0043
     41 C           1.3195   -0.7561   20.4088 C.ar    1  UNL1       -0.0003
     42 C           0.1691    2.9680   21.1555 C.3     1  UNL1        0.0278
     43 C          -0.1936    3.8925   20.0312 C.3     1  UNL1        0.0220
     44 C          -1.4208    3.6291   19.2098 C.3     1  UNL1        0.0725
     45 N          -2.7698    3.6002   19.8649 N.3     1  UNL1       -0.2704
     46 C          -4.0122    3.6454   19.0257 C.3     1  UNL1        0.0880
     47 C          -5.3613    3.6165   19.6808 C.3     1  UNL1        0.0702
     48 C          -6.6037    3.6617   18.8415 C.3     1  UNL1        0.0186
     49 N          -5.4680    3.5425   21.1751 N.3     1  UNL1       -0.2974
     50 C          -4.2256    3.4974   22.0145 C.3     1  UNL1        0.0702
     51 C          -4.3323    3.4234   23.5088 C.3     1  UNL1        0.0186
     52 C          -2.8765    3.5262   21.3594 C.3     1  UNL1        0.0880
     53 H          -5.9999    2.6994   21.3910 H       1  UNL1        0.1232
@<TRIPOS>BOND
     1    22    23    1
     2    23    24   ar
     3    24    25   ar
     4    25    18    1
     5    18    19    2
     6    18    20   am
     7    12    20    1
     8    12    13    1
     9    13    14    1
    10    14    15    1
    11    15     8    1
    12     8     9   am
    13     9    10    2
    14     9     1    1
    15     1     2   ar
    16     2     3   ar
    17     3     4    1
    18     3     5   ar
    19     5     6   ar
    20     6     7   ar
    21     7    29    1
    22    29    30    1
    23    30    31   ar
    24    31    32   ar
    25    32    33   ar
    26    33    34   ar
    27    34    36    1
    28    36    37   ar
    29    37    38   ar
    30    38    39   ar
    31    39    42    1
    32    42    43    1
    33    43    44    1
    34    44    45    1
    35    45    46    1
    36    46    47    1
    37    47    48    1
    38    47    49    1
    39    49    50    1
    40    50    51    1
    41    50    52    1
    42    39    40   ar
    43    40    41   ar
    44    34    35   ar
    45    15    16    1
    46    16    17    1
    47    25    26   ar
    48    26    27   ar
    49    27    28    1
    50    27    23   ar
    51    17    12    1
    52     7     1   ar
    53    35    30   ar
    54    41    36   ar
    55    52    45    1
    56    20    21    1
    57     8    11    1
    58    49    53    1
@<TRIPOS>MOLECULE
*****
 53 58 0 0 0
SMALL
GASTEIGER

@<TRIPOS>ATOM
      1 C          -5.7729    4.8247   22.1949 C.ar    1  UNL1        0.1090
      2 C          -6.4202    5.8222   21.2806 C.ar    1  UNL1        0.0405
      3 C          -7.6380    6.5730   21.7315 C.ar    1  UNL1        0.1596
      4 F          -8.2853    7.5705   20.8172 F       1  UNL1       -0.2025
      5 C          -8.2085    6.3263   23.0966 C.ar    1  UNL1        0.1316
      6 N          -7.5612    5.3288   24.0110 N.ar    1  UNL1       -0.2073
      7 C          -6.3434    4.5780   23.5601 C.ar    1  UNL1        0.2341
      8 N          -3.2779    4.8114   21.4705 N.am    1  UNL1       -0.3024
      9 C          -4.5550    4.0739   21.7441 C.2     1  UNL1        0.2504
     10 O          -4.6144    2.5856   21.5669 O.2     1  UNL1       -0.2700
     11 H          -3.2389    5.7882   21.5868 H       1  UNL1        0.1497
     12 C           0.3755    2.5590   20.1180 C.3     1  UNL1        0.0720
     13 C          -0.5388    3.1823   19.1054 C.3     1  UNL1        0.0213
     14 C          -1.7566    3.9331   19.5562 C.3     1  UNL1        0.0213
     15 C          -2.0600    4.0606   21.0197 C.3     1  UNL1        0.0720
     16 C          -1.1457    3.4373   22.0323 C.3     1  UNL1        0.0213
     17 C           0.0721    2.6865   21.5814 C.3     1  UNL1        0.0213
     18 C           1.6371    0.3131   19.7797 C.2     1  UNL1        0.2653
     19 O           0.4630   -0.4313   20.3431 O.2     1  UNL1       -0.2684
     20 N           1.5934    1.8082   19.6671 N.am    1  UNL1       -0.3012
     21 H           2.3640    2.2967   19.2974 H       1  UNL1        0.1497
     22 C           5.1156   -3.5676   18.9303 C.3     1  UNL1        0.0518
     23 C           4.4538   -2.2215   18.9385 C.ar    1  UNL1        0.0577
     24 C           3.1255   -1.8958   19.5547 C.ar    1  UNL1        0.0398
     25 C           2.8549   -0.4377   19.3289 C.ar    1  UNL1        0.1551
     26 N           4.0159    0.1376   18.5732 N.ar    1  UNL1       -0.1649
     27 N           5.0041   -0.9648   18.3319 N.ar    1  UNL1       -0.2527
     28 C           6.3126   -0.8335   17.6107 C.3     1  UNL1        0.1533
     29 O          -5.6960    3.5805   24.4744 O.3     1  UNL1       -0.4360
     30 C          -4.5196    3.9845   25.3127 C.ar    1  UNL1        0.1472
     31 C          -4.7014    4.9546   26.4424 C.ar    1  UNL1        0.0376
     32 C          -3.5250    5.3587   27.2807 C.ar    1  UNL1        0.0031
     33 C          -2.1667    4.7926   26.9893 C.ar    1  UNL1        0.0002
     34 C          -1.9849    3.8227   25.8597 C.ar    1  UNL1        0.0030
     35 C          -3.1614    3.4186   25.0214 C.ar    1  UNL1        0.0376
     36 C          -0.6267    3.2566   25.5684 C.ar    1  UNL1        0.0001
     37 C          -0.4703    1.7931   25.2793 C.ar    1  UNL1       -0.0003
     38 C           0.8879    1.2271   24.9880 C.ar    1  UNL1       -0.0043
     39 C           2.0897    2.1246   24.9857 C.ar    1  UNL1       -0.0221
     40 C           1.9333    3.5882   25.2748 C.ar    1  UNL1       -0.0043
     41 C           0.5752    4.1542   25.5662 C.ar    1  UNL1       -0.0003
     42 C           3.4480    1.5586   24.6944 C.3     1  UNL1        0.0278
     43 C           4.0789    0.5919   25.6523 C.3     1  UNL1        0.0220
     44 C           4.3066    0.9914   27.0800 C.3     1  UNL1        0.0725
     45 N           3.4282    0.4384   28.1628 N.3     1  UNL1       -0.2704
     46 C           1.9457    0.3483   27.9532 C.3     1  UNL1        0.0880
     47 C           1.0673   -0.2048   29.0360 C.3     1  UNL1        0.0702
     48 C          -0.4153   -0.2948   28.8263 C.3     1  UNL1        0.0186
     49 N           1.6714   -0.6677   30.3285 N.3     1  UNL1       -0.2974
     50 C           3.1540   -0.5777   30.5383 C.3     1  UNL1        0.0702
     51 C           3.7581   -1.0406   31.8308 C.3     1  UNL1        0.0186
     52 C           4.0324   -0.0246   29.4554 C.3     1  UNL1        0.0880
     53 H           1.4178   -1.6497   30.4370 H       1  UNL1        0.1232
@<TRIPOS>BOND
     1    22    23    1
     2    23    24   ar
     3    24    25   ar
     4    25    18    1
     5    18    19    2
     6    18    20   am
     7    12    20    1
     8    12    13    1
     9    13    14    1
    10    14    15    1
    11    15     8    1
    12     8     9   am
    13     9    10    2
    14     9     1    1
    15     1     2   ar
    16     2     3   ar
    17     3     4    1
    18     3     5   ar
    19     5     6   ar
    20     6     7   ar
    21     7    29    1
    22    29    30    1
    23    30    31   ar
    24    31    32   ar
    25    32    33   ar
    26    33    34   ar
    27    34    36    1
    28    36    37   ar
    29    37    38   ar
    30    38    39   ar
    31    39    42    1
    32    42    43    1
    33    43    44    1
    34    44    45    1
    35    45    46    1
    36    46    47    1
    37    47    48    1
    38    47    49    1
    39    49    50    1
    40    50    51    1
    41    50    52    1
    42    39    40   ar
    43    40    41   ar
    44    34    35   ar
    45    15    16    1
    46    16    17    1
    47    25    26   ar
    48    26    27   ar
    49    27    28    1
    50    27    23   ar
    51    17    12    1
    52     7     1   ar
    53    35    30   ar
    54    41    36   ar
    55    52    45    1
    56    20    21    1
    57     8    11    1
    58    49    53    1
@<TRIPOS>MOLECULE
*****
 53 58 0 0 0
SMALL
GASTEIGER

@<TRIPOS>ATOM
      1 C          -2.9936    3.3468   24.1648 C.ar    1  UNL1        0.1090
      2 C          -4.4892    3.4566   24.1978 C.ar    1  UNL1        0.0405
      3 C          -5.2538    3.6693   22.9250 C.ar    1  UNL1        0.1596
      4 F          -6.7494    3.7791   22.9579 F       1  UNL1       -0.2025
      5 C          -4.5228    3.7723   21.6192 C.ar    1  UNL1        0.1316
      6 N          -3.0272    3.6626   21.5863 N.ar    1  UNL1       -0.2073
      7 C          -2.2626    3.4499   22.8591 C.ar    1  UNL1        0.2341
      8 N          -1.1512    2.0926   25.5000 N.am    1  UNL1       -0.3024
      9 C          -2.2289    3.1341   25.4377 C.2     1  UNL1        0.2504
     10 O          -2.5420    3.9628   26.6481 O.2     1  UNL1       -0.2700
     11 H          -0.9458    1.5487   24.7056 H       1  UNL1        0.1497
     12 C           1.1427    1.4543   29.3185 C.3     1  UNL1        0.0720
     13 C          -0.1659    0.7533   29.1036 C.3     1  UNL1        0.0213
     14 C          -0.9305    0.9661   27.8308 C.3     1  UNL1        0.0213
     15 C          -0.3865    1.8799   26.7729 C.3     1  UNL1        0.0720
     16 C           0.9220    2.5809   26.9878 C.3     1  UNL1        0.0213
     17 C           1.6866    2.3681   28.2606 C.3     1  UNL1        0.0213
     18 C           1.5233    1.9929   31.8315 C.2     1  UNL1        0.2653
     19 O           0.3746    2.9570   31.7989 O.2     1  UNL1       -0.2684
     20 N           1.9073    1.2416   30.5913 N.am    1  UNL1       -0.3012
     21 H           2.6612    0.6088   30.6128 H       1  UNL1        0.1497
     22 C           5.0419    0.1985   35.3359 C.3     1  UNL1        0.0518
     23 C           3.9053    0.9553   34.7151 C.ar    1  UNL1        0.0577
     24 C           3.4504    0.8503   33.2896 C.ar    1  UNL1        0.0398
     25 C           2.2880    1.7801   33.1043 C.ar    1  UNL1        0.1551
     26 N           2.0246    2.4598   34.4153 N.ar    1  UNL1       -0.1649
     27 N           3.0241    1.9501   35.4108 N.ar    1  UNL1       -0.2527
     28 C           3.1248    2.3626   36.8494 C.3     1  UNL1        0.1533
     29 O          -0.7669    3.3401   22.8261 O.3     1  UNL1       -0.4360
     30 C          -0.0923    2.6233   21.6943 C.ar    1  UNL1        0.1472
     31 C          -0.3227    3.0691   20.2807 C.ar    1  UNL1        0.0376
     32 C           0.3520    2.3524   19.1488 C.ar    1  UNL1        0.0031
     33 C           1.2571    1.1898   19.4306 C.ar    1  UNL1        0.0002
     34 C           1.4874    0.7441   20.8442 C.ar    1  UNL1        0.0030
     35 C           0.8128    1.4608   21.9760 C.ar    1  UNL1        0.0376
     36 C           2.3925   -0.4185   21.1259 C.ar    1  UNL1        0.0001
     37 C           2.9324   -0.6306   22.5092 C.ar    1  UNL1       -0.0003
     38 C           3.8375   -1.7931   22.7911 C.ar    1  UNL1       -0.0043
     39 C           4.2026   -2.7435   21.6896 C.ar    1  UNL1       -0.0221
     40 C           3.6627   -2.5314   20.3063 C.ar    1  UNL1       -0.0043
     41 C           2.7577   -1.3689   20.0244 C.ar    1  UNL1       -0.0003
     42 C           5.1077   -3.9061   21.9713 C.3     1  UNL1        0.0278
     43 C           6.5959   -3.7185   21.9575 C.3     1  UNL1        0.0220
     44 C           7.2803   -3.0649   23.1212 C.3     1  UNL1        0.0725
     45 N           6.9361   -3.4770   24.5218 N.3     1  UNL1       -0.2704
     46 C           7.1980   -4.8823   24.9759 C.3     1  UNL1        0.0880
     47 C           6.8538   -5.2944   26.3766 C.3     1  UNL1        0.0702
     48 C           7.1158   -6.6999   26.8306 C.3     1  UNL1        0.0186
     49 N           6.2477   -4.3011   27.3231 N.3     1  UNL1       -0.2974
     50 C           5.9858   -2.8956   26.8690 C.3     1  UNL1        0.0702
     51 C           5.3797   -1.9023   27.8155 C.3     1  UNL1        0.0186
     52 C           6.3300   -2.4836   25.4684 C.3     1  UNL1        0.0880
     53 H           6.8740   -4.2393   28.1258 H       1  UNL1        0.1232
@<TRIPOS>BOND
     1    22    23    1
     2    23    24   ar
     3    24    25   ar
     4    25    18    1
     5    18    19    2
     6    18    20   am
     7    12    20    1
     8    12    13    1
     9    13    14    1
    10    14    15    1
    11    15     8    1
    12     8     9   am
    13     9    10    2
    14     9     1    1
    15     1     2   ar
    16     2     3   ar
    17     3     4    1
    18     3     5   ar
    19     5     6   ar
    20     6     7   ar
    21     7    29    1
    22    29    30    1
    23    30    31   ar
    24    31    32   ar
    25    32    33   ar
    26    33    34   ar
    27    34    36    1
    28    36    37   ar
    29    37    38   ar
    30    38    39   ar
    31    39    42    1
    32    42    43    1
    33    43    44    1
    34    44    45    1
    35    45    46    1
    36    46    47    1
    37    47    48    1
    38    47    49    1
    39    49    50    1
    40    50    51    1
    41    50    52    1
    42    39    40   ar
    43    40    41   ar
    44    34    35   ar
    45    15    16    1
    46    16    17    1
    47    25    26   ar
    48    26    27   ar
    49    27    28    1
    50    27    23   ar
    51    17    12    1
    52     7     1   ar
    53    35    30   ar
    54    41    36   ar
    55    52    45    1
    56    20    21    1
    57     8    11    1
    58    49    53    1
@<TRIPOS>MOLECULE
*****
 53 58 0 0 0
SMALL
GASTEIGER

@<TRIPOS>ATOM
      1 C          -2.5894    3.3730   23.8052 C.ar    1  UNL1        0.1090
      2 C          -4.0831    3.4084   23.9374 C.ar    1  UNL1        0.0405
      3 C          -4.9423    3.5083   22.7120 C.ar    1  UNL1        0.1596
      4 F          -6.4361    3.5437   22.8442 F       1  UNL1       -0.2025
      5 C          -4.3078    3.5728   21.3543 C.ar    1  UNL1        0.1316
      6 N          -2.8141    3.5374   21.2221 N.ar    1  UNL1       -0.2073
      7 C          -1.9549    3.4375   22.4475 C.ar    1  UNL1        0.2341
      8 N          -0.9308    2.0299   25.2869 N.am    1  UNL1       -0.3024
      9 C          -1.7301    3.2731   25.0306 C.2     1  UNL1        0.2504
     10 O          -1.6700    4.4164   25.9997 O.2     1  UNL1       -0.2700
     11 H          -0.9703    1.2795   24.6508 H       1  UNL1        0.1497
     12 C           1.6471    1.7303   28.9631 C.3     1  UNL1        0.0720
     13 C           2.1973    2.3423   27.7091 C.3     1  UNL1        0.0213
     14 C           1.3380    2.4422   26.4837 C.3     1  UNL1        0.0213
     15 C          -0.0715    1.9300   26.5124 C.3     1  UNL1        0.0720
     16 C          -0.6218    1.3180   27.7664 C.3     1  UNL1        0.0213
     17 C           0.2375    1.2181   28.9917 C.3     1  UNL1        0.0213
     18 C           3.2635    0.3671   30.4727 C.2     1  UNL1        0.2653
     19 O           3.1613   -0.7964   29.5315 O.2     1  UNL1       -0.2684
     20 N           2.5064    1.6304   30.1885 N.am    1  UNL1       -0.3012
     21 H           2.5735    2.3940   30.8063 H       1  UNL1        0.1497
     22 C           4.8419   -0.4317   35.4479 C.3     1  UNL1        0.0518
     23 C           4.8483   -0.1000   33.9850 C.ar    1  UNL1        0.0577
     24 C           3.6622   -0.1369   33.0674 C.ar    1  UNL1        0.0398
     25 C           4.1228    0.2672   31.6982 C.ar    1  UNL1        0.1551
     26 N           5.5934    0.5537   31.7696 N.ar    1  UNL1       -0.1649
     27 N           6.0418    0.3268   33.1829 N.ar    1  UNL1       -0.2527
     28 C           7.4384    0.4969   33.7028 C.3     1  UNL1        0.1533
     29 O          -0.4611    3.4021   22.3153 O.3     1  UNL1       -0.4360
     30 C           0.2206    2.1519   21.8436 C.ar    1  UNL1        0.1472
     31 C          -0.0939    1.5919   20.4880 C.ar    1  UNL1        0.0376
     32 C           0.5878    0.3418   20.0164 C.ar    1  UNL1        0.0031
     33 C           1.5841   -0.3483   20.9004 C.ar    1  UNL1        0.0002
     34 C           1.8986    0.2117   22.2559 C.ar    1  UNL1        0.0030
     35 C           1.2169    1.4618   22.7275 C.ar    1  UNL1        0.0376
     36 C           2.8949   -0.4784   23.1398 C.ar    1  UNL1        0.0001
     37 C           3.0448   -0.0578   24.5718 C.ar    1  UNL1       -0.0003
     38 C           4.0410   -0.7479   25.4557 C.ar    1  UNL1       -0.0043
     39 C           4.8873   -1.8584   24.9077 C.ar    1  UNL1       -0.0221
     40 C           4.7374   -2.2789   23.4756 C.ar    1  UNL1       -0.0043
     41 C           3.7412   -1.5889   22.5917 C.ar    1  UNL1       -0.0003
     42 C           5.8836   -2.5485   25.7916 C.3     1  UNL1        0.0278
     43 C           7.2678   -1.9901   25.9401 C.3     1  UNL1        0.0220
     44 C           7.8829   -1.8625   27.3022 C.3     1  UNL1        0.0725
     45 N           7.5897   -2.8882   28.3567 N.3     1  UNL1       -0.2704
     46 C           6.9171   -2.4798   29.6337 C.3     1  UNL1        0.0880
     47 C           6.6238   -3.5055   30.6882 C.3     1  UNL1        0.0702
     48 C           5.9512   -3.0971   31.9653 C.3     1  UNL1        0.0186
     49 N           7.0032   -4.9395   30.4657 N.3     1  UNL1       -0.2974
     50 C           7.6758   -5.3480   29.1886 C.3     1  UNL1        0.0702
     51 C           8.0551   -6.7820   28.9661 C.3     1  UNL1        0.0186
     52 C           7.9690   -4.3223   28.1341 C.3     1  UNL1        0.0880
     53 H           6.1441   -5.4853   30.5336 H       1  UNL1        0.1232
@<TRIPOS>BOND
     1    22    23    1
     2    23    24   ar
     3    24    25   ar
     4    25    18    1
     5    18    19    2
     6    18    20   am
     7    12    20    1
     8    12    13    1
     9    13    14    1
    10    14    15    1
    11    15     8    1
    12     8     9   am
    13     9    10    2
    14     9     1    1
    15     1     2   ar
    16     2     3   ar
    17     3     4    1
    18     3     5   ar
    19     5     6   ar
    20     6     7   ar
    21     7    29    1
    22    29    30    1
    23    30    31   ar
    24    31    32   ar
    25    32    33   ar
    26    33    34   ar
    27    34    36    1
    28    36    37   ar
    29    37    38   ar
    30    38    39   ar
    31    39    42    1
    32    42    43    1
    33    43    44    1
    34    44    45    1
    35    45    46    1
    36    46    47    1
    37    47    48    1
    38    47    49    1
    39    49    50    1
    40    50    51    1
    41    50    52    1
    42    39    40   ar
    43    40    41   ar
    44    34    35   ar
    45    15    16    1
    46    16    17    1
    47    25    26   ar
    48    26    27   ar
    49    27    28    1
    50    27    23   ar
    51    17    12    1
    52     7     1   ar
    53    35    30   ar
    54    41    36   ar
    55    52    45    1
    56    20    21    1
    57     8    11    1
    58    49    53    1
