@<TRIPOS>MOLECULE
*****
 26 28 0 0 0
SMALL
GASTEIGER

@<TRIPOS>ATOM
      1 C          -6.5541  -15.6391   24.6496 C.ar    1  UNL1        0.1384
      2 C          -7.9344  -15.5996   24.0639 C.ar    1  UNL1        0.0369
      3 C          -8.3111  -16.5505   22.9666 C.ar    1  UNL1        0.0025
      4 C          -7.3074  -17.5408   22.4550 C.ar    1  UNL1       -0.0077
      5 C          -5.9271  -17.5803   23.0407 C.ar    1  UNL1       -0.0154
      6 C          -5.5504  -16.6295   24.1380 C.ar    1  UNL1        0.0329
      7 C          -5.1561  -18.6585   22.3383 C.3     1  UNL1        0.0481
      8 C          -6.0600  -19.2853   21.3185 C.2     1  UNL1       -0.0421
      9 C          -7.3896  -18.5945   21.3906 C.2     1  UNL1       -0.0245
     10 C          -6.5208  -15.0122   27.1706 C.3     1  UNL1        0.2525
     11 O          -6.1775  -14.6883   25.7469 O.3     1  UNL1       -0.4714
     12 C          -8.5905  -18.9033   20.5466 C.3     1  UNL1        0.0666
     13 C          -8.4406  -19.7263   19.3015 C.3     1  UNL1        0.0112
     14 C          -9.9413  -18.3890   20.9475 C.ar    1  UNL1        0.1156
     15 N         -10.5254  -17.1945   20.2533 N.ar    1  UNL1       -0.2415
     16 C         -11.8763  -16.6801   20.6541 C.ar    1  UNL1        0.1193
     17 C         -12.6431  -17.3604   21.7492 C.ar    1  UNL1        0.1227
     18 N         -12.0590  -18.5549   22.4435 N.ar    1  UNL1       -0.2075
     19 C         -10.7081  -19.0693   22.0426 C.ar    1  UNL1        0.2393
     20 O         -10.1241  -20.2638   22.7369 O.3     1  UNL1       -0.4553
     21 C          -9.6161  -20.1401   24.1428 C.3     1  UNL1        0.2543
     22 C          -5.6980  -20.4061   20.3896 C.3     1  UNL1        0.0394
     23 C          -4.2565  -20.7135   20.1112 C.3     1  UNL1        0.0765
     24 N          -3.2458  -19.6056   20.0799 N.3     1  UNL1       -0.2700
     25 C          -3.3873  -18.4891   19.0882 C.3     1  UNL1        0.0897
     26 C          -2.0936  -19.6141   21.0403 C.3     1  UNL1        0.0897
@<TRIPOS>BOND
     1    10    11    1
     2    11     1    1
     3     1     2   ar
     4     2     3   ar
     5     3     4   ar
     6     4     5   ar
     7     5     6   ar
     8     5     7    1
     9     7     8    1
    10     8    22    1
    11    22    23    1
    12    23    24    1
    13    24    25    1
    14    24    26    1
    15     8     9    2
    16     9    12    1
    17    12    13    1
    18    12    14    1
    19    14    15   ar
    20    15    16   ar
    21    16    17   ar
    22    17    18   ar
    23    18    19   ar
    24    19    20    1
    25    20    21    1
    26     6     1   ar
    27    19    14   ar
    28     9     4    1
@<TRIPOS>MOLECULE
*****
 26 28 0 0 0
SMALL
GASTEIGER

@<TRIPOS>ATOM
      1 C         -17.2374   -7.8360   18.9005 C.ar    1  UNL1        0.1384
      2 C         -17.5301   -6.4385   19.3601 C.ar    1  UNL1        0.0369
      3 C         -16.4072   -5.4644   19.5612 C.ar    1  UNL1        0.0025
      4 C         -14.9917   -5.8879   19.3027 C.ar    1  UNL1       -0.0077
      5 C         -14.6990   -7.2854   18.8431 C.ar    1  UNL1       -0.0154
      6 C         -15.8218   -8.2594   18.6420 C.ar    1  UNL1        0.0329
      7 C         -13.2146   -7.4150   18.6696 C.3     1  UNL1        0.0481
      8 C         -12.5900   -6.0975   19.0219 C.2     1  UNL1       -0.0421
      9 C         -13.6883   -5.1537   19.4132 C.2     1  UNL1       -0.0245
     10 C         -18.0613  -10.2356   18.3412 C.3     1  UNL1        0.2525
     11 O         -18.3602   -8.8100   18.6994 O.3     1  UNL1       -0.4714
     12 C         -13.5139   -3.7264   19.8400 C.3     1  UNL1        0.0666
     13 C         -13.8324   -3.3205   21.2485 C.3     1  UNL1        0.0112
     14 C         -13.0209   -2.7049   18.8585 C.ar    1  UNL1        0.1156
     15 N         -11.6018   -2.2236   18.9259 N.ar    1  UNL1       -0.2415
     16 C         -11.1087   -1.2021   17.9443 C.ar    1  UNL1        0.1193
     17 C         -12.0348   -0.6618   16.8954 C.ar    1  UNL1        0.1227
     18 N         -13.4540   -1.1429   16.8280 N.ar    1  UNL1       -0.2075
     19 C         -13.9470   -2.1645   17.8095 C.ar    1  UNL1        0.2393
     20 O         -15.3662   -2.6456   17.7421 O.3     1  UNL1       -0.4553
     21 C         -15.8531   -3.3772   16.5265 C.3     1  UNL1        0.2543
     22 C         -11.1244   -5.7796   18.9888 C.3     1  UNL1        0.0394
     23 C         -10.3600   -5.8990   17.7037 C.3     1  UNL1        0.0765
     24 N         -10.3724   -4.7703   16.7160 N.3     1  UNL1       -0.2700
     25 C         -11.6354   -4.4298   15.9820 C.3     1  UNL1        0.0897
     26 C          -9.1217   -3.9820   16.4622 C.3     1  UNL1        0.0897
@<TRIPOS>BOND
     1    10    11    1
     2    11     1    1
     3     1     2   ar
     4     2     3   ar
     5     3     4   ar
     6     4     5   ar
     7     5     6   ar
     8     5     7    1
     9     7     8    1
    10     8    22    1
    11    22    23    1
    12    23    24    1
    13    24    25    1
    14    24    26    1
    15     8     9    2
    16     9    12    1
    17    12    13    1
    18    12    14    1
    19    14    15   ar
    20    15    16   ar
    21    16    17   ar
    22    17    18   ar
    23    18    19   ar
    24    19    20    1
    25    20    21    1
    26     6     1   ar
    27    19    14   ar
    28     9     4    1
@<TRIPOS>MOLECULE
*****
 26 28 0 0 0
SMALL
GASTEIGER

@<TRIPOS>ATOM
      1 C           1.0625    1.1370   19.0706 C.ar    1  UNL1        0.1384
      2 C           0.7972    0.0960   20.1174 C.ar    1  UNL1        0.0369
      3 C           1.7607   -1.0375   20.3092 C.ar    1  UNL1        0.0025
      4 C           2.9896   -1.1300   19.4541 C.ar    1  UNL1       -0.0077
      5 C           3.2550   -0.0890   18.4073 C.ar    1  UNL1       -0.0154
      6 C           2.2914    1.0445   18.2156 C.ar    1  UNL1        0.0329
      7 C           4.5409   -0.4404   17.7195 C.3     1  UNL1        0.0481
      8 C           5.0702   -1.6987   18.3413 C.2     1  UNL1       -0.0421
      9 C           4.1115   -2.1248   19.4133 C.2     1  UNL1       -0.0245
     10 C          -0.6017    2.8677   20.0631 C.3     1  UNL1        0.2525
     11 O           0.0990    2.2705   18.8789 O.3     1  UNL1       -0.4714
     12 C           4.2503   -3.3336   20.2905 C.3     1  UNL1        0.0666
     13 C           3.8041   -4.6766   19.7931 C.3     1  UNL1        0.0112
     14 C           4.8352   -3.1996   21.6652 C.ar    1  UNL1        0.1156
     15 N           4.1006   -2.4276   22.7209 N.ar    1  UNL1       -0.2415
     16 C           4.6854   -2.2935   24.0956 C.ar    1  UNL1        0.1193
     17 C           6.0050   -2.9314   24.4148 C.ar    1  UNL1        0.1227
     18 N           6.7397   -3.7033   23.3592 N.ar    1  UNL1       -0.2075
     19 C           6.1548   -3.8374   21.9843 C.ar    1  UNL1        0.2393
     20 O           6.8895   -4.6094   20.9287 O.3     1  UNL1       -0.4553
     21 C           8.3734   -4.8008   21.0357 C.3     1  UNL1        0.2543
     22 C           6.3361   -2.4065   17.9583 C.3     1  UNL1        0.0394
     23 C           7.6174   -2.0901   18.6710 C.3     1  UNL1        0.0765
     24 N           7.7946   -0.7593   19.3400 N.3     1  UNL1       -0.2700
     25 C           7.6248   -0.6380   20.8254 C.3     1  UNL1        0.0897
     26 C           8.1417    0.4502   18.5235 C.3     1  UNL1        0.0897
@<TRIPOS>BOND
     1    10    11    1
     2    11     1    1
     3     1     2   ar
     4     2     3   ar
     5     3     4   ar
     6     4     5   ar
     7     5     6   ar
     8     5     7    1
     9     7     8    1
    10     8    22    1
    11    22    23    1
    12    23    24    1
    13    24    25    1
    14    24    26    1
    15     8     9    2
    16     9    12    1
    17    12    13    1
    18    12    14    1
    19    14    15   ar
    20    15    16   ar
    21    16    17   ar
    22    17    18   ar
    23    18    19   ar
    24    19    20    1
    25    20    21    1
    26     6     1   ar
    27    19    14   ar
    28     9     4    1
@<TRIPOS>MOLECULE
*****
 26 28 0 0 0
SMALL
GASTEIGER

@<TRIPOS>ATOM
      1 C           3.9615   -1.3031   25.3401 C.ar    1  UNL1        0.1384
      2 C           4.7923   -2.4084   24.7587 C.ar    1  UNL1        0.0369
      3 C           4.7448   -2.6871   23.2856 C.ar    1  UNL1        0.0025
      4 C           3.8665   -1.8604   22.3938 C.ar    1  UNL1       -0.0077
      5 C           3.0358   -0.7550   22.9752 C.ar    1  UNL1       -0.0154
      6 C           3.0833   -0.4764   24.4483 C.ar    1  UNL1        0.0329
      7 C           2.2708   -0.1124   21.8563 C.3     1  UNL1        0.0481
      8 C           2.6287   -0.8207   20.5834 C.2     1  UNL1       -0.0421
      9 C           3.6149   -1.9010   20.9156 C.2     1  UNL1       -0.0245
     10 C           4.9504   -1.7935   27.6920 C.3     1  UNL1        0.2525
     11 O           4.0091   -1.0244   26.8132 O.3     1  UNL1       -0.4714
     12 C           4.2398   -2.8545   19.9408 C.3     1  UNL1        0.0666
     13 C           3.4056   -3.9208   19.2950 C.3     1  UNL1        0.0112
     14 C           5.6989   -2.7417   19.6117 C.ar    1  UNL1        0.1156
     15 N           6.7267   -3.2652   20.5707 N.ar    1  UNL1       -0.2415
     16 C           8.1858   -3.1524   20.2417 C.ar    1  UNL1        0.1193
     17 C           8.6172   -2.5162   18.9537 C.ar    1  UNL1        0.1227
     18 N           7.5895   -1.9927   17.9946 N.ar    1  UNL1       -0.2075
     19 C           6.1303   -2.1055   18.3237 C.ar    1  UNL1        0.2393
     20 O           5.1026   -1.5820   17.3646 O.3     1  UNL1       -0.4553
     21 C           5.0598   -0.1191   17.0358 C.3     1  UNL1        0.2543
     22 C           2.0942   -0.5043   19.2180 C.3     1  UNL1        0.0394
     23 C           0.9912    0.4997   19.0585 C.3     1  UNL1        0.0765
     24 N           1.3046    1.8902   18.5911 N.3     1  UNL1       -0.2700
     25 C           2.7250    2.3716   18.5685 C.3     1  UNL1        0.0897
     26 C           0.1974    2.7992   18.1463 C.3     1  UNL1        0.0897
@<TRIPOS>BOND
     1    10    11    1
     2    11     1    1
     3     1     2   ar
     4     2     3   ar
     5     3     4   ar
     6     4     5   ar
     7     5     6   ar
     8     5     7    1
     9     7     8    1
    10     8    22    1
    11    22    23    1
    12    23    24    1
    13    24    25    1
    14    24    26    1
    15     8     9    2
    16     9    12    1
    17    12    13    1
    18    12    14    1
    19    14    15   ar
    20    15    16   ar
    21    16    17   ar
    22    17    18   ar
    23    18    19   ar
    24    19    20    1
    25    20    21    1
    26     6     1   ar
    27    19    14   ar
    28     9     4    1
@<TRIPOS>MOLECULE
*****
 26 28 0 0 0
SMALL
GASTEIGER

@<TRIPOS>ATOM
      1 C           0.7916    1.3957   19.7845 C.ar    1  UNL1        0.1384
      2 C           1.2873    0.6012   18.6127 C.ar    1  UNL1        0.0369
      3 C           2.2253   -0.5491   18.8294 C.ar    1  UNL1        0.0025
      4 C           2.6677   -0.9048   20.2178 C.ar    1  UNL1       -0.0077
      5 C           2.1720   -0.1103   21.3896 C.ar    1  UNL1       -0.0154
      6 C           1.2339    1.0399   21.1729 C.ar    1  UNL1        0.0329
      7 C           2.7768   -0.6917   22.6331 C.3     1  UNL1        0.0481
      8 C           3.6463   -1.8455   22.2298 C.2     1  UNL1       -0.0421
      9 C           3.5788   -1.9772   20.7371 C.2     1  UNL1       -0.0245
     10 C          -0.1680    3.2578   18.2477 C.3     1  UNL1        0.2525
     11 O          -0.1465    2.5459   19.5678 O.3     1  UNL1       -0.4714
     12 C           4.2966   -3.0015   19.9091 C.3     1  UNL1        0.0666
     13 C           3.5364   -4.1463   19.3077 C.3     1  UNL1        0.0112
     14 C           5.7744   -2.8812   19.6824 C.ar    1  UNL1        0.1156
     15 N           6.7356   -3.4535   20.6818 N.ar    1  UNL1       -0.2415
     16 C           8.2134   -3.3332   20.4552 C.ar    1  UNL1        0.1193
     17 C           8.7303   -2.6405   19.2292 C.ar    1  UNL1        0.1227
     18 N           7.7692   -2.0681   18.2298 N.ar    1  UNL1       -0.2075
     19 C           6.2912   -2.1884   18.4565 C.ar    1  UNL1        0.2393
     20 O           5.3302   -1.6160   17.4571 O.3     1  UNL1       -0.4553
     21 C           5.3907   -0.1585   17.1080 C.3     1  UNL1        0.2543
     22 C           4.4433   -2.7151   23.1566 C.3     1  UNL1        0.0394
     23 C           5.5123   -2.1109   24.0181 C.3     1  UNL1        0.0765
     24 N           6.7691   -2.8784   24.3027 N.3     1  UNL1       -0.2700
     25 C           8.1065   -2.2375   24.0779 C.3     1  UNL1        0.0897
     26 C           6.6886   -4.2869   24.8123 C.3     1  UNL1        0.0897
@<TRIPOS>BOND
     1    10    11    1
     2    11     1    1
     3     1     2   ar
     4     2     3   ar
     5     3     4   ar
     6     4     5   ar
     7     5     6   ar
     8     5     7    1
     9     7     8    1
    10     8    22    1
    11    22    23    1
    12    23    24    1
    13    24    25    1
    14    24    26    1
    15     8     9    2
    16     9    12    1
    17    12    13    1
    18    12    14    1
    19    14    15   ar
    20    15    16   ar
    21    16    17   ar
    22    17    18   ar
    23    18    19   ar
    24    19    20    1
    25    20    21    1
    26     6     1   ar
    27    19    14   ar
    28     9     4    1
@<TRIPOS>MOLECULE
*****
 26 28 0 0 0
SMALL
GASTEIGER

@<TRIPOS>ATOM
      1 C         -11.8980  -17.9436   22.9539 C.ar    1  UNL1        0.1384
      2 C         -11.4068  -19.2859   22.4989 C.ar    1  UNL1        0.0369
      3 C          -9.9339  -19.5495   22.3943 C.ar    1  UNL1        0.0025
      4 C          -8.9521  -18.4710   22.7446 C.ar    1  UNL1       -0.0077
      5 C          -9.4433  -17.1287   23.1995 C.ar    1  UNL1       -0.0154
      6 C         -10.9162  -16.8650   23.3041 C.ar    1  UNL1        0.0329
      7 C          -8.2472  -16.2664   23.4750 C.3     1  UNL1        0.0481
      8 C          -7.0168  -17.0758   23.1903 C.2     1  UNL1       -0.0421
      9 C          -7.4525  -18.4383   22.7389 C.2     1  UNL1       -0.0245
     10 C         -14.1345  -18.1552   24.2589 C.3     1  UNL1        0.2525
     11 O         -13.3709  -17.6799   23.0585 O.3     1  UNL1       -0.4714
     12 C          -6.5475  -19.5695   22.3501 C.3     1  UNL1        0.0666
     13 C          -6.8681  -20.9694   22.7831 C.3     1  UNL1        0.0112
     14 C          -5.3218  -19.3009   21.5281 C.ar    1  UNL1        0.1156
     15 N          -3.9602  -19.5175   22.1191 N.ar    1  UNL1       -0.2415
     16 C          -2.7345  -19.2490   21.2972 C.ar    1  UNL1        0.1193
     17 C          -2.8703  -18.7638   19.8844 C.ar    1  UNL1        0.1227
     18 N          -4.2318  -18.5472   19.2934 N.ar    1  UNL1       -0.2075
     19 C          -5.4576  -18.8158   20.1153 C.ar    1  UNL1        0.2393
     20 O          -6.8192  -18.5992   19.5243 O.3     1  UNL1       -0.4553
     21 C          -7.7276  -19.7686   19.2849 C.3     1  UNL1        0.2543
     22 C          -5.5995  -16.6053   23.3322 C.3     1  UNL1        0.0394
     23 C          -5.2524  -15.5696   24.3602 C.3     1  UNL1        0.0765
     24 N          -5.2903  -15.9183   25.8186 N.3     1  UNL1       -0.2700
     25 C          -6.2622  -15.2288   26.7296 C.3     1  UNL1        0.0897
     26 C          -4.3562  -16.9565   26.3659 C.3     1  UNL1        0.0897
@<TRIPOS>BOND
     1    10    11    1
     2    11     1    1
     3     1     2   ar
     4     2     3   ar
     5     3     4   ar
     6     4     5   ar
     7     5     6   ar
     8     5     7    1
     9     7     8    1
    10     8    22    1
    11    22    23    1
    12    23    24    1
    13    24    25    1
    14    24    26    1
    15     8     9    2
    16     9    12    1
    17    12    13    1
    18    12    14    1
    19    14    15   ar
    20    15    16   ar
    21    16    17   ar
    22    17    18   ar
    23    18    19   ar
    24    19    20    1
    25    20    21    1
    26     6     1   ar
    27    19    14   ar
    28     9     4    1
@<TRIPOS>MOLECULE
*****
 26 28 0 0 0
SMALL
GASTEIGER

@<TRIPOS>ATOM
      1 C          -7.1109  -15.1878   27.1444 C.ar    1  UNL1        0.1384
      2 C          -6.4809  -14.8793   25.8186 C.ar    1  UNL1        0.0369
      3 C          -6.9559  -15.5814   24.5810 C.ar    1  UNL1        0.0025
      4 C          -8.0608  -16.5919   24.6693 C.ar    1  UNL1       -0.0077
      5 C          -8.6908  -16.9004   25.9952 C.ar    1  UNL1       -0.0154
      6 C          -8.2158  -16.1983   27.2327 C.ar    1  UNL1        0.0329
      7 C          -9.7531  -17.9361   25.7739 C.3     1  UNL1        0.0481
      8 C          -9.7796  -18.2677   24.3112 C.2     1  UNL1       -0.0421
      9 C          -8.7337  -17.4370   23.6286 C.2     1  UNL1       -0.0245
     10 C          -7.1477  -13.1144   28.7095 C.3     1  UNL1        0.2525
     11 O          -6.6359  -14.4858   28.3820 O.3     1  UNL1       -0.4714
     12 C          -8.4164  -17.4491   22.1626 C.3     1  UNL1        0.0666
     13 C          -9.1597  -16.5425   21.2268 C.3     1  UNL1        0.0112
     14 C          -7.3558  -18.3677   21.6323 C.ar    1  UNL1        0.1156
     15 N          -5.9268  -18.1833   22.0494 N.ar    1  UNL1       -0.2415
     16 C          -4.8661  -19.1019   21.5192 C.ar    1  UNL1        0.1193
     17 C          -5.2345  -20.2050   20.5718 C.ar    1  UNL1        0.1227
     18 N          -6.6634  -20.3894   20.1546 N.ar    1  UNL1       -0.2075
     19 C          -7.7241  -19.4708   20.6849 C.ar    1  UNL1        0.2393
     20 O          -9.1531  -19.6552   20.2677 O.3     1  UNL1       -0.4553
     21 C          -9.4790  -20.0259   18.8513 C.3     1  UNL1        0.2543
     22 C         -10.6918  -19.2565   23.6477 C.3     1  UNL1        0.0394
     23 C         -11.7425  -18.7812   22.6884 C.3     1  UNL1        0.0765
     24 N         -12.6944  -17.6961   23.0960 N.3     1  UNL1       -0.2700
     25 C         -12.5085  -16.3012   22.5767 C.3     1  UNL1        0.0897
     26 C         -13.8324  -18.0059   24.0229 C.3     1  UNL1        0.0897
@<TRIPOS>BOND
     1    10    11    1
     2    11     1    1
     3     1     2   ar
     4     2     3   ar
     5     3     4   ar
     6     4     5   ar
     7     5     6   ar
     8     5     7    1
     9     7     8    1
    10     8    22    1
    11    22    23    1
    12    23    24    1
    13    24    25    1
    14    24    26    1
    15     8     9    2
    16     9    12    1
    17    12    13    1
    18    12    14    1
    19    14    15   ar
    20    15    16   ar
    21    16    17   ar
    22    17    18   ar
    23    18    19   ar
    24    19    20    1
    25    20    21    1
    26     6     1   ar
    27    19    14   ar
    28     9     4    1
@<TRIPOS>MOLECULE
*****
 26 28 0 0 0
SMALL
GASTEIGER

@<TRIPOS>ATOM
      1 C           0.2111    1.0144   20.9246 C.ar    1  UNL1        0.1384
      2 C           0.8020    0.0740   19.9164 C.ar    1  UNL1        0.0369
      3 C           1.9572   -0.8039   20.2966 C.ar    1  UNL1        0.0025
      4 C           2.5217   -0.7415   21.6849 C.ar    1  UNL1       -0.0077
      5 C           1.9308    0.1989   22.6931 C.ar    1  UNL1       -0.0154
      6 C           0.7755    1.0769   22.3129 C.ar    1  UNL1        0.0329
      7 C           2.6925    0.0418   23.9758 C.3     1  UNL1        0.0481
      8 C           3.7541   -0.9958   23.7603 C.2     1  UNL1       -0.0421
      9 C           3.6485   -1.4798   22.3444 C.2     1  UNL1       -0.0245
     10 C          -1.1801    3.1803   21.2763 C.3     1  UNL1        0.2525
     11 O          -0.9442    1.8923   20.5444 O.3     1  UNL1       -0.4714
     12 C           4.5173   -2.5197   21.7011 C.3     1  UNL1        0.0666
     13 C           4.5829   -3.9032   22.2771 C.3     1  UNL1        0.0112
     14 C           5.3205   -2.1762   20.4818 C.ar    1  UNL1        0.1156
     15 N           6.5212   -1.2851   20.6011 N.ar    1  UNL1       -0.2415
     16 C           7.3245   -0.9416   19.3818 C.ar    1  UNL1        0.1193
     17 C           6.9270   -1.4891   18.0431 C.ar    1  UNL1        0.1227
     18 N           5.7263   -2.3802   17.9236 N.ar    1  UNL1       -0.2075
     19 C           4.9230   -2.7237   19.1430 C.ar    1  UNL1        0.2393
     20 O           3.7223   -3.6148   19.0236 O.3     1  UNL1       -0.4553
     21 C           3.8930   -5.1049   19.0043 C.3     1  UNL1        0.2543
     22 C           4.7470   -1.4666   24.7813 C.3     1  UNL1        0.0394
     23 C           6.2159   -1.2837   24.5390 C.3     1  UNL1        0.0765
     24 N           7.1155   -2.4804   24.4462 N.3     1  UNL1       -0.2700
     25 C           6.8155   -3.7086   25.2535 C.3     1  UNL1        0.0897
     26 C           8.3150   -2.4490   23.5463 C.3     1  UNL1        0.0897
@<TRIPOS>BOND
     1    10    11    1
     2    11     1    1
     3     1     2   ar
     4     2     3   ar
     5     3     4   ar
     6     4     5   ar
     7     5     6   ar
     8     5     7    1
     9     7     8    1
    10     8    22    1
    11    22    23    1
    12    23    24    1
    13    24    25    1
    14    24    26    1
    15     8     9    2
    16     9    12    1
    17    12    13    1
    18    12    14    1
    19    14    15   ar
    20    15    16   ar
    21    16    17   ar
    22    17    18   ar
    23    18    19   ar
    24    19    20    1
    25    20    21    1
    26     6     1   ar
    27    19    14   ar
    28     9     4    1
@<TRIPOS>MOLECULE
*****
 26 28 0 0 0
SMALL
GASTEIGER

@<TRIPOS>ATOM
      1 C           1.5082    1.0090   23.2540 C.ar    1  UNL1        0.1384
      2 C           1.3408    0.9164   21.7663 C.ar    1  UNL1        0.0369
      3 C           2.0959   -0.1212   20.9897 C.ar    1  UNL1        0.0025
      4 C           3.0185   -1.0662   21.7008 C.ar    1  UNL1       -0.0077
      5 C           3.1860   -0.9736   23.1886 C.ar    1  UNL1       -0.0154
      6 C           2.4309    0.0640   23.9651 C.ar    1  UNL1        0.0329
      7 C           4.1591   -2.0336   23.6124 C.3     1  UNL1        0.0481
      8 C           4.5929   -2.7813   22.3866 C.2     1  UNL1       -0.0421
      9 C           3.8881   -2.1835   21.2052 C.2     1  UNL1       -0.0245
     10 C          -0.2891    2.8827   23.3488 C.3     1  UNL1        0.2525
     11 O           0.7531    2.0466   24.0306 O.3     1  UNL1       -0.4714
     12 C           4.0281   -2.6253   19.7786 C.3     1  UNL1        0.0666
     13 C           3.4854   -3.9560   19.3489 C.3     1  UNL1        0.0112
     14 C           4.7107   -1.7364   18.7817 C.ar    1  UNL1        0.1156
     15 N           3.9276   -0.6821   18.0570 N.ar    1  UNL1       -0.2415
     16 C           4.6102    0.2069   17.0601 C.ar    1  UNL1        0.1193
     17 C           6.0759    0.0415   16.7878 C.ar    1  UNL1        0.1227
     18 N           6.8591   -1.0128   17.5124 N.ar    1  UNL1       -0.2075
     19 C           6.1765   -1.9018   18.5094 C.ar    1  UNL1        0.2393
     20 O           6.9597   -2.9560   19.2341 O.3     1  UNL1       -0.4553
     21 C           8.3149   -2.6339   19.7906 C.3     1  UNL1        0.2543
     22 C           5.5616   -3.9260   22.3488 C.3     1  UNL1        0.0394
     23 C           6.9036   -3.7949   23.0060 C.3     1  UNL1        0.0765
     24 N           7.3234   -4.7792   24.0570 N.3     1  UNL1       -0.2700
     25 C           6.8222   -4.6342   25.4634 C.3     1  UNL1        0.0897
     26 C           8.2445   -5.9085   23.7018 C.3     1  UNL1        0.0897
@<TRIPOS>BOND
     1    10    11    1
     2    11     1    1
     3     1     2   ar
     4     2     3   ar
     5     3     4   ar
     6     4     5   ar
     7     5     6   ar
     8     5     7    1
     9     7     8    1
    10     8    22    1
    11    22    23    1
    12    23    24    1
    13    24    25    1
    14    24    26    1
    15     8     9    2
    16     9    12    1
    17    12    13    1
    18    12    14    1
    19    14    15   ar
    20    15    16   ar
    21    16    17   ar
    22    17    18   ar
    23    18    19   ar
    24    19    20    1
    25    20    21    1
    26     6     1   ar
    27    19    14   ar
    28     9     4    1
