@<TRIPOS>MOLECULE
*****
 41 45 0 0 0
SMALL
GASTEIGER

@<TRIPOS>ATOM
      1 C           5.9814   -1.7251   33.1386 C.ar    1  UNL1       -0.0020
      2 C           7.3638   -1.1488   33.2225 C.ar    1  UNL1        0.0179
      3 C           8.5272   -1.9046   32.6523 C.ar    1  UNL1        0.1014
      4 N           8.3083   -3.2366   31.9981 N.ar    1  UNL1       -0.2149
      5 C           6.9260   -3.8129   31.9142 C.ar    1  UNL1        0.1933
      6 C           5.7625   -3.0570   32.4845 C.ar    1  UNL1        0.0487
      7 C           4.6118   -0.9185   35.1937 C.3     1  UNL1        0.0222
      8 C           4.8179   -0.9692   33.7088 C.3     1  UNL1        0.0804
      9 N           3.8607   -0.2642   32.7942 N.3     1  UNL1       -0.2674
     10 C           3.5202   -0.8609   31.4608 C.3     1  UNL1        0.0941
     11 C           2.5629   -0.1558   30.5461 C.3     1  UNL1        0.1107
     12 N           1.9461    1.1458   30.9649 N.am    1  UNL1       -0.2764
     13 C           0.9889    1.8508   30.0502 C.2     1  UNL1        0.2344
     14 O           0.3721    3.1524   30.4690 O.2     1  UNL1       -0.2746
     15 C           2.2867    1.7424   32.2984 C.3     1  UNL1        0.1107
     16 C           3.2439    1.0374   33.2130 C.3     1  UNL1        0.0941
     17 C           0.6484    1.2542   28.7168 C.3     1  UNL1        0.1882
     18 C          -0.5429    0.3528   28.5806 C.3     1  UNL1        0.4063
     19 F          -1.7341   -0.5485   28.4444 F       1  UNL1       -0.1695
     20 F           0.3385   -0.8433   28.7867 F       1  UNL1       -0.1695
     21 F          -1.4243    1.5489   28.3745 F       1  UNL1       -0.1695
     22 N           6.7071   -5.1448   31.2602 N.pl3   1  UNL1       -0.1848
     23 H           6.4360   -5.9207   31.8021 H       1  UNL1        0.2530
     24 C           6.9012   -5.2946   29.7803 C.cat   1  UNL1        0.4252
     25 N           7.6105   -6.4242   29.0940 N.2     1  UNL1       -0.0676
     26 C           7.5678   -6.1689   27.6165 C.2     1  UNL1        0.1887
     27 C           8.1037   -6.9423   26.4484 C.2     1  UNL1        0.0396
     28 C           7.9040   -6.4284   25.0535 C.2     1  UNL1        0.0008
     29 C           7.1682   -5.1410   24.8266 C.2     1  UNL1        0.0033
     30 C           6.6322   -4.3676   25.9947 C.3     1  UNL1        0.0950
     31 C           6.8320   -4.8815   27.3897 C.2     1  UNL1        0.1745
     32 N           6.4201   -4.3413   28.7270 N.2     1  UNL1       -0.0714
     33 C           6.9684   -4.6271   23.4316 C.ar    1  UNL1        0.0823
     34 C           5.7422   -3.8321   23.0936 C.ar    1  UNL1        0.0532
     35 C           5.5425   -3.3182   21.6985 C.ar    1  UNL1        0.1351
     36 N           6.5690   -3.5993   20.6415 N.ar    1  UNL1       -0.2090
     37 C           7.7952   -4.3944   20.9796 C.ar    1  UNL1        0.2000
     38 N           7.9949   -4.9083   22.3746 N.ar    1  UNL1       -0.2242
     39 N           4.3163   -2.5231   21.3606 N.pl3   1  UNL1       -0.2897
     40 C           3.7074   -2.6282   19.9937 C.3     1  UNL1        0.1136
     41 C           3.6990   -1.6229   22.3894 C.3     1  UNL1        0.1136
@<TRIPOS>BOND
     1     8     7    1
     2     8     1    1
     3     1     2   ar
     4     2     3   ar
     5     3     4   ar
     6     4     5   ar
     7     5    22    1
     8    22    24    1
     9    24    25    2
    10    25    26    1
    11    26    27    2
    12    27    28    1
    13    28    29    2
    14    29    33    1
    15    33    34   ar
    16    34    35   ar
    17    35    39    1
    18    39    40    1
    19    39    41    1
    20    35    36   ar
    21    36    37   ar
    22    37    38   ar
    23    29    30    1
    24    30    31    1
    25    31    32    2
    26     5     6   ar
    27     8     9    1
    28     9    10    1
    29    10    11    1
    30    11    12    1
    31    12    13   am
    32    13    14    2
    33    13    17    1
    34    17    18    1
    35    18    19    1
    36    18    20    1
    37    18    21    1
    38    12    15    1
    39    15    16    1
    40     6     1   ar
    41    16     9    1
    42    32    24    1
    43    31    26    1
    44    38    33   ar
    45    22    23    1
@<TRIPOS>MOLECULE
*****
 41 45 0 0 0
SMALL
GASTEIGER

@<TRIPOS>ATOM
      1 C           5.7268   -1.3494   32.7910 C.ar    1  UNL1       -0.0020
      2 C           7.0973   -0.8150   33.0845 C.ar    1  UNL1        0.0179
      3 C           8.3037   -1.6751   32.8502 C.ar    1  UNL1        0.1014
      4 N           8.1396   -3.0696   32.3223 N.ar    1  UNL1       -0.2149
      5 C           6.7691   -3.6040   32.0289 C.ar    1  UNL1        0.1933
      6 C           5.5627   -2.7438   32.2632 C.ar    1  UNL1        0.0487
      7 C           3.5382   -0.2567   31.9158 C.3     1  UNL1        0.0222
      8 C           4.5204   -0.4893   33.0254 C.3     1  UNL1        0.0804
      9 N           4.2963    0.1381   34.3693 N.3     1  UNL1       -0.2674
     10 C           3.3770    1.3158   34.5031 C.3     1  UNL1        0.0941
     11 C           3.1529    1.9434   35.8470 C.3     1  UNL1        0.1107
     12 N           3.8479    1.3931   37.0570 N.am    1  UNL1       -0.2764
     13 C           3.6238    2.0205   38.4009 C.2     1  UNL1        0.2344
     14 O           4.3189    1.4703   39.6109 O.2     1  UNL1       -0.2746
     15 C           4.7672    0.2153   36.9231 C.3     1  UNL1        0.1107
     16 C           4.9914   -0.4121   35.5792 C.3     1  UNL1        0.0941
     17 C           2.7046    3.1983   38.5348 C.3     1  UNL1        0.1882
     18 C           1.2321    2.9828   38.7232 C.3     1  UNL1        0.4063
     19 F          -0.2403    2.7673   38.9116 F       1  UNL1       -0.1695
     20 F           0.9504    3.8969   37.5678 F       1  UNL1       -0.1695
     21 F           1.5137    2.0687   39.8786 F       1  UNL1       -0.1695
     22 N           6.6050   -4.9984   31.5011 N.pl3   1  UNL1       -0.1848
     23 H           6.2752   -5.7129   32.0926 H       1  UNL1        0.2530
     24 C           6.9434   -5.3041   30.0721 C.cat   1  UNL1        0.4252
     25 N           7.6884   -6.5099   29.5810 N.2     1  UNL1       -0.0676
     26 C           7.8017   -6.4088   28.0887 C.2     1  UNL1        0.1887
     27 C           8.4322   -7.3077   27.0668 C.2     1  UNL1        0.0396
     28 C           8.3878   -6.9383   25.6137 C.2     1  UNL1        0.0008
     29 C           7.7128   -5.6701   25.1825 C.2     1  UNL1        0.0033
     30 C           7.0823   -4.7711   26.2044 C.3     1  UNL1        0.0950
     31 C           7.1267   -5.1405   27.6575 C.2     1  UNL1        0.1745
     32 N           6.5963   -4.4578   28.8833 N.2     1  UNL1       -0.0714
     33 C           7.6684   -5.3007   23.7293 C.ar    1  UNL1        0.0823
     34 C           6.7536   -4.2083   23.2607 C.ar    1  UNL1        0.0532
     35 C           6.7092   -3.8389   21.8075 C.ar    1  UNL1        0.1351
     36 N           7.5797   -4.5621   20.8230 N.ar    1  UNL1       -0.2090
     37 C           8.4945   -5.6546   21.2916 C.ar    1  UNL1        0.2000
     38 N           8.5389   -6.0239   22.7447 N.ar    1  UNL1       -0.2242
     39 N           5.7944   -2.7465   21.3389 N.pl3   1  UNL1       -0.2897
     40 C           6.3411   -1.3771   21.0633 C.3     1  UNL1        0.1136
     41 C           4.3329   -3.0234   21.1460 C.3     1  UNL1        0.1136
@<TRIPOS>BOND
     1     8     7    1
     2     8     1    1
     3     1     2   ar
     4     2     3   ar
     5     3     4   ar
     6     4     5   ar
     7     5    22    1
     8    22    24    1
     9    24    25    2
    10    25    26    1
    11    26    27    2
    12    27    28    1
    13    28    29    2
    14    29    33    1
    15    33    34   ar
    16    34    35   ar
    17    35    39    1
    18    39    40    1
    19    39    41    1
    20    35    36   ar
    21    36    37   ar
    22    37    38   ar
    23    29    30    1
    24    30    31    1
    25    31    32    2
    26     5     6   ar
    27     8     9    1
    28     9    10    1
    29    10    11    1
    30    11    12    1
    31    12    13   am
    32    13    14    2
    33    13    17    1
    34    17    18    1
    35    18    19    1
    36    18    20    1
    37    18    21    1
    38    12    15    1
    39    15    16    1
    40     6     1   ar
    41    16     9    1
    42    32    24    1
    43    31    26    1
    44    38    33   ar
    45    22    23    1
@<TRIPOS>MOLECULE
*****
 41 45 0 0 0
SMALL
GASTEIGER

@<TRIPOS>ATOM
      1 C          -2.8080    3.7939   23.9815 C.ar    1  UNL1       -0.0020
      2 C          -4.2376    3.3405   24.0105 C.ar    1  UNL1        0.0179
      3 C          -4.9249    2.9452   22.7372 C.ar    1  UNL1        0.1014
      4 N          -4.1827    3.0032   21.4349 N.ar    1  UNL1       -0.2149
      5 C          -2.7532    3.4566   21.4060 C.ar    1  UNL1        0.1933
      6 C          -2.0658    3.8520   22.6793 C.ar    1  UNL1        0.0487
      7 C          -2.4050    5.5241   25.8774 C.3     1  UNL1        0.0222
      8 C          -2.1207    4.1893   25.2549 C.3     1  UNL1        0.0804
      9 N          -1.1491    3.2499   25.9056 N.3     1  UNL1       -0.2674
     10 C           0.2556    3.1478   25.3896 C.3     1  UNL1        0.0941
     11 C           1.2273    2.2084   26.0403 C.3     1  UNL1        0.1107
     12 N           0.7942    1.3711   27.2071 N.am    1  UNL1       -0.2764
     13 C           1.7658    0.4317   27.8578 C.2     1  UNL1        0.2344
     14 O           1.3327   -0.4056   29.0246 O.2     1  UNL1       -0.2746
     15 C          -0.6106    1.4732   27.7231 C.3     1  UNL1        0.1107
     16 C          -1.5822    2.4126   27.0724 C.3     1  UNL1        0.0941
     17 C           3.1705    0.3296   27.3418 C.3     1  UNL1        0.1882
     18 C           3.5148   -0.6949   26.3016 C.3     1  UNL1        0.4063
     19 F           3.8591   -1.7192   25.2614 F       1  UNL1       -0.1695
     20 F           3.3352   -1.7852   27.3159 F       1  UNL1       -0.1695
     21 F           3.6944    0.3955   25.2873 F       1  UNL1       -0.1695
     22 N          -2.0110    3.5146   20.1038 N.pl3   1  UNL1       -0.1848
     23 H          -2.2878    4.1531   19.4075 H       1  UNL1        0.2530
     24 C          -0.8469    2.5999   19.8626 C.cat   1  UNL1        0.4252
     25 N           0.2661    2.8287   18.8834 N.2     1  UNL1       -0.0676
     26 C           1.2094    1.6659   18.9738 C.2     1  UNL1        0.1887
     27 C           2.4825    1.3475   18.2473 C.2     1  UNL1        0.0396
     28 C           3.2256    0.0816   18.5560 C.2     1  UNL1        0.0008
     29 C           2.6956   -0.8658   19.5911 C.2     1  UNL1        0.0033
     30 C           1.4225   -0.5474   20.3176 C.3     1  UNL1        0.0950
     31 C           0.6795    0.7185   20.0090 C.2     1  UNL1        0.1745
     32 N          -0.5914    1.2957   20.5582 N.2     1  UNL1       -0.0714
     33 C           3.4388   -2.1318   19.8998 C.ar    1  UNL1        0.0823
     34 C           4.5021   -2.1383   20.9578 C.ar    1  UNL1        0.0532
     35 C           5.2452   -3.4043   21.2664 C.ar    1  UNL1        0.1351
     36 N           4.9250   -4.6636   20.5170 N.ar    1  UNL1       -0.2090
     37 C           3.8617   -4.6570   19.4590 C.ar    1  UNL1        0.2000
     38 N           3.1186   -3.3911   19.1504 N.ar    1  UNL1       -0.2242
     39 N           6.3085   -3.4108   22.3244 N.pl3   1  UNL1       -0.2897
     40 C           7.7334   -3.1194   21.9575 C.3     1  UNL1        0.1136
     41 C           5.9469   -3.7088   23.7493 C.3     1  UNL1        0.1136
@<TRIPOS>BOND
     1     8     7    1
     2     8     1    1
     3     1     2   ar
     4     2     3   ar
     5     3     4   ar
     6     4     5   ar
     7     5    22    1
     8    22    24    1
     9    24    25    2
    10    25    26    1
    11    26    27    2
    12    27    28    1
    13    28    29    2
    14    29    33    1
    15    33    34   ar
    16    34    35   ar
    17    35    39    1
    18    39    40    1
    19    39    41    1
    20    35    36   ar
    21    36    37   ar
    22    37    38   ar
    23    29    30    1
    24    30    31    1
    25    31    32    2
    26     5     6   ar
    27     8     9    1
    28     9    10    1
    29    10    11    1
    30    11    12    1
    31    12    13   am
    32    13    14    2
    33    13    17    1
    34    17    18    1
    35    18    19    1
    36    18    20    1
    37    18    21    1
    38    12    15    1
    39    15    16    1
    40     6     1   ar
    41    16     9    1
    42    32    24    1
    43    31    26    1
    44    38    33   ar
    45    22    23    1
@<TRIPOS>MOLECULE
*****
 41 45 0 0 0
SMALL
GASTEIGER

@<TRIPOS>ATOM
      1 C           0.0004    1.4429   27.5633 C.ar    1  UNL1       -0.0020
      2 C          -1.0934    2.3183   27.0273 C.ar    1  UNL1        0.0179
      3 C          -0.8661    3.1262   25.7841 C.ar    1  UNL1        0.1014
      4 N           0.4550    3.0587   25.0768 N.ar    1  UNL1       -0.2149
      5 C           1.5489    2.1834   25.6129 C.ar    1  UNL1        0.1933
      6 C           1.3215    1.3755   26.8562 C.ar    1  UNL1        0.0487
      7 C          -1.5248   -0.0910   29.0024 C.3     1  UNL1        0.0222
      8 C          -0.2269    0.6350   28.8066 C.3     1  UNL1        0.0804
      9 N           0.8436    0.5532   29.8541 N.3     1  UNL1       -0.2674
     10 C           1.8119   -0.5923   29.8489 C.3     1  UNL1        0.0941
     11 C           2.8825   -0.6742   30.8964 C.3     1  UNL1        0.1107
     12 N           2.9847    0.3895   31.9491 N.am    1  UNL1       -0.2764
     13 C           4.0552    0.3077   32.9965 C.2     1  UNL1        0.2344
     14 O           4.1575    1.3714   34.0492 O.2     1  UNL1       -0.2746
     15 C           2.0164    1.5351   31.9542 C.3     1  UNL1        0.1107
     16 C           0.9458    1.6169   30.9067 C.3     1  UNL1        0.0941
     17 C           5.0235   -0.8379   32.9914 C.3     1  UNL1        0.1882
     18 C           4.5637   -2.2104   33.3851 C.3     1  UNL1        0.4063
     19 F           4.1039   -3.5828   33.7788 F       1  UNL1       -0.1695
     20 F           5.1846   -2.7750   32.1419 F       1  UNL1       -0.1695
     21 F           3.9429   -1.6457   34.6283 F       1  UNL1       -0.1695
     22 N           2.8699    2.1159   24.9057 N.pl3   1  UNL1       -0.1848
     23 H           3.3362    2.9455   24.6536 H       1  UNL1        0.2530
     24 C           3.4807    0.7845   24.5828 C.cat   1  UNL1        0.4252
     25 N           3.2385   -0.0182   23.3390 N.2     1  UNL1       -0.0676
     26 C           4.0489   -1.2768   23.4344 C.2     1  UNL1        0.1887
     27 C           4.2063   -2.4423   22.5033 C.2     1  UNL1        0.0396
     28 C           5.1067   -3.5829   22.8750 C.2     1  UNL1        0.0008
     29 C           5.8497   -3.5581   24.1778 C.2     1  UNL1        0.0033
     30 C           5.6923   -2.3927   25.1089 C.3     1  UNL1        0.0950
     31 C           4.7920   -1.2520   24.7372 C.2     1  UNL1        0.1745
     32 N           4.4407    0.0219   25.4469 N.2     1  UNL1       -0.0714
     33 C           6.7501   -4.6988   24.5496 C.ar    1  UNL1        0.0823
     34 C           6.9023   -5.0963   25.9879 C.ar    1  UNL1        0.0532
     35 C           7.8027   -6.2370   26.3596 C.ar    1  UNL1        0.1351
     36 N           8.5509   -6.9802   25.2929 N.ar    1  UNL1       -0.2090
     37 C           8.3987   -6.5827   23.8545 C.ar    1  UNL1        0.2000
     38 N           7.4983   -5.4420   23.4829 N.ar    1  UNL1       -0.2242
     39 N           7.9549   -6.6344   27.7979 N.pl3   1  UNL1       -0.2897
     40 C           7.3084   -5.8147   28.8750 C.3     1  UNL1        0.1136
     41 C           8.7535   -7.8517   28.1592 C.3     1  UNL1        0.1136
@<TRIPOS>BOND
     1     8     7    1
     2     8     1    1
     3     1     2   ar
     4     2     3   ar
     5     3     4   ar
     6     4     5   ar
     7     5    22    1
     8    22    24    1
     9    24    25    2
    10    25    26    1
    11    26    27    2
    12    27    28    1
    13    28    29    2
    14    29    33    1
    15    33    34   ar
    16    34    35   ar
    17    35    39    1
    18    39    40    1
    19    39    41    1
    20    35    36   ar
    21    36    37   ar
    22    37    38   ar
    23    29    30    1
    24    30    31    1
    25    31    32    2
    26     5     6   ar
    27     8     9    1
    28     9    10    1
    29    10    11    1
    30    11    12    1
    31    12    13   am
    32    13    14    2
    33    13    17    1
    34    17    18    1
    35    18    19    1
    36    18    20    1
    37    18    21    1
    38    12    15    1
    39    15    16    1
    40     6     1   ar
    41    16     9    1
    42    32    24    1
    43    31    26    1
    44    38    33   ar
    45    22    23    1
@<TRIPOS>MOLECULE
*****
 41 45 0 0 0
SMALL
GASTEIGER

@<TRIPOS>ATOM
      1 C           4.0911   -2.3399   18.9542 C.ar    1  UNL1       -0.0020
      2 C           3.2269   -3.5659   18.9458 C.ar    1  UNL1        0.0179
      3 C           3.7869   -4.8813   19.3998 C.ar    1  UNL1        0.1014
      4 N           5.2112   -4.9707   19.8621 N.ar    1  UNL1       -0.2149
      5 C           6.0753   -3.7447   19.8704 C.ar    1  UNL1        0.1933
      6 C           5.5152   -2.4292   19.4165 C.ar    1  UNL1        0.0487
      7 C           3.8409   -0.5119   17.1250 C.3     1  UNL1        0.0222
      8 C           3.5310   -1.0244   18.5002 C.3     1  UNL1        0.0804
      9 N           2.6612   -0.2216   19.4215 N.3     1  UNL1       -0.2674
     10 C           3.1353    0.1035   20.8069 C.3     1  UNL1        0.0941
     11 C           2.2654    0.9063   21.7283 C.3     1  UNL1        0.1107
     12 N           0.9215    1.3841   21.2641 N.am    1  UNL1       -0.2764
     13 C           0.0516    2.1869   22.1854 C.2     1  UNL1        0.2344
     14 O          -1.2924    2.6647   21.7212 O.2     1  UNL1       -0.2746
     15 C           0.4474    1.0590   19.8786 C.3     1  UNL1        0.1107
     16 C           1.3172    0.2562   18.9573 C.3     1  UNL1        0.0941
     17 C           0.5257    2.5120   23.5708 C.3     1  UNL1        0.1882
     18 C          -0.0384    1.7744   24.7489 C.3     1  UNL1        0.4063
     19 F          -0.6025    1.0370   25.9270 F       1  UNL1       -0.1695
     20 F           1.0607    0.7595   24.6399 F       1  UNL1       -0.1695
     21 F          -1.1374    2.7894   24.8580 F       1  UNL1       -0.1695
     22 N           7.4995   -3.8340   20.3327 N.pl3   1  UNL1       -0.1848
     23 H           8.2185   -3.4340   19.7921 H       1  UNL1        0.2530
     24 C           7.8281   -4.5328   21.6187 C.cat   1  UNL1        0.4252
     25 N           8.4695   -5.8824   21.7499 N.2     1  UNL1       -0.0676
     26 C           8.6109   -6.1884   23.2115 C.2     1  UNL1        0.1887
     27 C           9.1725   -7.3738   23.9391 C.2     1  UNL1        0.0396
     28 C           9.1801   -7.3986   25.4388 C.2     1  UNL1        0.0008
     29 C           8.6262   -6.2381   26.2110 C.2     1  UNL1        0.0033
     30 C           8.0646   -5.0527   25.4835 C.3     1  UNL1        0.0950
     31 C           8.0569   -5.0278   23.9837 C.2     1  UNL1        0.1745
     32 N           7.5732   -4.0046   22.9993 N.2     1  UNL1       -0.0714
     33 C           8.6339   -6.2630   27.7108 C.ar    1  UNL1        0.0823
     34 C           7.8340   -5.2551   28.4818 C.ar    1  UNL1        0.0532
     35 C           7.8417   -5.2800   29.9816 C.ar    1  UNL1        0.1351
     36 N           8.6492   -6.3129   30.7104 N.ar    1  UNL1       -0.2090
     37 C           9.4491   -7.3208   29.9394 C.ar    1  UNL1        0.2000
     38 N           9.4414   -7.2958   28.4396 N.ar    1  UNL1       -0.2242
     39 N           7.0419   -4.2721   30.7525 N.pl3   1  UNL1       -0.2897
     40 C           6.5889   -3.0064   30.0871 C.3     1  UNL1        0.1136
     41 C           6.6951   -4.5299   32.1889 C.3     1  UNL1        0.1136
@<TRIPOS>BOND
     1     8     7    1
     2     8     1    1
     3     1     2   ar
     4     2     3   ar
     5     3     4   ar
     6     4     5   ar
     7     5    22    1
     8    22    24    1
     9    24    25    2
    10    25    26    1
    11    26    27    2
    12    27    28    1
    13    28    29    2
    14    29    33    1
    15    33    34   ar
    16    34    35   ar
    17    35    39    1
    18    39    40    1
    19    39    41    1
    20    35    36   ar
    21    36    37   ar
    22    37    38   ar
    23    29    30    1
    24    30    31    1
    25    31    32    2
    26     5     6   ar
    27     8     9    1
    28     9    10    1
    29    10    11    1
    30    11    12    1
    31    12    13   am
    32    13    14    2
    33    13    17    1
    34    17    18    1
    35    18    19    1
    36    18    20    1
    37    18    21    1
    38    12    15    1
    39    15    16    1
    40     6     1   ar
    41    16     9    1
    42    32    24    1
    43    31    26    1
    44    38    33   ar
    45    22    23    1
@<TRIPOS>MOLECULE
*****
 41 45 0 0 0
SMALL
GASTEIGER

@<TRIPOS>ATOM
      1 C           6.4367   -2.8932   29.8250 C.ar    1  UNL1       -0.0020
      2 C           6.5581   -3.1728   31.2937 C.ar    1  UNL1        0.0179
      3 C           6.8058   -4.5725   31.7728 C.ar    1  UNL1        0.1014
      4 N           6.9320   -5.6927   30.7832 N.ar    1  UNL1       -0.2149
      5 C           6.8105   -5.4131   29.3145 C.ar    1  UNL1        0.1933
      6 C           6.5629   -4.0134   28.8354 C.ar    1  UNL1        0.0487
      7 C           7.2872   -0.7266   28.6708 C.3     1  UNL1        0.0222
      8 C           6.1891   -1.4935   29.3460 C.3     1  UNL1        0.0804
      9 N           4.8433   -0.8607   29.5421 N.3     1  UNL1       -0.2674
     10 C           3.8654   -0.8105   28.4058 C.3     1  UNL1        0.0941
     11 C           2.5196   -0.1777   28.6019 C.3     1  UNL1        0.1107
     12 N           2.1517    0.4048   29.9343 N.am    1  UNL1       -0.2764
     13 C           0.8060    1.0376   30.1304 C.2     1  UNL1        0.2344
     14 O           0.4381    1.6202   31.4628 O.2     1  UNL1       -0.2746
     15 C           3.1297    0.3546   31.0706 C.3     1  UNL1        0.1107
     16 C           4.4754   -0.2781   30.8745 C.3     1  UNL1        0.0941
     17 C          -0.1719    1.0878   28.9941 C.3     1  UNL1        0.1882
     18 C          -1.1396   -0.0395   28.7870 C.3     1  UNL1        0.4063
     19 F          -2.1072   -1.1667   28.5798 F       1  UNL1       -0.1695
     20 F          -1.8267    0.3141   30.0726 F       1  UNL1       -0.1695
     21 F          -0.4525   -0.3931   27.5014 F       1  UNL1       -0.1695
     22 N           6.9367   -6.5332   28.3249 N.pl3   1  UNL1       -0.1848
     23 H           6.7960   -7.4637   28.6140 H       1  UNL1        0.2530
     24 C           7.2772   -6.2356   26.8947 C.cat   1  UNL1        0.4252
     25 N           8.2662   -6.9828   26.0499 N.2     1  UNL1       -0.0676
     26 C           8.2887   -6.3476   24.6912 C.2     1  UNL1        0.1887
     27 C           9.0711   -6.6598   23.4502 C.2     1  UNL1        0.0396
     28 C           8.8785   -5.8322   22.2141 C.2     1  UNL1        0.0008
     29 C           7.9034   -4.6924   22.2191 C.2     1  UNL1        0.0033
     30 C           7.1209   -4.3802   23.4602 C.3     1  UNL1        0.0950
     31 C           7.3136   -5.2078   24.6963 C.2     1  UNL1        0.1745
     32 N           6.6885   -5.1386   26.0580 N.2     1  UNL1       -0.0714
     33 C           7.7107   -3.8647   20.9830 C.ar    1  UNL1        0.0823
     34 C           6.3308   -3.6351   20.4417 C.ar    1  UNL1        0.0532
     35 C           6.1381   -2.8075   19.2055 C.ar    1  UNL1        0.1351
     36 N           7.3255   -2.2095   18.5107 N.ar    1  UNL1       -0.2090
     37 C           8.7054   -2.4391   19.0521 C.ar    1  UNL1        0.2000
     38 N           8.8980   -3.2667   20.2882 N.ar    1  UNL1       -0.2242
     39 N           4.7582   -2.5779   18.6642 N.pl3   1  UNL1       -0.2897
     40 C           3.6245   -3.4564   19.1034 C.3     1  UNL1        0.1136
     41 C           4.5121   -1.4699   17.6836 C.3     1  UNL1        0.1136
@<TRIPOS>BOND
     1     8     7    1
     2     8     1    1
     3     1     2   ar
     4     2     3   ar
     5     3     4   ar
     6     4     5   ar
     7     5    22    1
     8    22    24    1
     9    24    25    2
    10    25    26    1
    11    26    27    2
    12    27    28    1
    13    28    29    2
    14    29    33    1
    15    33    34   ar
    16    34    35   ar
    17    35    39    1
    18    39    40    1
    19    39    41    1
    20    35    36   ar
    21    36    37   ar
    22    37    38   ar
    23    29    30    1
    24    30    31    1
    25    31    32    2
    26     5     6   ar
    27     8     9    1
    28     9    10    1
    29    10    11    1
    30    11    12    1
    31    12    13   am
    32    13    14    2
    33    13    17    1
    34    17    18    1
    35    18    19    1
    36    18    20    1
    37    18    21    1
    38    12    15    1
    39    15    16    1
    40     6     1   ar
    41    16     9    1
    42    32    24    1
    43    31    26    1
    44    38    33   ar
    45    22    23    1
@<TRIPOS>MOLECULE
*****
 41 45 0 0 0
SMALL
GASTEIGER

@<TRIPOS>ATOM
      1 C          -3.0680    4.0136   24.0987 C.ar    1  UNL1       -0.0020
      2 C          -4.4243    3.3738   24.0635 C.ar    1  UNL1        0.0179
      3 C          -4.9678    2.8387   22.7719 C.ar    1  UNL1        0.1014
      4 N          -4.1552    2.9435   21.5154 N.ar    1  UNL1       -0.2149
      5 C          -2.7989    3.5833   21.5506 C.ar    1  UNL1        0.1933
      6 C          -2.2554    4.1184   22.8423 C.ar    1  UNL1        0.0487
      7 C          -2.9866    5.8800   25.9043 C.3     1  UNL1        0.0222
      8 C          -2.5245    4.5487   25.3903 C.3     1  UNL1        0.0804
      9 N          -1.5189    3.7525   26.1680 N.3     1  UNL1       -0.2674
     10 C          -0.7466    4.4001   27.2788 C.3     1  UNL1        0.0941
     11 C           0.2591    3.6039   28.0566 C.3     1  UNL1        0.1107
     12 N           0.4924    2.1601   27.7233 N.am    1  UNL1       -0.2764
     13 C           1.4981    1.3639   28.5009 C.2     1  UNL1        0.2344
     14 O           1.7314   -0.0799   28.1677 O.2     1  UNL1       -0.2746
     15 C          -0.2799    1.5125   26.6123 C.3     1  UNL1        0.1107
     16 C          -1.2855    2.3087   25.8347 C.3     1  UNL1        0.0941
     17 C           2.2704    2.0115   29.6118 C.3     1  UNL1        0.1882
     18 C           2.1531    1.4866   31.0121 C.3     1  UNL1        0.4063
     19 F           2.0357    0.9617   32.4123 F       1  UNL1       -0.1695
     20 F           3.6198    1.1725   31.0173 F       1  UNL1       -0.1695
     21 F           0.6864    1.8006   31.0069 F       1  UNL1       -0.1695
     22 N          -1.9863    3.6881   20.2942 N.pl3   1  UNL1       -0.1848
     23 H          -2.1798    4.3984   19.6406 H       1  UNL1        0.2530
     24 C          -0.8787    2.7107   20.0337 C.cat   1  UNL1        0.4252
     25 N           0.1334    2.7985   18.9301 N.2     1  UNL1       -0.0676
     26 C           1.0488    1.6159   19.0453 C.2     1  UNL1        0.1887
     27 C           2.2311    1.1788   18.2322 C.2     1  UNL1        0.0396
     28 C           2.9671   -0.0771   18.5941 C.2     1  UNL1        0.0008
     29 C           2.5208   -0.8959   19.7689 C.2     1  UNL1        0.0033
     30 C           1.3385   -0.4589   20.5820 C.3     1  UNL1        0.0950
     31 C           0.6025    0.7970   20.2202 C.2     1  UNL1        0.1745
     32 N          -0.5887    1.4737   20.8310 N.2     1  UNL1       -0.0714
     33 C           3.2569   -2.1519   20.1307 C.ar    1  UNL1        0.0823
     34 C           4.0897   -2.2005   21.3773 C.ar    1  UNL1        0.0532
     35 C           4.8257   -3.4565   21.7391 C.ar    1  UNL1        0.1351
     36 N           4.7290   -4.6638   20.8542 N.ar    1  UNL1       -0.2090
     37 C           3.8962   -4.6151   19.6075 C.ar    1  UNL1        0.2000
     38 N           3.1602   -3.3592   19.2458 N.ar    1  UNL1       -0.2242
     39 N           5.6585   -3.5051   22.9857 N.pl3   1  UNL1       -0.2897
     40 C           6.9292   -4.3018   23.0082 C.3     1  UNL1        0.1136
     41 C           5.2205   -2.7570   24.2098 C.3     1  UNL1        0.1136
@<TRIPOS>BOND
     1     8     7    1
     2     8     1    1
     3     1     2   ar
     4     2     3   ar
     5     3     4   ar
     6     4     5   ar
     7     5    22    1
     8    22    24    1
     9    24    25    2
    10    25    26    1
    11    26    27    2
    12    27    28    1
    13    28    29    2
    14    29    33    1
    15    33    34   ar
    16    34    35   ar
    17    35    39    1
    18    39    40    1
    19    39    41    1
    20    35    36   ar
    21    36    37   ar
    22    37    38   ar
    23    29    30    1
    24    30    31    1
    25    31    32    2
    26     5     6   ar
    27     8     9    1
    28     9    10    1
    29    10    11    1
    30    11    12    1
    31    12    13   am
    32    13    14    2
    33    13    17    1
    34    17    18    1
    35    18    19    1
    36    18    20    1
    37    18    21    1
    38    12    15    1
    39    15    16    1
    40     6     1   ar
    41    16     9    1
    42    32    24    1
    43    31    26    1
    44    38    33   ar
    45    22    23    1
@<TRIPOS>MOLECULE
*****
 41 45 0 0 0
SMALL
GASTEIGER

@<TRIPOS>ATOM
      1 C           3.7893   -2.1322   20.1977 C.ar    1  UNL1       -0.0020
      2 C           3.1632   -3.1896   19.3377 C.ar    1  UNL1        0.0179
      3 C           3.8736   -4.4914   19.1129 C.ar    1  UNL1        0.1014
      4 N           5.2104   -4.7358   19.7482 N.ar    1  UNL1       -0.2149
      5 C           5.8366   -3.6783   20.6082 C.ar    1  UNL1        0.1933
      6 C           5.1260   -2.3765   20.8330 C.ar    1  UNL1        0.0487
      7 C           2.6701    0.0129   19.2513 C.3     1  UNL1        0.0222
      8 C           3.0788   -0.8303   20.4225 C.3     1  UNL1        0.0804
      9 N           2.7770   -0.3719   21.8185 N.3     1  UNL1       -0.2674
     10 C           1.8507    0.7862   22.0437 C.3     1  UNL1        0.0941
     11 C           1.5489    1.2447   23.4397 C.3     1  UNL1        0.1107
     12 N           2.1734    0.5451   24.6104 N.am    1  UNL1       -0.2764
     13 C           1.8716    1.0036   26.0063 C.2     1  UNL1        0.2344
     14 O           2.4962    0.3040   27.1770 O.2     1  UNL1       -0.2746
     15 C           3.0998   -0.6130   24.3851 C.3     1  UNL1        0.1107
     16 C           3.4016   -1.0715   22.9891 C.3     1  UNL1        0.0941
     17 C           0.9453    2.1616   26.2316 C.3     1  UNL1        0.1882
     18 C          -0.3700    1.9470   26.9200 C.3     1  UNL1        0.4063
     19 F          -1.6854    1.7325   27.6084 F       1  UNL1       -0.1695
     20 F           0.2834    2.1976   28.2467 F       1  UNL1       -0.1695
     21 F          -1.0235    1.6965   25.5933 F       1  UNL1       -0.1695
     22 N           7.1732   -3.9226   21.2435 N.pl3   1  UNL1       -0.1848
     23 H           7.9978   -3.7863   20.7232 H       1  UNL1        0.2530
     24 C           7.2536   -4.3747   22.6715 C.cat   1  UNL1        0.4252
     25 N           7.7314   -5.7148   23.1465 N.2     1  UNL1       -0.0676
     26 C           7.6434   -5.7344   24.6438 C.2     1  UNL1        0.1887
     27 C           7.9791   -6.7899   25.6552 C.2     1  UNL1        0.0396
     28 C           7.7826   -6.5174   27.1171 C.2     1  UNL1        0.0008
     29 C           7.2503   -5.1893   27.5675 C.2     1  UNL1        0.0033
     30 C           6.9146   -4.1337   26.5560 C.3     1  UNL1        0.0950
     31 C           7.1111   -4.4063   25.0942 C.2     1  UNL1        0.1745
     32 N           6.8702   -3.5660   23.8752 N.2     1  UNL1       -0.0714
     33 C           7.0537   -4.9167   29.0294 C.ar    1  UNL1        0.0823
     34 C           6.6758   -3.5407   29.4916 C.ar    1  UNL1        0.0532
     35 C           6.4793   -3.2682   30.9536 C.ar    1  UNL1        0.1351
     36 N           6.6607   -4.3718   31.9532 N.ar    1  UNL1       -0.2090
     37 C           7.0386   -5.7478   31.4909 C.ar    1  UNL1        0.2000
     38 N           7.2351   -6.0203   30.0290 N.ar    1  UNL1       -0.2242
     39 N           6.1014   -1.8922   31.4158 N.pl3   1  UNL1       -0.2897
     40 C           5.8407   -0.8089   30.4116 C.3     1  UNL1        0.1136
     41 C           5.9842   -1.5995   32.8823 C.3     1  UNL1        0.1136
@<TRIPOS>BOND
     1     8     7    1
     2     8     1    1
     3     1     2   ar
     4     2     3   ar
     5     3     4   ar
     6     4     5   ar
     7     5    22    1
     8    22    24    1
     9    24    25    2
    10    25    26    1
    11    26    27    2
    12    27    28    1
    13    28    29    2
    14    29    33    1
    15    33    34   ar
    16    34    35   ar
    17    35    39    1
    18    39    40    1
    19    39    41    1
    20    35    36   ar
    21    36    37   ar
    22    37    38   ar
    23    29    30    1
    24    30    31    1
    25    31    32    2
    26     5     6   ar
    27     8     9    1
    28     9    10    1
    29    10    11    1
    30    11    12    1
    31    12    13   am
    32    13    14    2
    33    13    17    1
    34    17    18    1
    35    18    19    1
    36    18    20    1
    37    18    21    1
    38    12    15    1
    39    15    16    1
    40     6     1   ar
    41    16     9    1
    42    32    24    1
    43    31    26    1
    44    38    33   ar
    45    22    23    1
@<TRIPOS>MOLECULE
*****
 41 45 0 0 0
SMALL
GASTEIGER

@<TRIPOS>ATOM
      1 C           5.0518   -2.4885   18.8430 C.ar    1  UNL1       -0.0020
      2 C           6.2798   -1.8557   18.2586 C.ar    1  UNL1        0.0179
      3 C           6.1830   -0.5275   17.5685 C.ar    1  UNL1        0.1014
      4 N           4.8581    0.1680   17.4627 N.ar    1  UNL1       -0.2149
      5 C           3.6301   -0.4648   18.0471 C.ar    1  UNL1        0.1933
      6 C           3.7269   -1.7931   18.7373 C.ar    1  UNL1        0.0487
      7 C           4.6055   -5.0479   18.8702 C.3     1  UNL1        0.0222
      8 C           5.1486   -3.8168   19.5332 C.3     1  UNL1        0.0804
      9 N           5.7885   -3.9141   20.8863 N.3     1  UNL1       -0.2674
     10 C           4.9658   -3.7000   22.1222 C.3     1  UNL1        0.0941
     11 C           5.6058   -3.7972   23.4754 C.3     1  UNL1        0.1107
     12 N           7.0684   -4.1085   23.5927 N.am    1  UNL1       -0.2764
     13 C           7.7084   -4.2057   24.9458 C.2     1  UNL1        0.2344
     14 O           9.1710   -4.5170   25.0631 O.2     1  UNL1       -0.2746
     15 C           7.8911   -4.3226   22.3568 C.3     1  UNL1        0.1107
     16 C           7.2512   -4.2254   21.0036 C.3     1  UNL1        0.0941
     17 C           6.8857   -3.9916   26.1816 C.3     1  UNL1        0.1882
     18 C           6.9676   -4.9698   27.3159 C.3     1  UNL1        0.4063
     19 F           7.0494   -5.9479   28.4501 F       1  UNL1       -0.1695
     20 F           7.6658   -3.9399   28.1537 F       1  UNL1       -0.1695
     21 F           6.2694   -5.9997   26.4782 F       1  UNL1       -0.1695
     22 N           2.3053    0.2306   17.9413 N.pl3   1  UNL1       -0.1848
     23 H           1.8545    0.3008   17.0689 H       1  UNL1        0.2530
     24 C           1.6674    0.8192   19.1647 C.cat   1  UNL1        0.4252
     25 N           0.4932    1.7523   19.1845 N.2     1  UNL1       -0.0676
     26 C           0.1917    2.0878   20.6151 C.2     1  UNL1        0.1887
     27 C          -0.8547    2.9604   21.2424 C.2     1  UNL1        0.0396
     28 C          -0.9131    3.1072   22.7340 C.2     1  UNL1        0.0008
     29 C           0.0748    2.3813   23.5983 C.2     1  UNL1        0.0033
     30 C           1.1212    1.5087   22.9711 C.3     1  UNL1        0.0950
     31 C           1.1797    1.3619   21.4794 C.2     1  UNL1        0.1745
     32 N           2.0917    0.5779   20.5830 N.2     1  UNL1       -0.0714
     33 C           0.0163    2.5281   25.0901 C.ar    1  UNL1        0.0823
     34 C           0.0547    1.3108   25.9655 C.ar    1  UNL1        0.0532
     35 C          -0.0039    1.4576   27.4573 C.ar    1  UNL1        0.1351
     36 N          -0.1007    2.8218   28.0734 N.ar    1  UNL1       -0.2090
     37 C          -0.1391    4.0392   27.1978 C.ar    1  UNL1        0.2000
     38 N          -0.0806    3.8923   25.7062 N.ar    1  UNL1       -0.2242
     39 N           0.0345    0.2402   28.3328 N.pl3   1  UNL1       -0.2897
     40 C           1.3512   -0.3097   28.7954 C.3     1  UNL1        0.1136
     41 C          -1.2438   -0.4272   28.7456 C.3     1  UNL1        0.1136
@<TRIPOS>BOND
     1     8     7    1
     2     8     1    1
     3     1     2   ar
     4     2     3   ar
     5     3     4   ar
     6     4     5   ar
     7     5    22    1
     8    22    24    1
     9    24    25    2
    10    25    26    1
    11    26    27    2
    12    27    28    1
    13    28    29    2
    14    29    33    1
    15    33    34   ar
    16    34    35   ar
    17    35    39    1
    18    39    40    1
    19    39    41    1
    20    35    36   ar
    21    36    37   ar
    22    37    38   ar
    23    29    30    1
    24    30    31    1
    25    31    32    2
    26     5     6   ar
    27     8     9    1
    28     9    10    1
    29    10    11    1
    30    11    12    1
    31    12    13   am
    32    13    14    2
    33    13    17    1
    34    17    18    1
    35    18    19    1
    36    18    20    1
    37    18    21    1
    38    12    15    1
    39    15    16    1
    40     6     1   ar
    41    16     9    1
    42    32    24    1
    43    31    26    1
    44    38    33   ar
    45    22    23    1
