@<TRIPOS>MOLECULE
*****
 37 40 0 0 0
SMALL
GASTEIGER

@<TRIPOS>ATOM
      1 C          -9.5591  -17.1089   24.2544 C.3     1  UNL1        0.0468
      2 C          -9.9056  -18.2950   25.9511 C.3     1  UNL1        0.0069
      3 C          -8.8864  -16.5010   23.9262 C.3     1  UNL1        0.0500
      4 C          -8.7752  -15.9743   23.1261 C.3     1  UNL1        0.1694
      5 C          -8.9827  -15.3917   21.8797 C.3     1  UNL1        0.0435
      6 C          -8.3227  -14.4366   20.9299 C.3     1  UNL1        0.0040
      7 C          -9.4962  -15.9231   22.2482 C.3     1  UNL1        0.0038
      8 C          -7.5163  -15.6354   23.9094 C.3     1  UNL1        0.0001
      9 C         -10.0234  -16.4755   22.6385 C.3     1  UNL1        0.0001
     10 C         -10.6503  -16.6621   22.2796 C.3     1  UNL1        0.0005
     11 C         -11.3364  -16.8553   21.8675 C.3     1  UNL1        0.0093
     12 C         -12.4225  -16.9449   20.8368 C.3     1  UNL1        0.0082
     13 C         -12.0472  -16.0546   19.6894 C.3     1  UNL1        0.0645
     14 C         -10.7291  -15.4149   20.0109 C.2     1  UNL1        0.1504
     15 O          -9.9816  -14.4497   19.1392 O.2     1  UNL1       -0.2961
     16 C         -10.2898  -15.9097   21.3570 C.3     1  UNL1        0.0610
     17 C         -10.9149  -17.3049   23.1151 C.3     1  UNL1        0.0276
     18 C         -12.7832  -18.4666   23.1054 C.3     1  UNL1        0.0025
     19 C         -10.3994  -17.4419   23.9184 C.3     1  UNL1        0.1141
     20 O         -11.3674  -18.8427   25.3114 O.3     1  UNL1       -0.3841
     21 H         -10.8138  -18.9480   26.1009 H       1  UNL1        0.2103
     22 C          -8.1815  -16.4727   27.1773 C.2     1  UNL1       -0.0048
     23 C          -8.3548  -17.3306   25.9591 C.2     1  UNL1       -0.0243
     24 O          -6.9069  -14.8127   23.1359 O.3     1  UNL1       -0.4516
     25 C          -5.7334  -15.2862   23.9411 C.2     1  UNL1        0.3283
     26 O          -5.6641  -14.9918   25.4103 O.2     1  UNL1       -0.2491
     27 C          -4.6292  -16.0542   23.2773 C.3     1  UNL1        0.1715
     28 S          -4.5328  -17.5398   23.4614 S.3     1  UNL1       -0.1003
     29 C          -5.1017  -18.4625   22.4245 C.ar    1  UNL1        0.0447
     30 C          -4.1954  -19.3809   21.6596 C.ar    1  UNL1        0.1050
     31 N          -4.7643  -20.3036   20.6228 N.ar    1  UNL1       -0.2421
     32 C          -6.2394  -20.3079   20.3509 C.ar    1  UNL1        0.0970
     33 C          -7.1457  -19.3895   21.1158 C.ar    1  UNL1        0.0266
     34 C          -6.5768  -18.4667   22.1527 C.ar    1  UNL1        0.0074
     35 C          -8.6209  -19.3937   20.8440 C.3     1  UNL1        0.1652
     36 O          -9.1607  -18.7079   19.6240 O.3     1  UNL1       -0.3772
     37 H          -9.0120  -17.7522   19.6979 H       1  UNL1        0.2109
@<TRIPOS>BOND
     1    22    23    2
     2    23     1    1
     3     1     2    1
     4     1     3    1
     5     3     4    1
     6     4    24    1
     7    24    25    1
     8    25    26    2
     9    25    27    1
    10    27    28    1
    11    28    29    1
    12    29    30   ar
    13    30    31   ar
    14    31    32   ar
    15    32    33   ar
    16    33    35    1
    17    35    36    1
    18    33    34   ar
    19     4     5    1
    20     5     6    1
    21     5     7    1
    22     7     8    1
    23     7     9    1
    24     9    10    1
    25    11    10    1
    26    11    12    1
    27    12    13    1
    28    13    14    1
    29    14    15    2
    30    16    14    1
    31    11    17    1
    32    17    18    1
    33    17    19    1
    34    19    20    1
    35    19     1    1
    36    34    29   ar
    37    16     5    1
    38    16    11    1
    39    36    37    1
    40    20    21    1
@<TRIPOS>MOLECULE
*****
 37 40 0 0 0
SMALL
GASTEIGER

@<TRIPOS>ATOM
      1 C          -9.8425  -17.2174   24.1171 C.3     1  UNL1        0.0468
      2 C         -10.2613  -18.4208   25.7851 C.3     1  UNL1        0.0069
      3 C          -9.1428  -16.6283   23.8121 C.3     1  UNL1        0.0500
      4 C          -8.9986  -16.0915   23.0241 C.3     1  UNL1        0.1694
      5 C          -9.1629  -15.4793   21.7853 C.3     1  UNL1        0.0435
      6 C          -8.4524  -14.5315   20.8651 C.3     1  UNL1        0.0040
      7 C          -9.7015  -15.9986   22.1349 C.3     1  UNL1        0.0038
      8 C          -7.7427  -15.8122   23.8352 C.3     1  UNL1        0.0001
      9 C         -10.2549  -16.5387   22.5056 C.3     1  UNL1        0.0001
     10 C         -10.8814  -16.6961   22.1325 C.3     1  UNL1        0.0005
     11 C         -11.5665  -16.8571   21.7050 C.3     1  UNL1        0.0093
     12 C         -12.6364  -16.8890   20.6542 C.3     1  UNL1        0.0082
     13 C         -12.2092  -15.9922   19.5303 C.3     1  UNL1        0.0645
     14 C         -10.8752  -15.4060   19.8865 C.2     1  UNL1        0.1504
     15 O         -10.0783  -14.4527   19.0461 O.2     1  UNL1       -0.2961
     16 C         -10.4780  -15.9405   21.2305 C.3     1  UNL1        0.0610
     17 C         -11.1837  -17.3440   22.9512 C.3     1  UNL1        0.0276
     18 C         -13.0916  -18.4376   22.8873 C.3     1  UNL1        0.0025
     19 C         -10.6879  -17.5139   23.7605 C.3     1  UNL1        0.1141
     20 O         -11.7299  -18.9041   25.1101 O.3     1  UNL1       -0.3841
     21 H         -11.1946  -19.0435   25.9069 H       1  UNL1        0.2103
     22 C          -8.3328  -16.6019   26.9786 C.2     1  UNL1       -0.0048
     23 C          -8.6776  -17.5131   25.8380 C.2     1  UNL1       -0.0243
     24 O          -7.0907  -14.9980   23.0879 O.3     1  UNL1       -0.4516
     25 C          -5.9629  -15.5062   23.9361 C.2     1  UNL1        0.3283
     26 O          -5.3443  -14.6161   24.9730 O.2     1  UNL1       -0.2491
     27 C          -5.4535  -16.9043   23.7476 C.3     1  UNL1        0.1715
     28 S          -3.9832  -17.1511   23.5827 S.3     1  UNL1       -0.1003
     29 C          -3.4869  -17.9926   22.4444 C.ar    1  UNL1        0.0447
     30 C          -4.2603  -19.2037   22.0142 C.ar    1  UNL1        0.1050
     31 N          -3.7640  -20.0451   20.8759 N.ar    1  UNL1       -0.2421
     32 C          -2.4943  -19.6754   20.1679 C.ar    1  UNL1        0.0970
     33 C          -1.7209  -18.4643   20.5981 C.ar    1  UNL1        0.0266
     34 C          -2.2172  -17.6228   21.7364 C.ar    1  UNL1        0.0074
     35 C          -0.4513  -18.0946   19.8900 C.3     1  UNL1        0.1652
     36 O          -0.4698  -17.8071   18.4179 O.3     1  UNL1       -0.3772
     37 H          -0.6962  -18.6163   17.9333 H       1  UNL1        0.2109
@<TRIPOS>BOND
     1    22    23    2
     2    23     1    1
     3     1     2    1
     4     1     3    1
     5     3     4    1
     6     4    24    1
     7    24    25    1
     8    25    26    2
     9    25    27    1
    10    27    28    1
    11    28    29    1
    12    29    30   ar
    13    30    31   ar
    14    31    32   ar
    15    32    33   ar
    16    33    35    1
    17    35    36    1
    18    33    34   ar
    19     4     5    1
    20     5     6    1
    21     5     7    1
    22     7     8    1
    23     7     9    1
    24     9    10    1
    25    11    10    1
    26    11    12    1
    27    12    13    1
    28    13    14    1
    29    14    15    2
    30    16    14    1
    31    11    17    1
    32    17    18    1
    33    17    19    1
    34    19    20    1
    35    19     1    1
    36    34    29   ar
    37    16     5    1
    38    16    11    1
    39    36    37    1
    40    20    21    1
@<TRIPOS>MOLECULE
*****
 37 40 0 0 0
SMALL
GASTEIGER

@<TRIPOS>ATOM
      1 C           4.3401   -2.3630   22.1365 C.3     1  UNL1        0.0468
      2 C           5.6973   -3.5390   23.2233 C.3     1  UNL1        0.0069
      3 C           4.0575   -2.2499   21.2216 C.3     1  UNL1        0.0500
      4 C           3.4193   -1.6855   20.7699 C.3     1  UNL1        0.1694
      5 C           2.4377   -0.7344   20.5091 C.3     1  UNL1        0.0435
      6 C           1.6625   -0.1640   19.3586 C.3     1  UNL1        0.0040
      7 C           2.7470   -0.9071   21.2551 C.3     1  UNL1        0.0038
      8 C           3.9987   -2.4961   19.6208 C.3     1  UNL1        0.0001
      9 C           3.0740   -1.0932   22.0257 C.3     1  UNL1        0.0001
     10 C           2.8103   -0.7123   22.6104 C.3     1  UNL1        0.0005
     11 C           2.5062   -0.2813   23.2426 C.3     1  UNL1        0.0093
     12 C           1.7249    0.6777   24.0910 C.3     1  UNL1        0.0082
     13 C           0.8024    1.4464   23.1920 C.3     1  UNL1        0.0645
     14 C           1.0136    0.9625   21.7880 C.2     1  UNL1        0.1504
     15 O           0.2976    1.4591   20.5672 O.2     1  UNL1       -0.2961
     16 C           2.0666   -0.1053   21.8193 C.3     1  UNL1        0.0610
     17 C           3.4817   -1.2737   23.2549 C.3     1  UNL1        0.0276
     18 C           3.5360   -0.9140   25.4247 C.3     1  UNL1        0.0025
     19 C           4.1016   -1.9586   22.9788 C.3     1  UNL1        0.1141
     20 O           5.2385   -2.7952   24.6663 O.3     1  UNL1       -0.3841
     21 H           5.8462   -3.4773   24.3403 H       1  UNL1        0.2103
     22 C           6.9215   -3.7444   20.6286 C.2     1  UNL1       -0.0048
     23 C           5.6521   -3.8376   21.4222 C.2     1  UNL1       -0.0243
     24 O           3.3650   -2.0452   18.6002 O.3     1  UNL1       -0.4516
     25 C           4.5448   -1.6789   17.7494 C.2     1  UNL1        0.3283
     26 O           5.6210   -2.6897   17.4844 O.2     1  UNL1       -0.2491
     27 C           4.6484   -0.3020   17.1636 C.3     1  UNL1        0.1715
     28 S           5.6180    0.6871   17.7395 S.3     1  UNL1       -0.1003
     29 C           5.5801    1.0089   19.2041 C.ar    1  UNL1        0.0447
     30 C           4.6465    2.0655   19.7158 C.ar    1  UNL1        0.1050
     31 N           4.6086    2.3874   21.1804 N.ar    1  UNL1       -0.2421
     32 C           5.5044    1.6526   22.1332 C.ar    1  UNL1        0.0970
     33 C           6.4380    0.5960   21.6214 C.ar    1  UNL1        0.0266
     34 C           6.4759    0.2742   20.1568 C.ar    1  UNL1        0.0074
     35 C           7.3338   -0.1387   22.5742 C.3     1  UNL1        0.1652
     36 O           6.9304   -0.2999   24.0100 O.3     1  UNL1       -0.3772
     37 H           6.9135    0.5692   24.4405 H       1  UNL1        0.2109
@<TRIPOS>BOND
     1    22    23    2
     2    23     1    1
     3     1     2    1
     4     1     3    1
     5     3     4    1
     6     4    24    1
     7    24    25    1
     8    25    26    2
     9    25    27    1
    10    27    28    1
    11    28    29    1
    12    29    30   ar
    13    30    31   ar
    14    31    32   ar
    15    32    33   ar
    16    33    35    1
    17    35    36    1
    18    33    34   ar
    19     4     5    1
    20     5     6    1
    21     5     7    1
    22     7     8    1
    23     7     9    1
    24     9    10    1
    25    11    10    1
    26    11    12    1
    27    12    13    1
    28    13    14    1
    29    14    15    2
    30    16    14    1
    31    11    17    1
    32    17    18    1
    33    17    19    1
    34    19    20    1
    35    19     1    1
    36    34    29   ar
    37    16     5    1
    38    16    11    1
    39    36    37    1
    40    20    21    1
@<TRIPOS>MOLECULE
*****
 37 40 0 0 0
SMALL
GASTEIGER

@<TRIPOS>ATOM
      1 C         -11.9295   -5.2264   19.0452 C.3     1  UNL1        0.0468
      2 C          -9.8400   -5.2698   18.8507 C.3     1  UNL1        0.0069
      3 C         -12.6620   -5.8523   19.0837 C.3     1  UNL1        0.0500
      4 C         -13.6190   -5.7772   19.1753 C.3     1  UNL1        0.1694
      5 C         -14.9035   -5.2615   19.3174 C.3     1  UNL1        0.0435
      6 C         -16.3258   -5.7252   19.4269 C.3     1  UNL1        0.0040
      7 C         -14.2121   -4.8120   19.2745 C.3     1  UNL1        0.0038
      8 C         -13.4235   -7.2829   19.0876 C.3     1  UNL1        0.0001
      9 C         -13.4889   -4.3534   19.2292 C.3     1  UNL1        0.0001
     10 C         -13.5513   -3.6111   19.2693 C.3     1  UNL1        0.0005
     11 C         -13.6413   -2.7939   19.3154 C.3     1  UNL1        0.0093
     12 C         -14.2077   -1.4098   19.4316 C.3     1  UNL1        0.0082
     13 C         -15.6972   -1.5282   19.5633 C.3     1  UNL1        0.0645
     14 C         -16.0514   -2.9853   19.5285 C.2     1  UNL1        0.1504
     15 O         -17.4335   -3.5594   19.6292 O.2     1  UNL1       -0.2961
     16 C         -14.7807   -3.7676   19.3752 C.3     1  UNL1        0.0610
     17 C         -12.4714   -3.5340   19.1734 C.3     1  UNL1        0.0276
     18 C         -11.4695   -1.5753   19.1718 C.3     1  UNL1        0.0025
     19 C         -11.8506   -4.2661   19.0823 C.3     1  UNL1        0.1141
     20 O          -9.7645   -3.5860   18.9217 O.3     1  UNL1       -0.3841
     21 H          -9.1798   -4.3547   18.8323 H       1  UNL1        0.2103
     22 C         -10.4167   -7.8258   17.7032 C.2     1  UNL1       -0.0048
     23 C         -10.6716   -6.8957   18.8521 C.2     1  UNL1       -0.0243
     24 O         -14.6208   -7.7359   19.1769 O.3     1  UNL1       -0.4516
     25 C         -14.6603   -8.5592   17.9237 C.2     1  UNL1        0.3283
     26 O         -14.0330   -8.0389   16.6644 O.2     1  UNL1       -0.2491
     27 C         -15.3272   -9.9027   17.9297 C.3     1  UNL1        0.1715
     28 S         -16.5135  -10.1473   18.8145 S.3     1  UNL1       -0.1003
     29 C         -17.8302   -9.5015   18.4993 C.ar    1  UNL1        0.0447
     30 C         -18.5707   -9.8790   17.2506 C.ar    1  UNL1        0.1050
     31 N         -19.8874   -9.2332   16.9354 N.ar    1  UNL1       -0.2421
     32 C         -20.4634   -8.2100   17.8688 C.ar    1  UNL1        0.0970
     33 C         -19.7229   -7.8326   19.1174 C.ar    1  UNL1        0.0266
     34 C         -18.4062   -8.4783   19.4327 C.ar    1  UNL1        0.0074
     35 C         -20.2990   -6.8094   20.0508 C.3     1  UNL1        0.1652
     36 O         -19.8339   -5.3849   19.9816 O.3     1  UNL1       -0.3772
     37 H         -18.9011   -5.3363   20.2431 H       1  UNL1        0.2109
@<TRIPOS>BOND
     1    22    23    2
     2    23     1    1
     3     1     2    1
     4     1     3    1
     5     3     4    1
     6     4    24    1
     7    24    25    1
     8    25    26    2
     9    25    27    1
    10    27    28    1
    11    28    29    1
    12    29    30   ar
    13    30    31   ar
    14    31    32   ar
    15    32    33   ar
    16    33    35    1
    17    35    36    1
    18    33    34   ar
    19     4     5    1
    20     5     6    1
    21     5     7    1
    22     7     8    1
    23     7     9    1
    24     9    10    1
    25    11    10    1
    26    11    12    1
    27    12    13    1
    28    13    14    1
    29    14    15    2
    30    16    14    1
    31    11    17    1
    32    17    18    1
    33    17    19    1
    34    19    20    1
    35    19     1    1
    36    34    29   ar
    37    16     5    1
    38    16    11    1
    39    36    37    1
    40    20    21    1
@<TRIPOS>MOLECULE
*****
 37 40 0 0 0
SMALL
GASTEIGER

@<TRIPOS>ATOM
      1 C           2.3945   -0.5613   21.2334 C.3     1  UNL1        0.0468
      2 C           0.8818    0.8853   21.3909 C.3     1  UNL1        0.0069
      3 C           2.8184   -1.0876   20.5456 C.3     1  UNL1        0.0500
      4 C           3.5203   -1.7486   20.5280 C.3     1  UNL1        0.1694
      5 C           4.5315   -2.6232   20.9137 C.3     1  UNL1        0.0435
      6 C           5.4793   -3.6227   20.3198 C.3     1  UNL1        0.0040
      7 C           4.1079   -2.1307   21.4236 C.3     1  UNL1        0.0038
      8 C           3.1296   -1.6582   19.0609 C.3     1  UNL1        0.0001
      9 C           3.6630   -1.6158   21.9454 C.3     1  UNL1        0.0001
     10 C           3.8312   -1.6368   22.6719 C.3     1  UNL1        0.0005
     11 C           4.0317   -1.6746   23.4696 C.3     1  UNL1        0.0093
     12 C           4.6695   -2.0257   24.7811 C.3     1  UNL1        0.0082
     13 C           5.7231   -3.0614   24.5215 C.3     1  UNL1        0.0645
     14 C           5.7364   -3.3504   23.0497 C.2     1  UNL1        0.1504
     15 O           6.6369   -4.3254   22.3508 O.2     1  UNL1       -0.2961
     16 C           4.6910   -2.4934   22.3996 C.3     1  UNL1        0.0610
     17 C           3.0659   -0.8862   22.8514 C.3     1  UNL1        0.0276
     18 C           2.6692   -0.1332   24.8803 C.3     1  UNL1        0.0025
     19 C           2.4971   -0.4779   22.1886 C.3     1  UNL1        0.1141
     20 O           1.1070    0.9880   23.0597 O.3     1  UNL1       -0.3841
     21 H           0.5581    1.3702   22.3571 H       1  UNL1        0.2103
     22 C           1.5619    1.1005   18.5148 C.2     1  UNL1       -0.0048
     23 C           1.2111    0.2603   19.7068 C.2     1  UNL1       -0.0243
     24 O           3.9170   -2.5014   18.4992 O.3     1  UNL1       -0.4516
     25 C           4.5895   -1.6190   17.4899 C.2     1  UNL1        0.3283
     26 O           3.8205   -1.1127   16.3057 O.2     1  UNL1       -0.2491
     27 C           6.0310   -1.2428   17.6646 C.3     1  UNL1        0.1715
     28 S           6.3962    0.1441   18.1042 S.3     1  UNL1       -0.1003
     29 C           6.2496    0.5374   19.5443 C.ar    1  UNL1        0.0447
     30 C           7.1357   -0.0812   20.5846 C.ar    1  UNL1        0.1050
     31 N           6.9891    0.3121   22.0247 N.ar    1  UNL1       -0.2421
     32 C           5.9564    1.3239   22.4244 C.ar    1  UNL1        0.0970
     33 C           5.0703    1.9425   21.3841 C.ar    1  UNL1        0.0266
     34 C           5.2169    1.5492   19.9440 C.ar    1  UNL1        0.0074
     35 C           4.0377    2.9544   21.7839 C.3     1  UNL1        0.1652
     36 O           3.3795    2.8632   23.1287 O.3     1  UNL1       -0.3772
     37 H           2.8419    2.0569   23.1716 H       1  UNL1        0.2109
@<TRIPOS>BOND
     1    22    23    2
     2    23     1    1
     3     1     2    1
     4     1     3    1
     5     3     4    1
     6     4    24    1
     7    24    25    1
     8    25    26    2
     9    25    27    1
    10    27    28    1
    11    28    29    1
    12    29    30   ar
    13    30    31   ar
    14    31    32   ar
    15    32    33   ar
    16    33    35    1
    17    35    36    1
    18    33    34   ar
    19     4     5    1
    20     5     6    1
    21     5     7    1
    22     7     8    1
    23     7     9    1
    24     9    10    1
    25    11    10    1
    26    11    12    1
    27    12    13    1
    28    13    14    1
    29    14    15    2
    30    16    14    1
    31    11    17    1
    32    17    18    1
    33    17    19    1
    34    19    20    1
    35    19     1    1
    36    34    29   ar
    37    16     5    1
    38    16    11    1
    39    36    37    1
    40    20    21    1
@<TRIPOS>MOLECULE
*****
 37 40 0 0 0
SMALL
GASTEIGER

@<TRIPOS>ATOM
      1 C           4.4508   -2.6265   21.1023 C.3     1  UNL1        0.0468
      2 C           5.7681   -4.1347   20.4733 C.3     1  UNL1        0.0069
      3 C           3.7990   -2.0319   20.7134 C.3     1  UNL1        0.0500
      4 C           3.2120   -1.3468   21.0540 C.3     1  UNL1        0.1694
      5 C           2.5471   -0.4699   21.9055 C.3     1  UNL1        0.0435
      6 C           1.5042    0.6074   21.8648 C.3     1  UNL1        0.0040
      7 C           3.1205   -1.0167   22.1384 C.3     1  UNL1        0.0038
      8 C           2.8901   -1.3334   19.5676 C.3     1  UNL1        0.0001
      9 C           3.7168   -1.5874   22.3709 C.3     1  UNL1        0.0001
     10 C           3.8971   -1.6186   23.0941 C.3     1  UNL1        0.0005
     11 C           4.0820   -1.6375   23.8963 C.3     1  UNL1        0.0093
     12 C           4.1316   -1.3698   25.3713 C.3     1  UNL1        0.0082
     13 C           3.1483   -0.2793   25.6778 C.3     1  UNL1        0.0645
     14 C           2.4910    0.1270   24.3922 C.2     1  UNL1        0.1504
     15 O           1.4409    1.1866   24.2353 O.2     1  UNL1       -0.2961
     16 C           3.0680   -0.7124   23.2911 C.3     1  UNL1        0.0610
     17 C           4.6074   -2.4083   22.8636 C.3     1  UNL1        0.0276
     18 C           5.8257   -3.3350   24.4438 C.3     1  UNL1        0.0025
     19 C           4.7856   -2.7824   21.9930 C.3     1  UNL1        0.1141
     20 O           6.3152   -4.3626   22.0528 O.3     1  UNL1       -0.3841
     21 H           6.4596   -4.7068   21.1575 H       1  UNL1        0.2103
     22 C           5.5418   -2.8288   18.0015 C.2     1  UNL1       -0.0048
     23 C           4.7568   -3.3654   19.1616 C.2     1  UNL1       -0.0243
     24 O           1.9937   -0.4201   19.4738 O.3     1  UNL1       -0.4516
     25 C           2.6591    0.3029   18.3405 C.2     1  UNL1        0.3283
     26 O           3.1006   -0.4549   17.1236 O.2     1  UNL1       -0.2491
     27 C           2.8830    1.7837   18.4240 C.3     1  UNL1        0.1715
     28 S           4.2495    2.3194   18.7332 S.3     1  UNL1       -0.1003
     29 C           5.0139    1.7900   19.9103 C.ar    1  UNL1        0.0447
     30 C           4.7706    2.3553   21.2783 C.ar    1  UNL1        0.1050
     31 N           5.5350    1.8259   22.4553 N.ar    1  UNL1       -0.2421
     32 C           6.5427    0.7313   22.2644 C.ar    1  UNL1        0.0970
     33 C           6.7860    0.1660   20.8965 C.ar    1  UNL1        0.0266
     34 C           6.0216    0.6954   19.7194 C.ar    1  UNL1        0.0074
     35 C           7.7937   -0.9286   20.7056 C.3     1  UNL1        0.1652
     36 O           8.1150   -1.8581   21.8382 O.3     1  UNL1       -0.3772
     37 H           8.5473   -1.3620   22.5509 H       1  UNL1        0.2109
@<TRIPOS>BOND
     1    22    23    2
     2    23     1    1
     3     1     2    1
     4     1     3    1
     5     3     4    1
     6     4    24    1
     7    24    25    1
     8    25    26    2
     9    25    27    1
    10    27    28    1
    11    28    29    1
    12    29    30   ar
    13    30    31   ar
    14    31    32   ar
    15    32    33   ar
    16    33    35    1
    17    35    36    1
    18    33    34   ar
    19     4     5    1
    20     5     6    1
    21     5     7    1
    22     7     8    1
    23     7     9    1
    24     9    10    1
    25    11    10    1
    26    11    12    1
    27    12    13    1
    28    13    14    1
    29    14    15    2
    30    16    14    1
    31    11    17    1
    32    17    18    1
    33    17    19    1
    34    19    20    1
    35    19     1    1
    36    34    29   ar
    37    16     5    1
    38    16    11    1
    39    36    37    1
    40    20    21    1
@<TRIPOS>MOLECULE
*****
 37 40 0 0 0
SMALL
GASTEIGER

@<TRIPOS>ATOM
      1 C           4.4511   -2.4046   20.1016 C.3     1  UNL1        0.0468
      2 C           5.6430   -3.6039   18.8579 C.3     1  UNL1        0.0069
      3 C           4.2805   -2.2914   21.0438 C.3     1  UNL1        0.0500
      4 C           3.7133   -1.7157   21.5698 C.3     1  UNL1        0.1694
      5 C           2.7919   -0.7440   21.9481 C.3     1  UNL1        0.0435
      6 C           2.1708   -0.1640   23.1842 C.3     1  UNL1        0.0040
      7 C           3.0074   -0.9185   21.1703 C.3     1  UNL1        0.0038
      8 C           4.4039   -2.5476   22.6394 C.3     1  UNL1        0.0001
      9 C           3.2373   -1.1066   20.3658 C.3     1  UNL1        0.0001
     10 C           2.9159   -0.7156   19.8178 C.3     1  UNL1        0.0005
     11 C           2.5502   -0.2732   19.2275 C.3     1  UNL1        0.0093
     12 C           1.6978    0.7097   18.4809 C.3     1  UNL1        0.0082
     13 C           0.9057    1.4931   19.4853 C.3     1  UNL1        0.0645
     14 C           1.2685    0.9944   20.8526 C.2     1  UNL1        0.1504
     15 O           0.7125    1.4988   22.1513 O.2     1  UNL1       -0.2961
     16 C           2.2848   -0.0972   20.6933 C.3     1  UNL1        0.0610
     17 C           3.4936   -1.2877   19.0965 C.3     1  UNL1        0.0276
     18 C           3.3016   -0.9140   16.9369 C.3     1  UNL1        0.0025
     19 C           4.1251   -1.9888   19.2949 C.3     1  UNL1        0.1141
     20 O           5.0361   -2.8393   17.4820 O.3     1  UNL1       -0.3841
     21 H           5.6614   -3.5376   17.7315 H       1  UNL1        0.2103
     22 C           7.1703   -3.8547   21.2631 C.2     1  UNL1       -0.0048
     23 C           5.8023   -3.9141   20.6505 C.2     1  UNL1       -0.0243
     24 O           3.9052   -2.0894   23.7293 O.3     1  UNL1       -0.4516
     25 C           5.2168   -1.8536   24.4177 C.2     1  UNL1        0.3283
     26 O           6.0610   -3.0185   24.8425 O.2     1  UNL1       -0.2491
     27 C           5.6844   -0.4530   24.6813 C.3     1  UNL1        0.1715
     28 S           6.7743    0.1445   23.8416 S.3     1  UNL1       -0.1003
     29 C           6.4929    0.5499   22.4250 C.ar    1  UNL1        0.0447
     30 C           5.5171    1.6530   22.1405 C.ar    1  UNL1        0.1050
     31 N           5.2357    2.0584   20.7240 N.ar    1  UNL1       -0.2421
     32 C           5.9301    1.3608   19.5921 C.ar    1  UNL1        0.0970
     33 C           6.9060    0.2578   19.8767 C.ar    1  UNL1        0.0266
     34 C           7.1874   -0.1477   21.2932 C.ar    1  UNL1        0.0074
     35 C           7.6004   -0.4399   18.7449 C.3     1  UNL1        0.1652
     36 O           6.9110   -0.5913   17.4213 O.3     1  UNL1       -0.3772
     37 H           6.1411   -1.1726   17.5223 H       1  UNL1        0.2109
@<TRIPOS>BOND
     1    22    23    2
     2    23     1    1
     3     1     2    1
     4     1     3    1
     5     3     4    1
     6     4    24    1
     7    24    25    1
     8    25    26    2
     9    25    27    1
    10    27    28    1
    11    28    29    1
    12    29    30   ar
    13    30    31   ar
    14    31    32   ar
    15    32    33   ar
    16    33    35    1
    17    35    36    1
    18    33    34   ar
    19     4     5    1
    20     5     6    1
    21     5     7    1
    22     7     8    1
    23     7     9    1
    24     9    10    1
    25    11    10    1
    26    11    12    1
    27    12    13    1
    28    13    14    1
    29    14    15    2
    30    16    14    1
    31    11    17    1
    32    17    18    1
    33    17    19    1
    34    19    20    1
    35    19     1    1
    36    34    29   ar
    37    16     5    1
    38    16    11    1
    39    36    37    1
    40    20    21    1
@<TRIPOS>MOLECULE
*****
 37 40 0 0 0
SMALL
GASTEIGER

@<TRIPOS>ATOM
      1 C          -9.1072  -16.6389   23.0419 C.3     1  UNL1        0.0468
      2 C         -10.0758  -15.2508   24.2831 C.3     1  UNL1        0.0069
      3 C          -8.2297  -17.0259   22.9423 C.3     1  UNL1        0.0500
      4 C          -7.8324  -17.6703   22.3449 C.3     1  UNL1        0.1694
      5 C          -7.6473  -18.5996   21.3259 C.3     1  UNL1        0.0435
      6 C          -6.5741  -19.4679   20.7391 C.3     1  UNL1        0.0040
      7 C          -8.3570  -18.2123   21.4938 C.3     1  UNL1        0.0038
      8 C          -6.6629  -17.3072   23.2469 C.3     1  UNL1        0.0001
      9 C          -9.0897  -17.8054   21.6755 C.3     1  UNL1        0.0001
     10 C          -9.6825  -17.9619   21.2506 C.3     1  UNL1        0.0005
     11 C         -10.3249  -18.1483   20.7705 C.3     1  UNL1        0.0093
     12 C         -11.2139  -18.7376   19.7158 C.3     1  UNL1        0.0082
     13 C         -10.3982  -19.7040   18.9091 C.3     1  UNL1        0.0645
     14 C          -9.0051  -19.7119   19.4652 C.2     1  UNL1        0.1504
     15 O          -7.8586  -20.5365   18.9597 O.2     1  UNL1       -0.2961
     16 C          -8.9598  -18.7504   20.6156 C.3     1  UNL1        0.0610
     17 C         -10.2666  -17.2599   21.8401 C.3     1  UNL1        0.0276
     18 C         -12.3921  -16.9018   21.3992 C.3     1  UNL1        0.0025
     19 C          -9.9510  -16.7358   22.5853 C.3     1  UNL1        0.1141
     20 O         -11.5250  -15.4623   23.4458 O.3     1  UNL1       -0.3841
     21 H         -11.1612  -14.9564   24.1892 H       1  UNL1        0.2103
     22 C          -7.9785  -15.9446   26.0568 C.2     1  UNL1       -0.0048
     23 C          -8.3115  -15.5481   24.6490 C.2     1  UNL1       -0.0243
     24 O          -5.7070  -18.0284   22.7858 O.3     1  UNL1       -0.4516
     25 C          -4.8571  -16.9198   23.3322 C.2     1  UNL1        0.3283
     26 O          -5.3020  -15.4943   23.1907 O.2     1  UNL1       -0.2491
     27 C          -3.5624  -17.2366   24.0200 C.3     1  UNL1        0.1715
     28 S          -2.3646  -17.6431   23.2137 S.3     1  UNL1       -0.1003
     29 C          -2.5475  -18.3245   21.8900 C.ar    1  UNL1        0.0447
     30 C          -2.9996  -19.7538   21.8384 C.ar    1  UNL1        0.1050
     31 N          -3.1826  -20.4352   20.5147 N.ar    1  UNL1       -0.2421
     32 C          -2.9135  -19.6872   19.2426 C.ar    1  UNL1        0.0970
     33 C          -2.4614  -18.2579   19.2942 C.ar    1  UNL1        0.0266
     34 C          -2.2784  -17.5765   20.6179 C.ar    1  UNL1        0.0074
     35 C          -2.1923  -17.5100   18.0221 C.3     1  UNL1        0.1652
     36 O          -0.9270  -17.7623   17.2571 O.3     1  UNL1       -0.3772
     37 H          -0.1670  -17.4672   17.7827 H       1  UNL1        0.2109
@<TRIPOS>BOND
     1    22    23    2
     2    23     1    1
     3     1     2    1
     4     1     3    1
     5     3     4    1
     6     4    24    1
     7    24    25    1
     8    25    26    2
     9    25    27    1
    10    27    28    1
    11    28    29    1
    12    29    30   ar
    13    30    31   ar
    14    31    32   ar
    15    32    33   ar
    16    33    35    1
    17    35    36    1
    18    33    34   ar
    19     4     5    1
    20     5     6    1
    21     5     7    1
    22     7     8    1
    23     7     9    1
    24     9    10    1
    25    11    10    1
    26    11    12    1
    27    12    13    1
    28    13    14    1
    29    14    15    2
    30    16    14    1
    31    11    17    1
    32    17    18    1
    33    17    19    1
    34    19    20    1
    35    19     1    1
    36    34    29   ar
    37    16     5    1
    38    16    11    1
    39    36    37    1
    40    20    21    1
@<TRIPOS>MOLECULE
*****
 37 40 0 0 0
SMALL
GASTEIGER

@<TRIPOS>ATOM
      1 C          -4.9796  -19.1594   21.6288 C.3     1  UNL1        0.0468
      2 C          -3.3546  -20.1783   20.7761 C.3     1  UNL1        0.0069
      3 C          -5.9425  -19.1710   21.5797 C.3     1  UNL1        0.0500
      4 C          -6.6528  -18.6726   22.0003 C.3     1  UNL1        0.1694
      5 C          -7.3517  -17.7648   22.7900 C.3     1  UNL1        0.0435
      6 C          -8.7604  -17.3551   23.1027 C.3     1  UNL1        0.0040
      7 C          -6.5295  -17.8351   22.7597 C.3     1  UNL1        0.0038
      8 C          -7.4220  -19.6319   21.1052 C.3     1  UNL1        0.0001
      9 C          -5.6765  -17.9153   22.7217 C.3     1  UNL1        0.0001
     10 C          -5.2705  -17.4585   23.1495 C.3     1  UNL1        0.0005
     11 C          -4.8403  -16.9455   23.6288 C.3     1  UNL1        0.0093
     12 C          -4.4389  -15.8798   24.6051 C.3     1  UNL1        0.0082
     13 C          -5.6888  -15.2393   25.1319 C.3     1  UNL1        0.0645
     14 C          -6.8626  -15.9092   24.4813 C.2     1  UNL1        0.1504
     15 O          -8.3072  -15.5821   24.7181 O.2     1  UNL1       -0.2961
     16 C          -6.3383  -16.9638   23.5524 C.3     1  UNL1        0.0610
     17 C          -4.3697  -17.9279   22.7628 C.3     1  UNL1        0.0276
     18 C          -2.3762  -17.2775   23.4286 C.3     1  UNL1        0.0025
     19 C          -4.3280  -18.6444   22.1189 C.3     1  UNL1        0.1141
     20 O          -2.2620  -19.2454   21.6604 O.3     1  UNL1       -0.3841
     21 H          -2.2714  -19.9658   21.0109 H       1  UNL1        0.2103
     22 C          -5.8992  -21.9173   20.0816 C.2     1  UNL1       -0.0048
     23 C          -5.0094  -20.7181   20.2234 C.2     1  UNL1       -0.0243
     24 O          -8.6462  -19.3229   21.3344 O.3     1  UNL1       -0.4516
     25 C          -8.9531  -19.4197   19.8694 C.2     1  UNL1        0.3283
     26 O          -7.8643  -19.2083   18.8595 O.2     1  UNL1       -0.2491
     27 C         -10.3486  -19.7280   19.4142 C.3     1  UNL1        0.1715
     28 S         -11.3811  -18.6406   19.3717 S.3     1  UNL1       -0.1003
     29 C         -11.6738  -17.8357   20.6032 C.ar    1  UNL1        0.0447
     30 C         -11.3958  -16.3618   20.6194 C.ar    1  UNL1        0.1050
     31 N         -11.6885  -15.5570   21.8509 N.ar    1  UNL1       -0.2421
     32 C         -12.2592  -16.2261   23.0661 C.ar    1  UNL1        0.0970
     33 C         -12.5371  -17.7000   23.0499 C.ar    1  UNL1        0.0266
     34 C         -12.2444  -18.5049   21.8184 C.ar    1  UNL1        0.0074
     35 C         -13.1078  -18.3691   24.2650 C.3     1  UNL1        0.1652
     36 O         -14.5343  -18.1217   24.6572 O.3     1  UNL1       -0.3772
     37 H         -14.6418  -17.1934   24.9174 H       1  UNL1        0.2109
@<TRIPOS>BOND
     1    22    23    2
     2    23     1    1
     3     1     2    1
     4     1     3    1
     5     3     4    1
     6     4    24    1
     7    24    25    1
     8    25    26    2
     9    25    27    1
    10    27    28    1
    11    28    29    1
    12    29    30   ar
    13    30    31   ar
    14    31    32   ar
    15    32    33   ar
    16    33    35    1
    17    35    36    1
    18    33    34   ar
    19     4     5    1
    20     5     6    1
    21     5     7    1
    22     7     8    1
    23     7     9    1
    24     9    10    1
    25    11    10    1
    26    11    12    1
    27    12    13    1
    28    13    14    1
    29    14    15    2
    30    16    14    1
    31    11    17    1
    32    17    18    1
    33    17    19    1
    34    19    20    1
    35    19     1    1
    36    34    29   ar
    37    16     5    1
    38    16    11    1
    39    36    37    1
    40    20    21    1
