@<TRIPOS>MOLECULE
*****
 30 32 0 0 0
SMALL
GASTEIGER

@<TRIPOS>ATOM
      1 C          -7.1057  -19.7341   21.3642 C.ar    1  UNL1        0.1344
      2 C          -7.6562  -20.4597   22.5560 C.ar    1  UNL1        0.0310
      3 C          -8.9538  -20.0212   23.1675 C.ar    1  UNL1       -0.0067
      4 C          -9.5044  -20.7468   24.3593 C.3     1  UNL1        0.0319
      5 C          -9.7008  -18.8571   22.5872 C.ar    1  UNL1        0.0959
      6 C          -9.1503  -18.1315   21.3954 C.ar    1  UNL1        0.1393
      7 N          -7.8528  -18.5700   20.7839 N.ar    1  UNL1       -0.2154
      8 N          -5.8081  -20.1727   20.7526 N.pl3   1  UNL1       -0.2819
      9 H          -5.7302  -21.0692   20.3533 H       1  UNL1        0.1551
     10 C          -1.3399  -17.7352   19.3474 C.3     1  UNL1        0.0515
     11 C          -2.5754  -18.1249   20.1036 C.ar    1  UNL1        0.0548
     12 C          -3.5485  -19.1965   19.7103 C.ar    1  UNL1        0.0502
     13 C          -4.6292  -19.2453   20.7495 C.ar    1  UNL1        0.1539
     14 N          -4.3239  -18.2038   21.7850 N.ar    1  UNL1       -0.1577
     15 N          -3.0546  -17.5114   21.3858 N.ar    1  UNL1       -0.2786
     16 H          -2.6134  -16.7823   21.8788 H       1  UNL1        0.1886
     17 C         -10.9985  -18.4186   23.1987 C.1     1  UNL1        0.1029
     18 N         -12.2960  -17.9801   23.8103 N.1     1  UNL1       -0.1907
     19 N          -9.8974  -16.9674   20.8151 N.pl3   1  UNL1       -0.3145
     20 H         -10.4500  -17.0893   20.0094 H       1  UNL1        0.1483
     21 C          -9.8026  -15.6175   21.4622 C.3     1  UNL1        0.1362
     22 C          -8.4588  -15.0191   21.7554 C.3     1  UNL1        0.2266
     23 O          -7.4156  -15.8297   22.4658 O.3     1  UNL1       -0.4714
     24 C          -7.2572  -15.7107   23.9527 C.ar    1  UNL1        0.1659
     25 C          -8.4475  -15.8808   24.8497 C.ar    1  UNL1        0.0392
     26 C          -8.2891  -15.7618   26.3366 C.ar    1  UNL1        0.0033
     27 C          -6.9406  -15.4727   26.9264 C.ar    1  UNL1        0.0025
     28 C          -5.7504  -15.3026   26.0295 C.ar    1  UNL1        0.0328
     29 C          -5.9088  -15.4216   24.5426 C.ar    1  UNL1        0.1738
     30 F          -4.7186  -15.2515   23.6456 F       1  UNL1       -0.2010
@<TRIPOS>BOND
     1    10    11    1
     2    11    12   ar
     3    12    13   ar
     4    13     8    1
     5     8     1    1
     6     1     2   ar
     7     2     3   ar
     8     3     4    1
     9     3     5   ar
    10     5    17    1
    11    17    18    3
    12     5     6   ar
    13     6    19    1
    14    19    21    1
    15    21    22    1
    16    22    23    1
    17    23    24    1
    18    24    25   ar
    19    25    26   ar
    20    26    27   ar
    21    27    28   ar
    22    28    29   ar
    23    29    30    1
    24     6     7   ar
    25    13    14   ar
    26    14    15   ar
    27    15    11   ar
    28     7     1   ar
    29    29    24   ar
    30     8     9    1
    31    19    20    1
    32    15    16    1
@<TRIPOS>MOLECULE
*****
 30 32 0 0 0
SMALL
GASTEIGER

@<TRIPOS>ATOM
      1 C          -5.3555  -18.8999   22.0454 C.ar    1  UNL1        0.1344
      2 C          -5.5132  -20.0580   21.1052 C.ar    1  UNL1        0.0310
      3 C          -6.8040  -20.2542   20.3670 C.ar    1  UNL1       -0.0067
      4 C          -6.9618  -21.4124   19.4268 C.3     1  UNL1        0.0319
      5 C          -7.9372  -19.2924   20.5688 C.ar    1  UNL1        0.0959
      6 C          -7.7795  -18.1343   21.5090 C.ar    1  UNL1        0.1393
      7 N          -6.4886  -17.9380   22.2472 N.ar    1  UNL1       -0.2154
      8 N          -4.0645  -18.7036   22.7837 N.pl3   1  UNL1       -0.2819
      9 H          -3.9630  -19.0521   23.6989 H       1  UNL1        0.1551
     10 C           0.2594  -17.6711   19.9345 C.3     1  UNL1        0.0515
     11 C          -0.9409  -17.5019   20.8181 C.ar    1  UNL1        0.0548
     12 C          -1.8736  -18.5917   21.2565 C.ar    1  UNL1        0.0502
     13 C          -2.9284  -17.9764   22.1277 C.ar    1  UNL1        0.1539
     14 N          -2.6475  -16.5064   22.2276 N.ar    1  UNL1       -0.1577
     15 N          -1.4192  -16.2130   21.4183 N.ar    1  UNL1       -0.2786
     16 H          -1.0004  -15.3297   21.3015 H       1  UNL1        0.1886
     17 C          -9.2281  -19.4886   19.8305 C.1     1  UNL1        0.1029
     18 N         -10.5190  -19.6849   19.0922 N.1     1  UNL1       -0.1907
     19 N          -8.9127  -17.1724   21.7108 N.pl3   1  UNL1       -0.3145
     20 H          -8.9249  -16.3170   21.2236 H       1  UNL1        0.1483
     21 C         -10.0271  -17.5138   22.6549 C.3     1  UNL1        0.1362
     22 C          -9.8819  -17.2298   24.1206 C.3     1  UNL1        0.2266
     23 O          -9.4452  -15.8708   24.5816 O.3     1  UNL1       -0.4714
     24 C          -8.0398  -15.6570   25.0602 C.ar    1  UNL1        0.1659
     25 C          -6.9639  -15.2826   24.0844 C.ar    1  UNL1        0.0392
     26 C          -5.5585  -15.0688   24.5630 C.ar    1  UNL1        0.0033
     27 C          -5.2290  -15.2294   26.0176 C.ar    1  UNL1        0.0025
     28 C          -6.3049  -15.6039   26.9934 C.ar    1  UNL1        0.0328
     29 C          -7.7103  -15.8176   26.5147 C.ar    1  UNL1        0.1738
     30 F          -8.7862  -16.1921   27.4906 F       1  UNL1       -0.2010
@<TRIPOS>BOND
     1    10    11    1
     2    11    12   ar
     3    12    13   ar
     4    13     8    1
     5     8     1    1
     6     1     2   ar
     7     2     3   ar
     8     3     4    1
     9     3     5   ar
    10     5    17    1
    11    17    18    3
    12     5     6   ar
    13     6    19    1
    14    19    21    1
    15    21    22    1
    16    22    23    1
    17    23    24    1
    18    24    25   ar
    19    25    26   ar
    20    26    27   ar
    21    27    28   ar
    22    28    29   ar
    23    29    30    1
    24     6     7   ar
    25    13    14   ar
    26    14    15   ar
    27    15    11   ar
    28     7     1   ar
    29    29    24   ar
    30     8     9    1
    31    19    20    1
    32    15    16    1
@<TRIPOS>MOLECULE
*****
 30 32 0 0 0
SMALL
GASTEIGER

@<TRIPOS>ATOM
      1 C          -9.1249  -16.7426   22.1808 C.ar    1  UNL1        0.1344
      2 C         -10.3631  -17.4715   21.7501 C.ar    1  UNL1        0.0310
      3 C         -10.2674  -18.5878   20.7528 C.ar    1  UNL1       -0.0067
      4 C         -11.5056  -19.3169   20.3220 C.3     1  UNL1        0.0319
      5 C          -8.9336  -18.9752   20.1863 C.ar    1  UNL1        0.0959
      6 C          -7.6955  -18.2463   20.6170 C.ar    1  UNL1        0.1393
      7 N          -7.7911  -17.1300   21.6143 N.ar    1  UNL1       -0.2154
      8 N          -9.2205  -15.6262   23.1782 N.pl3   1  UNL1       -0.2819
      9 H          -9.9610  -14.9797   23.1239 H       1  UNL1        0.1551
     10 C          -6.7327  -16.0046   27.8201 C.3     1  UNL1        0.0515
     11 C          -7.0443  -15.6688   26.3918 C.ar    1  UNL1        0.0548
     12 C          -8.3018  -16.0261   25.6562 C.ar    1  UNL1        0.0502
     13 C          -8.1879  -15.4948   24.2581 C.ar    1  UNL1        0.1539
     14 N          -6.8600  -14.8091   24.1296 N.ar    1  UNL1       -0.1577
     15 N          -6.1532  -14.9166   25.4483 N.ar    1  UNL1       -0.2786
     16 H          -5.2611  -14.5566   25.6578 H       1  UNL1        0.1886
     17 C          -8.8381  -20.0916   19.1889 C.1     1  UNL1        0.1029
     18 N          -8.7425  -21.2079   18.1916 N.1     1  UNL1       -0.1907
     19 N          -6.3617  -18.6337   20.0505 N.pl3   1  UNL1       -0.3145
     20 H          -6.0040  -18.1597   19.2653 H       1  UNL1        0.1483
     21 C          -5.5730  -19.7432   20.6804 C.3     1  UNL1        0.1362
     22 C          -5.4207  -19.8025   22.1714 C.3     1  UNL1        0.2266
     23 O          -4.0919  -19.5075   22.8019 O.3     1  UNL1       -0.4714
     24 C          -3.1123  -18.6122   22.1028 C.ar    1  UNL1        0.1659
     25 C          -2.1702  -19.1820   21.0840 C.ar    1  UNL1        0.0392
     26 C          -1.1905  -18.2867   20.3849 C.ar    1  UNL1        0.0033
     27 C          -1.1530  -16.8216   20.7046 C.ar    1  UNL1        0.0025
     28 C          -2.0951  -16.2519   21.7234 C.ar    1  UNL1        0.0328
     29 C          -3.0747  -17.1472   22.4225 C.ar    1  UNL1        0.1738
     30 F          -4.0168  -16.5774   23.4412 F       1  UNL1       -0.2010
@<TRIPOS>BOND
     1    10    11    1
     2    11    12   ar
     3    12    13   ar
     4    13     8    1
     5     8     1    1
     6     1     2   ar
     7     2     3   ar
     8     3     4    1
     9     3     5   ar
    10     5    17    1
    11    17    18    3
    12     5     6   ar
    13     6    19    1
    14    19    21    1
    15    21    22    1
    16    22    23    1
    17    23    24    1
    18    24    25   ar
    19    25    26   ar
    20    26    27   ar
    21    27    28   ar
    22    28    29   ar
    23    29    30    1
    24     6     7   ar
    25    13    14   ar
    26    14    15   ar
    27    15    11   ar
    28     7     1   ar
    29    29    24   ar
    30     8     9    1
    31    19    20    1
    32    15    16    1
@<TRIPOS>MOLECULE
*****
 30 32 0 0 0
SMALL
GASTEIGER

@<TRIPOS>ATOM
      1 C          -8.7492  -17.8268   21.6751 C.ar    1  UNL1        0.1344
      2 C          -8.9433  -18.8198   20.5678 C.ar    1  UNL1        0.0310
      3 C          -7.7818  -19.6320   20.0767 C.ar    1  UNL1       -0.0067
      4 C          -7.9758  -20.6250   18.9693 C.3     1  UNL1        0.0319
      5 C          -6.4262  -19.4512   20.6929 C.ar    1  UNL1        0.0959
      6 C          -6.2322  -18.4582   21.8003 C.ar    1  UNL1        0.1393
      7 N          -7.3937  -17.6460   22.2914 N.ar    1  UNL1       -0.2154
      8 N          -9.9108  -17.0145   22.1662 N.pl3   1  UNL1       -0.2819
      9 H         -10.0230  -16.0839   21.8652 H       1  UNL1        0.1551
     10 C         -14.4483  -18.3565   24.5094 C.3     1  UNL1        0.0515
     11 C         -12.9869  -18.2369   24.1931 C.ar    1  UNL1        0.0548
     12 C         -12.3919  -17.4662   23.0521 C.ar    1  UNL1        0.0502
     13 C         -10.9012  -17.6201   23.1161 C.ar    1  UNL1        0.1539
     14 N         -10.5749  -18.4859   24.2967 N.ar    1  UNL1       -0.1577
     15 N         -11.8638  -18.8672   24.9624 N.ar    1  UNL1       -0.2786
     16 H         -11.9565  -19.4319   25.7635 H       1  UNL1        0.1886
     17 C          -5.2647  -20.2634   20.2018 C.1     1  UNL1        0.1029
     18 N          -4.1032  -21.0756   19.7106 N.1     1  UNL1       -0.1907
     19 N          -4.8766  -18.2774   22.4165 N.pl3   1  UNL1       -0.3145
     20 H          -4.1039  -18.7724   22.0601 H       1  UNL1        0.1483
     21 C          -4.6984  -17.3424   23.5758 C.3     1  UNL1        0.1362
     22 C          -4.3142  -15.9128   23.3342 C.3     1  UNL1        0.2266
     23 O          -5.0186  -14.8120   24.0706 O.3     1  UNL1       -0.4714
     24 C          -6.1301  -15.1388   25.0234 C.ar    1  UNL1        0.1659
     25 C          -5.8168  -15.5059   26.4437 C.ar    1  UNL1        0.0392
     26 C          -6.9284  -15.8326   27.3965 C.ar    1  UNL1        0.0033
     27 C          -8.3531  -15.7923   26.9290 C.ar    1  UNL1        0.0025
     28 C          -8.6663  -15.4252   25.5087 C.ar    1  UNL1        0.0328
     29 C          -7.5548  -15.0985   24.5559 C.ar    1  UNL1        0.1738
     30 F          -7.8680  -14.7314   23.1356 F       1  UNL1       -0.2010
@<TRIPOS>BOND
     1    10    11    1
     2    11    12   ar
     3    12    13   ar
     4    13     8    1
     5     8     1    1
     6     1     2   ar
     7     2     3   ar
     8     3     4    1
     9     3     5   ar
    10     5    17    1
    11    17    18    3
    12     5     6   ar
    13     6    19    1
    14    19    21    1
    15    21    22    1
    16    22    23    1
    17    23    24    1
    18    24    25   ar
    19    25    26   ar
    20    26    27   ar
    21    27    28   ar
    22    28    29   ar
    23    29    30    1
    24     6     7   ar
    25    13    14   ar
    26    14    15   ar
    27    15    11   ar
    28     7     1   ar
    29    29    24   ar
    30     8     9    1
    31    19    20    1
    32    15    16    1
@<TRIPOS>MOLECULE
*****
 30 32 0 0 0
SMALL
GASTEIGER

@<TRIPOS>ATOM
      1 C          -7.1468  -20.0890   21.2076 C.ar    1  UNL1        0.1344
      2 C          -7.9828  -19.7779   20.0017 C.ar    1  UNL1        0.0310
      3 C          -9.4107  -19.3502   20.1691 C.ar    1  UNL1       -0.0067
      4 C         -10.2468  -19.0390   18.9632 C.3     1  UNL1        0.0319
      5 C         -10.0026  -19.2337   21.5424 C.ar    1  UNL1        0.0959
      6 C          -9.1666  -19.5449   22.7483 C.ar    1  UNL1        0.1393
      7 N          -7.7387  -19.9725   22.5809 N.ar    1  UNL1       -0.2154
      8 N          -5.7188  -20.5167   21.0402 N.pl3   1  UNL1       -0.2819
      9 H          -5.4806  -21.4703   21.0970 H       1  UNL1        0.1551
     10 C          -1.7814  -17.8196   18.7812 C.3     1  UNL1        0.0515
     11 C          -2.8438  -18.2518   19.7479 C.ar    1  UNL1        0.0548
     12 C          -3.7513  -19.4356   19.5893 C.ar    1  UNL1        0.0502
     13 C          -4.6537  -19.4915   20.7862 C.ar    1  UNL1        0.1539
     14 N          -4.3039  -18.3423   21.6845 N.ar    1  UNL1       -0.1577
     15 N          -3.1854  -17.5761   21.0428 N.ar    1  UNL1       -0.2786
     16 H          -2.7516  -16.7710   21.4075 H       1  UNL1        0.1886
     17 C         -11.4306  -18.8060   21.7098 C.1     1  UNL1        0.1029
     18 N         -12.8586  -18.3783   21.8772 N.1     1  UNL1       -0.1907
     19 N          -9.7586  -19.4284   24.1217 N.pl3   1  UNL1       -0.3145
     20 H         -10.1519  -20.2190   24.5569 H       1  UNL1        0.1483
     21 C          -9.7512  -18.1072   24.8319 C.3     1  UNL1        0.1362
     22 C          -9.9241  -16.8365   24.0540 C.3     1  UNL1        0.2266
     23 O          -9.3577  -15.5514   24.5811 O.3     1  UNL1       -0.4714
     24 C          -7.9274  -15.4900   25.0288 C.ar    1  UNL1        0.1659
     25 C          -6.8274  -15.3921   24.0136 C.ar    1  UNL1        0.0392
     26 C          -5.3970  -15.3307   24.4613 C.ar    1  UNL1        0.0033
     27 C          -5.0667  -15.3672   25.9240 C.ar    1  UNL1        0.0025
     28 C          -6.1667  -15.4651   26.9391 C.ar    1  UNL1        0.0328
     29 C          -7.5971  -15.5264   26.4914 C.ar    1  UNL1        0.1738
     30 F          -8.6971  -15.6243   27.5066 F       1  UNL1       -0.2010
@<TRIPOS>BOND
     1    10    11    1
     2    11    12   ar
     3    12    13   ar
     4    13     8    1
     5     8     1    1
     6     1     2   ar
     7     2     3   ar
     8     3     4    1
     9     3     5   ar
    10     5    17    1
    11    17    18    3
    12     5     6   ar
    13     6    19    1
    14    19    21    1
    15    21    22    1
    16    22    23    1
    17    23    24    1
    18    24    25   ar
    19    25    26   ar
    20    26    27   ar
    21    27    28   ar
    22    28    29   ar
    23    29    30    1
    24     6     7   ar
    25    13    14   ar
    26    14    15   ar
    27    15    11   ar
    28     7     1   ar
    29    29    24   ar
    30     8     9    1
    31    19    20    1
    32    15    16    1
@<TRIPOS>MOLECULE
*****
 30 32 0 0 0
SMALL
GASTEIGER

@<TRIPOS>ATOM
      1 C          -4.0668  -18.3093   22.4784 C.ar    1  UNL1        0.1344
      2 C          -4.0261  -17.2606   23.5500 C.ar    1  UNL1        0.0310
      3 C          -5.2927  -16.5878   23.9895 C.ar    1  UNL1       -0.0067
      4 C          -5.2520  -15.5391   25.0612 C.3     1  UNL1        0.0319
      5 C          -6.6000  -16.9638   23.3573 C.ar    1  UNL1        0.0959
      6 C          -6.6407  -18.0125   22.2856 C.ar    1  UNL1        0.1393
      7 N          -5.3741  -18.6853   21.8462 N.ar    1  UNL1       -0.2154
      8 N          -2.8002  -18.9821   22.0389 N.pl3   1  UNL1       -0.2819
      9 H          -2.4148  -19.7081   22.5808 H       1  UNL1        0.1551
     10 C          -1.9766  -17.4033   17.0680 C.3     1  UNL1        0.0515
     11 C          -1.7422  -17.8231   18.4889 C.ar    1  UNL1        0.0548
     12 C          -2.8005  -18.1988   19.4833 C.ar    1  UNL1        0.0502
     13 C          -2.1208  -18.5488   20.7738 C.ar    1  UNL1        0.1539
     14 N          -0.6423  -18.3894   20.5770 N.ar    1  UNL1       -0.1577
     15 N          -0.4083  -17.9409   19.1649 N.ar    1  UNL1       -0.2786
     16 H           0.4671  -17.7562   18.7539 H       1  UNL1        0.1886
     17 C          -7.8666  -16.2910   23.7967 C.1     1  UNL1        0.1029
     18 N          -9.1331  -15.6182   24.2363 N.1     1  UNL1       -0.1907
     19 N          -7.9479  -18.3885   21.6534 N.pl3   1  UNL1       -0.3145
     20 H          -8.7662  -17.8908   21.8815 H       1  UNL1        0.1483
     21 C          -8.0085  -19.5227   20.6737 C.3     1  UNL1        0.1362
     22 C          -8.9972  -19.4878   19.5462 C.3     1  UNL1        0.2266
     23 O         -10.4601  -19.6666   19.8256 O.3     1  UNL1       -0.4714
     24 C         -11.1680  -18.7212   20.7502 C.ar    1  UNL1        0.1659
     25 C         -11.6022  -17.3731   20.2561 C.ar    1  UNL1        0.0392
     26 C         -12.3101  -16.4276   21.1808 C.ar    1  UNL1        0.0033
     27 C         -12.5839  -16.8304   22.5996 C.ar    1  UNL1        0.0025
     28 C         -12.1497  -18.1784   23.0937 C.ar    1  UNL1        0.0328
     29 C         -11.4418  -19.1239   22.1690 C.ar    1  UNL1        0.1738
     30 F         -11.0076  -20.4720   22.6631 F       1  UNL1       -0.2010
@<TRIPOS>BOND
     1    10    11    1
     2    11    12   ar
     3    12    13   ar
     4    13     8    1
     5     8     1    1
     6     1     2   ar
     7     2     3   ar
     8     3     4    1
     9     3     5   ar
    10     5    17    1
    11    17    18    3
    12     5     6   ar
    13     6    19    1
    14    19    21    1
    15    21    22    1
    16    22    23    1
    17    23    24    1
    18    24    25   ar
    19    25    26   ar
    20    26    27   ar
    21    27    28   ar
    22    28    29   ar
    23    29    30    1
    24     6     7   ar
    25    13    14   ar
    26    14    15   ar
    27    15    11   ar
    28     7     1   ar
    29    29    24   ar
    30     8     9    1
    31    19    20    1
    32    15    16    1
@<TRIPOS>MOLECULE
*****
 30 32 0 0 0
SMALL
GASTEIGER

@<TRIPOS>ATOM
      1 C          -6.0551  -19.9245   20.9490 C.ar    1  UNL1        0.1344
      2 C          -6.8605  -20.2424   19.7242 C.ar    1  UNL1        0.0310
      3 C          -8.3271  -19.9297   19.6890 C.ar    1  UNL1       -0.0067
      4 C          -9.1326  -20.2476   18.4642 C.3     1  UNL1        0.0319
      5 C          -8.9883  -19.2990   20.8786 C.ar    1  UNL1        0.0959
      6 C          -8.1828  -18.9811   22.1034 C.ar    1  UNL1        0.1393
      7 N          -6.7162  -19.2938   22.1386 N.ar    1  UNL1       -0.2154
      8 N          -4.5884  -20.2372   20.9842 N.pl3   1  UNL1       -0.2819
      9 H          -4.2757  -21.0883   21.3676 H       1  UNL1        0.1551
     10 C          -0.0782  -17.6846   19.9729 C.3     1  UNL1        0.0515
     11 C          -1.5252  -18.0798   19.9705 C.ar    1  UNL1        0.0548
     12 C          -2.1273  -19.2265   20.7273 C.ar    1  UNL1        0.0502
     13 C          -3.5983  -19.2531   20.4353 C.ar    1  UNL1        0.1539
     14 N          -3.9055  -18.1229   19.4981 N.ar    1  UNL1       -0.1577
     15 N          -2.6243  -17.3977   19.2108 N.ar    1  UNL1       -0.2786
     16 H          -2.5225  -16.6121   18.6263 H       1  UNL1        0.1886
     17 C         -10.4549  -18.9863   20.8434 C.1     1  UNL1        0.1029
     18 N         -11.9215  -18.6735   20.8082 N.1     1  UNL1       -0.1907
     19 N          -8.8440  -18.3504   23.2930 N.pl3   1  UNL1       -0.3145
     20 H          -8.8671  -18.8276   24.1538 H       1  UNL1        0.1483
     21 C          -9.4698  -16.9927   23.1711 C.3     1  UNL1        0.1362
     22 C          -8.7866  -15.9206   22.3750 C.3     1  UNL1        0.2266
     23 O          -7.6664  -15.1317   22.9857 O.3     1  UNL1       -0.4714
     24 C          -7.3638  -15.2678   24.4486 C.ar    1  UNL1        0.1659
     25 C          -8.4833  -15.2963   25.4466 C.ar    1  UNL1        0.0392
     26 C          -8.1807  -15.4325   26.9094 C.ar    1  UNL1        0.0033
     27 C          -6.7585  -15.5401   27.3742 C.ar    1  UNL1        0.0025
     28 C          -5.6391  -15.5115   26.3763 C.ar    1  UNL1        0.0328
     29 C          -5.9417  -15.3754   24.9134 C.ar    1  UNL1        0.1738
     30 F          -4.8222  -15.3469   23.9154 F       1  UNL1       -0.2010
@<TRIPOS>BOND
     1    10    11    1
     2    11    12   ar
     3    12    13   ar
     4    13     8    1
     5     8     1    1
     6     1     2   ar
     7     2     3   ar
     8     3     4    1
     9     3     5   ar
    10     5    17    1
    11    17    18    3
    12     5     6   ar
    13     6    19    1
    14    19    21    1
    15    21    22    1
    16    22    23    1
    17    23    24    1
    18    24    25   ar
    19    25    26   ar
    20    26    27   ar
    21    27    28   ar
    22    28    29   ar
    23    29    30    1
    24     6     7   ar
    25    13    14   ar
    26    14    15   ar
    27    15    11   ar
    28     7     1   ar
    29    29    24   ar
    30     8     9    1
    31    19    20    1
    32    15    16    1
@<TRIPOS>MOLECULE
*****
 30 32 0 0 0
SMALL
GASTEIGER

@<TRIPOS>ATOM
      1 C          -4.5358  -16.8066   23.2822 C.ar    1  UNL1        0.1344
      2 C          -3.1662  -17.1350   22.7661 C.ar    1  UNL1        0.0310
      3 C          -2.9777  -18.2796   21.8152 C.ar    1  UNL1       -0.0067
      4 C          -1.6080  -18.6081   21.2990 C.3     1  UNL1        0.0319
      5 C          -4.1587  -19.0958   21.3803 C.ar    1  UNL1        0.0959
      6 C          -5.5282  -18.7674   21.8965 C.ar    1  UNL1        0.1393
      7 N          -5.7168  -17.6228   22.8474 N.ar    1  UNL1       -0.2154
      8 N          -4.7244  -15.6620   24.2332 N.pl3   1  UNL1       -0.2819
      9 H          -3.9649  -15.0762   24.4553 H       1  UNL1        0.1551
     10 C          -8.6427  -15.2396   27.7472 C.3     1  UNL1        0.0515
     11 C          -7.8712  -15.2157   26.4611 C.ar    1  UNL1        0.0548
     12 C          -6.4245  -15.5753   26.2939 C.ar    1  UNL1        0.0502
     13 C          -6.0701  -15.4098   24.8459 C.ar    1  UNL1        0.1539
     14 N          -7.2977  -14.9480   24.1180 N.ar    1  UNL1       -0.1577
     15 N          -8.4108  -14.8280   25.1162 N.ar    1  UNL1       -0.2786
     16 H          -9.3336  -14.5445   24.9227 H       1  UNL1        0.1886
     17 C          -3.9701  -20.2404   20.4293 C.1     1  UNL1        0.1029
     18 N          -3.7815  -21.3850   19.4784 N.1     1  UNL1       -0.1907
     19 N          -6.7092  -19.5835   21.4616 N.pl3   1  UNL1       -0.3145
     20 H          -6.6588  -20.5667   21.4721 H       1  UNL1        0.1483
     21 C          -7.9670  -18.9018   21.0109 C.3     1  UNL1        0.1362
     22 C          -8.7751  -19.4840   19.8893 C.3     1  UNL1        0.2266
     23 O         -10.2350  -19.7673   20.0852 O.3     1  UNL1       -0.4714
     24 C         -11.0635  -18.8681   20.9541 C.ar    1  UNL1        0.1659
     25 C         -11.6257  -17.5947   20.3949 C.ar    1  UNL1        0.0392
     26 C         -12.4542  -16.6954   21.2638 C.ar    1  UNL1        0.0033
     27 C         -12.7205  -17.0696   22.6918 C.ar    1  UNL1        0.0025
     28 C         -12.1584  -18.3429   23.2509 C.ar    1  UNL1        0.0328
     29 C         -11.3299  -19.2421   22.3820 C.ar    1  UNL1        0.1738
     30 F         -10.7677  -20.5155   22.9412 F       1  UNL1       -0.2010
@<TRIPOS>BOND
     1    10    11    1
     2    11    12   ar
     3    12    13   ar
     4    13     8    1
     5     8     1    1
     6     1     2   ar
     7     2     3   ar
     8     3     4    1
     9     3     5   ar
    10     5    17    1
    11    17    18    3
    12     5     6   ar
    13     6    19    1
    14    19    21    1
    15    21    22    1
    16    22    23    1
    17    23    24    1
    18    24    25   ar
    19    25    26   ar
    20    26    27   ar
    21    27    28   ar
    22    28    29   ar
    23    29    30    1
    24     6     7   ar
    25    13    14   ar
    26    14    15   ar
    27    15    11   ar
    28     7     1   ar
    29    29    24   ar
    30     8     9    1
    31    19    20    1
    32    15    16    1
@<TRIPOS>MOLECULE
*****
 30 32 0 0 0
SMALL
GASTEIGER

@<TRIPOS>ATOM
      1 C          -9.6686  -16.6568   23.1800 C.ar    1  UNL1        0.1344
      2 C         -10.5462  -16.4370   21.9836 C.ar    1  UNL1        0.0310
      3 C         -10.4826  -17.3846   20.8226 C.ar    1  UNL1       -0.0067
      4 C         -11.3602  -17.1649   19.6261 C.3     1  UNL1        0.0319
      5 C          -9.5415  -18.5521   20.8581 C.ar    1  UNL1        0.0959
      6 C          -8.6639  -18.7719   22.0546 C.ar    1  UNL1        0.1393
      7 N          -8.7275  -17.8242   23.2155 N.ar    1  UNL1       -0.2154
      8 N          -9.7322  -15.7091   24.3410 N.pl3   1  UNL1       -0.2819
      9 H         -10.5649  -15.2198   24.5321 H       1  UNL1        0.1551
     10 C          -4.7311  -15.1652   25.9452 C.3     1  UNL1        0.0515
     11 C          -6.2283  -15.2568   25.9482 C.ar    1  UNL1        0.0548
     12 C          -7.0999  -15.4871   24.7494 C.ar    1  UNL1        0.0502
     13 C          -8.5270  -15.5068   25.2109 C.ar    1  UNL1        0.1539
     14 N          -8.5374  -15.2888   26.6949 N.ar    1  UNL1       -0.1577
     15 N          -7.1167  -15.1343   27.1507 N.ar    1  UNL1       -0.2786
     16 H          -6.8195  -14.9796   28.0764 H       1  UNL1        0.1886
     17 C          -9.4780  -19.4998   19.6971 C.1     1  UNL1        0.1029
     18 N          -9.4144  -20.4475   18.5361 N.1     1  UNL1       -0.1907
     19 N          -7.7228  -19.9394   22.0901 N.pl3   1  UNL1       -0.3145
     20 H          -8.0714  -20.8484   22.2367 H       1  UNL1        0.1483
     21 C          -6.2506  -19.7220   21.9021 C.3     1  UNL1        0.1362
     22 C          -5.5338  -20.3855   20.7637 C.3     1  UNL1        0.2266
     23 O          -4.0423  -20.2738   20.6496 O.3     1  UNL1       -0.4714
     24 C          -3.3574  -18.9866   21.0021 C.ar    1  UNL1        0.1659
     25 C          -3.4885  -18.4218   22.3855 C.ar    1  UNL1        0.0392
     26 C          -2.8036  -17.1346   22.7380 C.ar    1  UNL1        0.0033
     27 C          -1.9878  -16.4123   21.7070 C.ar    1  UNL1        0.0025
     28 C          -1.8568  -16.9772   20.3237 C.ar    1  UNL1        0.0328
     29 C          -2.5416  -18.2644   19.9712 C.ar    1  UNL1        0.1738
     30 F          -2.4106  -18.8293   18.5878 F       1  UNL1       -0.2010
@<TRIPOS>BOND
     1    10    11    1
     2    11    12   ar
     3    12    13   ar
     4    13     8    1
     5     8     1    1
     6     1     2   ar
     7     2     3   ar
     8     3     4    1
     9     3     5   ar
    10     5    17    1
    11    17    18    3
    12     5     6   ar
    13     6    19    1
    14    19    21    1
    15    21    22    1
    16    22    23    1
    17    23    24    1
    18    24    25   ar
    19    25    26   ar
    20    26    27   ar
    21    27    28   ar
    22    28    29   ar
    23    29    30    1
    24     6     7   ar
    25    13    14   ar
    26    14    15   ar
    27    15    11   ar
    28     7     1   ar
    29    29    24   ar
    30     8     9    1
    31    19    20    1
    32    15    16    1
