@<TRIPOS>MOLECULE
*****
 36 41 0 0 0
SMALL
GASTEIGER

@<TRIPOS>ATOM
      1 C           0.3679    3.1415   19.3523 C.2     1  UNL1        0.1040
      2 N           1.4081    3.9442   18.6287 N.2     1  UNL1       -0.1483
      3 N           2.5784    3.0468   18.3547 N.2     1  UNL1       -0.1520
      4 C           2.2615    1.6895   18.9090 C.2     1  UNL1        0.0864
      5 C           3.0405    0.4078   18.9320 C.3     1  UNL1        0.0739
      6 C           2.4532   -0.8153   19.5715 C.2     1  UNL1       -0.0160
      7 C           1.0871   -0.7568   20.1881 C.2     1  UNL1       -0.0038
      8 C           0.3081    0.5248   20.1651 C.2     1  UNL1        0.0025
      9 C           0.8954    1.7480   19.5256 C.2     1  UNL1        0.0350
     10 C           3.2322   -2.0971   19.5945 C.2     1  UNL1        0.0007
     11 C           3.8809   -2.5577   20.8660 C.2     1  UNL1        0.0546
     12 C           4.6869   -3.8107   21.0410 C.2     1  UNL1        0.2495
     13 O           4.9856   -4.8229   19.9751 O.2     1  UNL1       -0.2698
     14 N           5.1417   -3.8737   22.4689 N.am    1  UNL1       -0.2804
     15 C           4.6168   -2.6597   23.1766 C.ar    1  UNL1        0.0506
     16 C           4.7478   -2.1898   24.5950 C.ar    1  UNL1        0.0147
     17 C           4.0995   -0.9065   25.0229 C.ar    1  UNL1        0.0013
     18 C           3.3203   -0.0932   24.0322 C.ar    1  UNL1        0.0001
     19 C           3.1894   -0.5631   22.6137 C.ar    1  UNL1        0.0014
     20 C           3.8376   -1.8464   22.1859 C.ar    1  UNL1        0.0179
     21 H           5.6886   -4.5867   22.8711 H       1  UNL1        0.1552
     22 C          -1.3980    3.4143   21.2385 C.2     1  UNL1        0.0031
     23 C          -0.9656    3.6440   19.8205 C.2     1  UNL1        0.0210
     24 C          -5.3985    4.9218   22.6430 C.ar    1  UNL1        0.1318
     25 C          -5.3254    3.7735   21.6807 C.ar    1  UNL1        0.0343
     26 C          -3.9919    3.2710   21.2125 C.ar    1  UNL1        0.0044
     27 C          -2.7315    3.9168   21.7067 C.ar    1  UNL1        0.0193
     28 C          -2.8045    5.0651   22.6690 C.ar    1  UNL1        0.1003
     29 N          -4.1381    5.5676   23.1372 N.ar    1  UNL1       -0.2292
     30 C         -10.7327    6.9319   24.5156 C.3     1  UNL1        0.0897
     31 N          -9.3991    6.4293   24.0475 N.3     1  UNL1       -0.2686
     32 C          -8.4161    7.3773   23.4271 C.3     1  UNL1        0.0939
     33 C          -7.0825    6.8748   22.9589 C.3     1  UNL1        0.1095
     34 N          -6.7321    5.4242   23.1112 N.pl3   1  UNL1       -0.2904
     35 C          -7.7151    4.4763   23.7316 C.3     1  UNL1        0.1095
     36 C          -9.0487    4.9788   24.1997 C.3     1  UNL1        0.0939
@<TRIPOS>BOND
     1    30    31    1
     2    31    32    1
     3    32    33    1
     4    33    34    1
     5    34    24    1
     6    24    25   ar
     7    25    26   ar
     8    26    27   ar
     9    27    22    1
    10    22    23    2
    11    23     1    1
    12     1     2    2
    13     2     3    1
    14     3     4    2
    15     4     5    1
    16     5     6    1
    17     6    10    1
    18    10    11    2
    19    11    12    1
    20    12    13    2
    21    12    14   am
    22    14    15    1
    23    15    16   ar
    24    16    17   ar
    25    17    18   ar
    26    18    19   ar
    27    19    20   ar
    28     6     7    2
    29     7     8    1
    30     8     9    2
    31    27    28   ar
    32    28    29   ar
    33    34    35    1
    34    35    36    1
    35    36    31    1
    36    29    24   ar
    37     9     1    1
    38     9     4    1
    39    20    11    1
    40    20    15   ar
    41    14    21    1
@<TRIPOS>MOLECULE
*****
 36 41 0 0 0
SMALL
GASTEIGER

@<TRIPOS>ATOM
      1 C           5.2261   -2.6326   19.9214 C.2     1  UNL1        0.1040
      2 N           5.8413   -2.8486   18.5705 N.2     1  UNL1       -0.1483
      3 N           5.0768   -2.0259   17.5762 N.2     1  UNL1       -0.1520
      4 C           3.9892   -1.3014   18.3126 C.2     1  UNL1        0.0864
      5 C           2.9267   -0.3487   17.8505 C.3     1  UNL1        0.0739
      6 C           1.9566    0.2290   18.8379 C.2     1  UNL1       -0.0160
      7 C           2.0489   -0.1459   20.2874 C.2     1  UNL1       -0.0038
      8 C           3.1113   -1.0986   20.7494 C.2     1  UNL1        0.0025
      9 C           4.0815   -1.6763   19.7620 C.2     1  UNL1        0.0350
     10 C           0.8940    1.1818   18.3759 C.2     1  UNL1        0.0007
     11 C           1.1731    2.6550   18.3371 C.2     1  UNL1        0.0546
     12 C           0.2143    3.7228   17.9008 C.2     1  UNL1        0.2495
     13 O          -1.1920    3.5048   17.4268 O.2     1  UNL1       -0.2698
     14 N           0.9086    5.0469   18.0218 N.am    1  UNL1       -0.2804
     15 C           2.2967    4.7975   18.5328 C.ar    1  UNL1        0.0506
     16 C           3.4328    5.7255   18.8459 C.ar    1  UNL1        0.0147
     17 C           4.7325    5.1752   19.3539 C.ar    1  UNL1        0.0013
     18 C           4.8960    3.6968   19.5487 C.ar    1  UNL1        0.0001
     19 C           3.7598    2.7689   19.2356 C.ar    1  UNL1        0.0014
     20 C           2.4601    3.3192   18.7277 C.ar    1  UNL1        0.0179
     21 H           0.5213    5.9254   17.8040 H       1  UNL1        0.1552
     22 C           5.7080   -2.4517   22.4681 C.2     1  UNL1        0.0031
     23 C           5.6766   -3.2622   21.2062 C.2     1  UNL1        0.0210
     24 C           7.0593   -4.3406   26.3223 C.ar    1  UNL1        0.1318
     25 C           7.3454   -5.0175   25.0147 C.ar    1  UNL1        0.0343
     26 C           6.8949   -4.3878   23.7299 C.ar    1  UNL1        0.0044
     27 C           6.1584   -3.0813   23.7529 C.ar    1  UNL1        0.0193
     28 C           5.8723   -2.4045   25.0605 C.ar    1  UNL1        0.1003
     29 N           6.3228   -3.0341   26.3453 N.ar    1  UNL1       -0.2292
     30 C           8.8614   -6.8595   31.4612 C.3     1  UNL1        0.0897
     31 N           8.4109   -6.2298   30.1765 N.3     1  UNL1       -0.2686
     32 C           9.3686   -6.0977   29.0297 C.3     1  UNL1        0.0939
     33 C           8.9181   -5.4679   27.7450 C.3     1  UNL1        0.1095
     34 N           7.5098   -4.9703   27.6071 N.pl3   1  UNL1       -0.2904
     35 C           6.5520   -5.1024   28.7539 C.3     1  UNL1        0.1095
     36 C           7.0025   -5.7322   30.0386 C.3     1  UNL1        0.0939
@<TRIPOS>BOND
     1    30    31    1
     2    31    32    1
     3    32    33    1
     4    33    34    1
     5    34    24    1
     6    24    25   ar
     7    25    26   ar
     8    26    27   ar
     9    27    22    1
    10    22    23    2
    11    23     1    1
    12     1     2    2
    13     2     3    1
    14     3     4    2
    15     4     5    1
    16     5     6    1
    17     6    10    1
    18    10    11    2
    19    11    12    1
    20    12    13    2
    21    12    14   am
    22    14    15    1
    23    15    16   ar
    24    16    17   ar
    25    17    18   ar
    26    18    19   ar
    27    19    20   ar
    28     6     7    2
    29     7     8    1
    30     8     9    2
    31    27    28   ar
    32    28    29   ar
    33    34    35    1
    34    35    36    1
    35    36    31    1
    36    29    24   ar
    37     9     1    1
    38     9     4    1
    39    20    11    1
    40    20    15   ar
    41    14    21    1
@<TRIPOS>MOLECULE
*****
 36 41 0 0 0
SMALL
GASTEIGER

@<TRIPOS>ATOM
      1 C           1.0439    1.7336   24.0033 C.2     1  UNL1        0.1040
      2 N           0.0807    2.3477   23.0312 N.2     1  UNL1       -0.1483
      3 N           0.2350    1.6415   21.7169 N.2     1  UNL1       -0.1520
      4 C           1.2937    0.5909   21.8767 C.2     1  UNL1        0.0864
      5 C           1.8670   -0.4102   20.9181 C.3     1  UNL1        0.0739
      6 C           2.9403   -1.3544   21.3725 C.2     1  UNL1       -0.0160
      7 C           3.4402   -1.2975   22.7856 C.2     1  UNL1       -0.0038
      8 C           2.8669   -0.2964   23.7443 C.2     1  UNL1        0.0025
      9 C           1.7936    0.6478   23.2898 C.2     1  UNL1        0.0350
     10 C           3.5137   -2.3556   20.4139 C.2     1  UNL1        0.0007
     11 C           4.7112   -1.9989   19.5841 C.2     1  UNL1        0.0546
     12 C           5.3914   -2.8911   18.5884 C.2     1  UNL1        0.2495
     13 O           4.9934   -4.2966   18.2478 O.2     1  UNL1       -0.2698
     14 N           6.5394   -2.1310   17.9932 N.am    1  UNL1       -0.2804
     15 C           6.5688   -0.7689   18.6210 C.ar    1  UNL1        0.0506
     16 C           7.4784    0.4074   18.4244 C.ar    1  UNL1        0.0147
     17 C           7.2582    1.6655   19.2110 C.ar    1  UNL1        0.0013
     18 C           6.1282    1.7471   20.1943 C.ar    1  UNL1        0.0001
     19 C           5.2186    0.5707   20.3909 C.ar    1  UNL1        0.0014
     20 C           5.4389   -0.6873   19.6042 C.ar    1  UNL1        0.0179
     21 H           7.1639   -2.4670   17.3104 H       1  UNL1        0.1552
     22 C           0.5835    1.3302   26.5283 C.2     1  UNL1        0.0031
     23 C           1.2256    2.1348   25.4372 C.2     1  UNL1        0.0210
     24 C           1.1286    2.5338   30.8299 C.ar    1  UNL1        0.1318
     25 C           1.1439    3.5764   29.7516 C.ar    1  UNL1        0.0343
     26 C           0.9622    3.1752   28.3177 C.ar    1  UNL1        0.0044
     27 C           0.7652    1.7314   27.9622 C.ar    1  UNL1        0.0193
     28 C           0.7499    0.6887   29.0404 C.ar    1  UNL1        0.1003
     29 N           0.9316    1.0899   30.4743 N.ar    1  UNL1       -0.2292
     30 C           1.8556    4.1387   36.5654 C.3     1  UNL1        0.0897
     31 N           1.6738    3.7375   35.1315 N.3     1  UNL1       -0.2686
     32 C           2.2842    2.4640   34.6259 C.3     1  UNL1        0.0939
     33 C           2.1025    2.0628   33.1920 C.3     1  UNL1        0.1095
     34 N           1.3103    2.9350   32.2638 N.pl3   1  UNL1       -0.2904
     35 C           0.6999    4.2085   32.7694 C.3     1  UNL1        0.1095
     36 C           0.8816    4.6097   34.2033 C.3     1  UNL1        0.0939
@<TRIPOS>BOND
     1    30    31    1
     2    31    32    1
     3    32    33    1
     4    33    34    1
     5    34    24    1
     6    24    25   ar
     7    25    26   ar
     8    26    27   ar
     9    27    22    1
    10    22    23    2
    11    23     1    1
    12     1     2    2
    13     2     3    1
    14     3     4    2
    15     4     5    1
    16     5     6    1
    17     6    10    1
    18    10    11    2
    19    11    12    1
    20    12    13    2
    21    12    14   am
    22    14    15    1
    23    15    16   ar
    24    16    17   ar
    25    17    18   ar
    26    18    19   ar
    27    19    20   ar
    28     6     7    2
    29     7     8    1
    30     8     9    2
    31    27    28   ar
    32    28    29   ar
    33    34    35    1
    34    35    36    1
    35    36    31    1
    36    29    24   ar
    37     9     1    1
    38     9     4    1
    39    20    11    1
    40    20    15   ar
    41    14    21    1
@<TRIPOS>MOLECULE
*****
 36 41 0 0 0
SMALL
GASTEIGER

@<TRIPOS>ATOM
      1 C           8.2050   -0.3206   34.1143 C.2     1  UNL1        0.1040
      2 N           9.3088    0.3947   34.8354 N.2     1  UNL1       -0.1483
      3 N           8.7397    0.9731   36.0969 N.2     1  UNL1       -0.1520
      4 C           7.2842    0.6153   36.1556 C.2     1  UNL1        0.0864
      5 C           6.2171    0.9142   37.1665 C.3     1  UNL1        0.0739
      6 C           4.8195    0.4136   36.9520 C.2     1  UNL1       -0.0160
      7 C           4.4890   -0.3860   35.7266 C.2     1  UNL1       -0.0038
      8 C           5.5561   -0.6849   34.7158 C.2     1  UNL1        0.0025
      9 C           6.9537   -0.1843   34.9303 C.2     1  UNL1        0.0350
     10 C           3.7523    0.7125   37.9629 C.2     1  UNL1        0.0007
     11 C           2.8136    1.8619   37.7449 C.2     1  UNL1        0.0546
     12 C           1.7034    2.2799   38.6629 C.2     1  UNL1        0.2495
     13 O           1.3370    1.6218   39.9600 O.2     1  UNL1       -0.2698
     14 N           1.0239    3.4715   38.0561 N.am    1  UNL1       -0.2804
     15 C           1.7142    3.7901   36.7629 C.ar    1  UNL1        0.0506
     16 C           1.4784    4.8575   35.7358 C.ar    1  UNL1        0.0147
     17 C           2.3488    4.9301   34.5162 C.ar    1  UNL1        0.0013
     18 C           3.4549    3.9352   34.3239 C.ar    1  UNL1        0.0001
     19 C           3.6906    2.8679   35.3512 C.ar    1  UNL1        0.0014
     20 C           2.8203    2.7953   36.5707 C.ar    1  UNL1        0.0179
     21 H           0.2592    3.9590   38.4392 H       1  UNL1        0.1552
     22 C           7.7760   -2.4313   32.6613 C.2     1  UNL1        0.0031
     23 C           8.3304   -1.0450   32.8069 C.2     1  UNL1        0.0210
     24 C           8.1521   -4.6046   28.7390 C.ar    1  UNL1        0.1318
     25 C           7.0522   -4.9644   29.6933 C.ar    1  UNL1        0.0343
     26 C           6.9268   -4.2399   31.0008 C.ar    1  UNL1        0.0044
     27 C           7.9014   -3.1557   31.3538 C.ar    1  UNL1        0.0193
     28 C           9.0013   -2.7960   30.3995 C.ar    1  UNL1        0.1003
     29 N           9.1267   -3.5204   29.0921 N.ar    1  UNL1       -0.2292
     30 C           8.6533   -7.5028   23.5093 C.3     1  UNL1        0.0897
     31 N           8.5280   -6.7782   24.8167 N.3     1  UNL1       -0.2686
     32 C           7.6137   -7.3062   25.8822 C.3     1  UNL1        0.0939
     33 C           7.4884   -6.5817   27.1896 C.3     1  UNL1        0.1095
     34 N           8.2775   -5.3291   27.4315 N.pl3   1  UNL1       -0.2904
     35 C           9.1918   -4.8012   26.3660 C.3     1  UNL1        0.1095
     36 C           9.3170   -5.5257   25.0586 C.3     1  UNL1        0.0939
@<TRIPOS>BOND
     1    30    31    1
     2    31    32    1
     3    32    33    1
     4    33    34    1
     5    34    24    1
     6    24    25   ar
     7    25    26   ar
     8    26    27   ar
     9    27    22    1
    10    22    23    2
    11    23     1    1
    12     1     2    2
    13     2     3    1
    14     3     4    2
    15     4     5    1
    16     5     6    1
    17     6    10    1
    18    10    11    2
    19    11    12    1
    20    12    13    2
    21    12    14   am
    22    14    15    1
    23    15    16   ar
    24    16    17   ar
    25    17    18   ar
    26    18    19   ar
    27    19    20   ar
    28     6     7    2
    29     7     8    1
    30     8     9    2
    31    27    28   ar
    32    28    29   ar
    33    34    35    1
    34    35    36    1
    35    36    31    1
    36    29    24   ar
    37     9     1    1
    38     9     4    1
    39    20    11    1
    40    20    15   ar
    41    14    21    1
@<TRIPOS>MOLECULE
*****
 36 41 0 0 0
SMALL
GASTEIGER

@<TRIPOS>ATOM
      1 C           0.1796    2.0393   22.7326 C.2     1  UNL1        0.1040
      2 N          -0.7910    2.3759   21.6396 N.2     1  UNL1       -0.1483
      3 N          -0.5166    1.4655   20.4795 N.2     1  UNL1       -0.1520
      4 C           0.6235    0.5662   20.8555 C.2     1  UNL1        0.0864
      5 C           1.3254   -0.5298   20.1098 C.3     1  UNL1        0.0739
      6 C           2.4576   -1.2712   20.7566 C.2     1  UNL1       -0.0160
      7 C           2.8879   -0.9166   22.1491 C.2     1  UNL1       -0.0038
      8 C           2.1860    0.1794   22.8948 C.2     1  UNL1        0.0025
      9 C           1.0538    0.9208   22.2480 C.2     1  UNL1        0.0350
     10 C           3.1596   -2.3672   20.0109 C.2     1  UNL1        0.0007
     11 C           4.4142   -2.0689   19.2448 C.2     1  UNL1        0.0546
     12 C           5.2214   -3.0567   18.4557 C.2     1  UNL1        0.2495
     13 O           4.9157   -4.5163   18.2943 O.2     1  UNL1       -0.2698
     14 N           6.3879   -2.3287   17.8565 N.am    1  UNL1       -0.2804
     15 C           6.3018   -0.8909   18.2752 C.ar    1  UNL1        0.0506
     16 C           7.1765    0.2928   17.9859 C.ar    1  UNL1        0.0147
     17 C           6.8314    1.6372   18.5548 C.ar    1  UNL1        0.0013
     18 C           5.6115    1.7978   19.4128 C.ar    1  UNL1        0.0001
     19 C           4.7368    0.6140   19.7020 C.ar    1  UNL1        0.0014
     20 C           5.0819   -0.7303   19.1332 C.ar    1  UNL1        0.0179
     21 H           7.0874   -2.7250   17.2882 H       1  UNL1        0.1552
     22 C           0.0813    1.8952   25.3248 C.2     1  UNL1        0.0031
     23 C           0.2616    2.7043   24.0746 C.2     1  UNL1        0.0210
     24 C           0.3273    3.8903   29.3508 C.ar    1  UNL1        0.1318
     25 C           0.5375    2.4097   29.2334 C.ar    1  UNL1        0.0343
     26 C           0.4554    1.7447   27.8914 C.ar    1  UNL1        0.0044
     27 C           0.1633    2.5603   26.6669 C.ar    1  UNL1        0.0193
     28 C          -0.0469    4.0408   26.7843 C.ar    1  UNL1        0.1003
     29 N           0.0351    4.7059   28.1264 N.ar    1  UNL1       -0.2292
     30 C           0.6553    6.5504   34.7190 C.3     1  UNL1        0.0897
     31 N           0.5733    5.8853   33.3770 N.3     1  UNL1       -0.2686
     32 C           0.4045    6.7142   32.1383 C.3     1  UNL1        0.0939
     33 C           0.3225    6.0492   30.7962 C.3     1  UNL1        0.1095
     34 N           0.4093    4.5552   30.6929 N.pl3   1  UNL1       -0.2904
     35 C           0.5782    3.7264   31.9316 C.3     1  UNL1        0.1095
     36 C           0.6602    4.3914   33.2737 C.3     1  UNL1        0.0939
@<TRIPOS>BOND
     1    30    31    1
     2    31    32    1
     3    32    33    1
     4    33    34    1
     5    34    24    1
     6    24    25   ar
     7    25    26   ar
     8    26    27   ar
     9    27    22    1
    10    22    23    2
    11    23     1    1
    12     1     2    2
    13     2     3    1
    14     3     4    2
    15     4     5    1
    16     5     6    1
    17     6    10    1
    18    10    11    2
    19    11    12    1
    20    12    13    2
    21    12    14   am
    22    14    15    1
    23    15    16   ar
    24    16    17   ar
    25    17    18   ar
    26    18    19   ar
    27    19    20   ar
    28     6     7    2
    29     7     8    1
    30     8     9    2
    31    27    28   ar
    32    28    29   ar
    33    34    35    1
    34    35    36    1
    35    36    31    1
    36    29    24   ar
    37     9     1    1
    38     9     4    1
    39    20    11    1
    40    20    15   ar
    41    14    21    1
@<TRIPOS>MOLECULE
*****
 36 41 0 0 0
SMALL
GASTEIGER

@<TRIPOS>ATOM
      1 C           3.8377   -0.6961   31.9836 C.2     1  UNL1        0.1040
      2 N           3.5740   -2.0941   32.4589 N.2     1  UNL1       -0.1483
      3 N           4.2367   -2.2624   33.7941 N.2     1  UNL1       -0.1520
      4 C           4.9099   -0.9684   34.1438 C.2     1  UNL1        0.0864
      5 C           5.7156   -0.5466   35.3367 C.3     1  UNL1        0.0739
      6 C           6.2748    0.8433   35.4105 C.2     1  UNL1       -0.0160
      7 C           6.0282    1.8114   34.2916 C.2     1  UNL1       -0.0038
      8 C           5.2225    1.3895   33.0987 C.2     1  UNL1        0.0025
      9 C           4.6634   -0.0004   33.0249 C.2     1  UNL1        0.0350
     10 C           7.0805    1.2652   36.6034 C.2     1  UNL1        0.0007
     11 C           6.4119    1.9597   37.7525 C.2     1  UNL1        0.0546
     12 C           7.0839    2.4376   39.0055 C.2     1  UNL1        0.2495
     13 O           8.5425    2.3050   39.3293 O.2     1  UNL1       -0.2698
     14 N           6.0412    3.0715   39.8778 N.am    1  UNL1       -0.2804
     15 C           4.7247    2.9853   39.1640 C.ar    1  UNL1        0.0506
     16 C           3.3470    3.4438   39.5404 C.ar    1  UNL1        0.0147
     17 C           2.1983    3.2151   38.6032 C.ar    1  UNL1        0.0013
     18 C           2.4275    2.5280   37.2896 C.ar    1  UNL1        0.0001
     19 C           3.8052    2.0695   36.9133 C.ar    1  UNL1        0.0014
     20 C           4.9538    2.2982   37.8505 C.ar    1  UNL1        0.0179
     21 H           6.1940    3.4735   40.7634 H       1  UNL1        0.1552
     22 C           2.0337   -0.5072   30.1234 C.2     1  UNL1        0.0031
     23 C           3.3598   -0.0986   30.6934 C.2     1  UNL1        0.0210
     24 C           0.5997    1.2851   26.2530 C.ar    1  UNL1        0.1318
     25 C          -0.3832    0.9594   27.3382 C.ar    1  UNL1        0.0343
     26 C           0.0948    0.3619   28.6284 C.ar    1  UNL1        0.0044
     27 C           1.5557    0.0902   28.8333 C.ar    1  UNL1        0.0193
     28 C           2.5386    0.4160   27.7480 C.ar    1  UNL1        0.1003
     29 N           2.0606    1.0134   26.4578 N.ar    1  UNL1       -0.2292
     30 C          -1.3128    3.6751   21.0925 C.3     1  UNL1        0.0897
     31 N          -0.8346    3.0776   22.3826 N.3     1  UNL1       -0.2686
     32 C          -1.4441    3.5130   23.6821 C.3     1  UNL1        0.0939
     33 C          -0.9660    2.9155   24.9722 C.3     1  UNL1        0.1095
     34 N           0.1216    1.8826   24.9628 N.pl3   1  UNL1       -0.2904
     35 C           0.7311    1.4472   23.6632 C.3     1  UNL1        0.1095
     36 C           0.2530    2.0447   22.3731 C.3     1  UNL1        0.0939
@<TRIPOS>BOND
     1    30    31    1
     2    31    32    1
     3    32    33    1
     4    33    34    1
     5    34    24    1
     6    24    25   ar
     7    25    26   ar
     8    26    27   ar
     9    27    22    1
    10    22    23    2
    11    23     1    1
    12     1     2    2
    13     2     3    1
    14     3     4    2
    15     4     5    1
    16     5     6    1
    17     6    10    1
    18    10    11    2
    19    11    12    1
    20    12    13    2
    21    12    14   am
    22    14    15    1
    23    15    16   ar
    24    16    17   ar
    25    17    18   ar
    26    18    19   ar
    27    19    20   ar
    28     6     7    2
    29     7     8    1
    30     8     9    2
    31    27    28   ar
    32    28    29   ar
    33    34    35    1
    34    35    36    1
    35    36    31    1
    36    29    24   ar
    37     9     1    1
    38     9     4    1
    39    20    11    1
    40    20    15   ar
    41    14    21    1
@<TRIPOS>MOLECULE
*****
 36 41 0 0 0
SMALL
GASTEIGER

@<TRIPOS>ATOM
      1 C           6.5814   -3.9588   28.3487 C.2     1  UNL1        0.1040
      2 N           6.2187   -5.4140   28.3220 N.2     1  UNL1       -0.1483
      3 N           6.5359   -5.9457   26.9558 N.2     1  UNL1       -0.1520
      4 C           7.0945   -4.8191   26.1381 C.2     1  UNL1        0.0864
      5 C           7.5812   -4.7527   24.7208 C.3     1  UNL1        0.0739
      6 C           8.0961   -3.4584   24.1645 C.2     1  UNL1       -0.0160
      7 C           8.1242   -2.2304   25.0254 C.2     1  UNL1       -0.0038
      8 C           7.6375   -2.2967   26.4427 C.2     1  UNL1        0.0025
      9 C           7.1227   -3.5911   26.9990 C.2     1  UNL1        0.0350
     10 C           8.5828   -3.3920   22.7471 C.2     1  UNL1        0.0007
     11 C           7.6534   -2.9530   21.6548 C.2     1  UNL1        0.0546
     12 C           7.9959   -2.8380   20.1989 C.2     1  UNL1        0.2495
     13 O           9.3280   -3.1418   19.5799 O.2     1  UNL1       -0.2698
     14 N           6.7724   -2.3658   19.4708 N.am    1  UNL1       -0.2804
     15 C           5.6737   -2.1889   20.4766 C.ar    1  UNL1        0.0506
     16 C           4.2479   -1.7443   20.3377 C.ar    1  UNL1        0.0147
     17 C           3.3664   -1.6626   21.5487 C.ar    1  UNL1        0.0013
     18 C           3.9109   -2.0256   22.8986 C.ar    1  UNL1        0.0001
     19 C           5.3368   -2.4702   23.0373 C.ar    1  UNL1        0.0014
     20 C           6.2182   -2.5518   21.8264 C.ar    1  UNL1        0.0179
     21 H           6.7028   -2.2009   18.5027 H       1  UNL1        0.1552
     22 C           6.3444   -3.5909   30.9098 C.2     1  UNL1        0.0031
     23 C           6.4295   -3.0336   29.5196 C.2     1  UNL1        0.0210
     24 C           5.8886   -0.8155   34.4224 C.ar    1  UNL1        0.1318
     25 C           4.7328   -1.6642   33.9822 C.ar    1  UNL1        0.0343
     26 C           4.8847   -2.5893   32.8113 C.ar    1  UNL1        0.0044
     27 C           6.1925   -2.6657   32.0807 C.ar    1  UNL1        0.0193
     28 C           7.3483   -1.8171   32.5209 C.ar    1  UNL1        0.1003
     29 N           7.1964   -0.8919   33.6918 N.ar    1  UNL1       -0.2292
     30 C           5.2808    2.8852   39.1060 C.3     1  UNL1        0.0897
     31 N           5.4327    1.9600   37.9351 N.3     1  UNL1       -0.2686
     32 C           6.6594    2.0340   37.0751 C.3     1  UNL1        0.0939
     33 C           6.8114    1.1088   35.9042 C.3     1  UNL1        0.1095
     34 N           5.7366    0.1097   35.5934 N.pl3   1  UNL1       -0.2904
     35 C           4.5099    0.0357   36.4534 C.3     1  UNL1        0.1095
     36 C           4.3580    0.9609   37.6243 C.3     1  UNL1        0.0939
@<TRIPOS>BOND
     1    30    31    1
     2    31    32    1
     3    32    33    1
     4    33    34    1
     5    34    24    1
     6    24    25   ar
     7    25    26   ar
     8    26    27   ar
     9    27    22    1
    10    22    23    2
    11    23     1    1
    12     1     2    2
    13     2     3    1
    14     3     4    2
    15     4     5    1
    16     5     6    1
    17     6    10    1
    18    10    11    2
    19    11    12    1
    20    12    13    2
    21    12    14   am
    22    14    15    1
    23    15    16   ar
    24    16    17   ar
    25    17    18   ar
    26    18    19   ar
    27    19    20   ar
    28     6     7    2
    29     7     8    1
    30     8     9    2
    31    27    28   ar
    32    28    29   ar
    33    34    35    1
    34    35    36    1
    35    36    31    1
    36    29    24   ar
    37     9     1    1
    38     9     4    1
    39    20    11    1
    40    20    15   ar
    41    14    21    1
@<TRIPOS>MOLECULE
*****
 36 41 0 0 0
SMALL
GASTEIGER

@<TRIPOS>ATOM
      1 C           6.8116   -3.4114   25.2521 C.2     1  UNL1        0.1040
      2 N           6.9106   -4.8770   24.9483 N.2     1  UNL1       -0.1483
      3 N           7.0038   -5.0365   23.4597 N.2     1  UNL1       -0.1520
      4 C           6.9624   -3.6695   22.8435 C.2     1  UNL1        0.0864
      5 C           7.0176   -3.2096   21.4169 C.3     1  UNL1        0.0739
      6 C           6.9540   -1.7453   21.0980 C.2     1  UNL1       -0.0160
      7 C           6.8352   -0.7409   22.2058 C.2     1  UNL1       -0.0038
      8 C           6.7800   -1.2009   23.6324 C.2     1  UNL1        0.0025
      9 C           6.8436   -2.6652   23.9513 C.2     1  UNL1        0.0350
     10 C           7.0092   -1.2853   19.6713 C.2     1  UNL1        0.0007
     11 C           5.7550   -0.8451   18.9762 C.2     1  UNL1        0.0546
     12 C           5.6552   -0.3623   17.5595 C.2     1  UNL1        0.2495
     13 O           6.7920   -0.2348   16.5893 O.2     1  UNL1       -0.2698
     14 N           4.2189   -0.0292   17.2834 N.am    1  UNL1       -0.2804
     15 C           3.4310   -0.3063   18.5294 C.ar    1  UNL1        0.0506
     16 C           1.9718   -0.1645   18.8465 C.ar    1  UNL1        0.0147
     17 C           1.4619   -0.5270   20.2098 C.ar    1  UNL1        0.0013
     18 C           2.4113   -1.0312   21.2561 C.ar    1  UNL1        0.0001
     19 C           3.8705   -1.1730   20.9389 C.ar    1  UNL1        0.0014
     20 C           4.3804   -0.8105   19.5756 C.ar    1  UNL1        0.0179
     21 H           3.8569    0.3114   16.4336 H       1  UNL1        0.1552
     22 C           6.5194   -3.6773   27.8200 C.2     1  UNL1        0.0031
     23 C           6.7001   -2.7995   26.6170 C.2     1  UNL1        0.0210
     24 C           6.1850   -1.8416   31.9149 C.ar    1  UNL1        0.1318
     25 C           6.7463   -3.2235   31.7560 C.ar    1  UNL1        0.0343
     26 C           6.8577   -3.8354   30.3910 C.ar    1  UNL1        0.0044
     27 C           6.4079   -3.0654   29.1850 C.ar    1  UNL1        0.0193
     28 C           5.8467   -1.6834   29.3438 C.ar    1  UNL1        0.1003
     29 N           5.7352   -1.0715   30.7088 N.ar    1  UNL1       -0.2292
     30 C           5.7390    0.6057   37.3749 C.3     1  UNL1        0.0897
     31 N           5.8505   -0.0061   36.0099 N.3     1  UNL1       -0.2686
     32 C           4.6611   -0.6768   35.3892 C.3     1  UNL1        0.0939
     33 C           4.7726   -1.2886   34.0242 C.3     1  UNL1        0.1095
     34 N           6.0736   -1.2297   33.2799 N.pl3   1  UNL1       -0.2904
     35 C           7.2630   -0.5590   33.9006 C.3     1  UNL1        0.1095
     36 C           7.1515    0.0528   35.2657 C.3     1  UNL1        0.0939
@<TRIPOS>BOND
     1    30    31    1
     2    31    32    1
     3    32    33    1
     4    33    34    1
     5    34    24    1
     6    24    25   ar
     7    25    26   ar
     8    26    27   ar
     9    27    22    1
    10    22    23    2
    11    23     1    1
    12     1     2    2
    13     2     3    1
    14     3     4    2
    15     4     5    1
    16     5     6    1
    17     6    10    1
    18    10    11    2
    19    11    12    1
    20    12    13    2
    21    12    14   am
    22    14    15    1
    23    15    16   ar
    24    16    17   ar
    25    17    18   ar
    26    18    19   ar
    27    19    20   ar
    28     6     7    2
    29     7     8    1
    30     8     9    2
    31    27    28   ar
    32    28    29   ar
    33    34    35    1
    34    35    36    1
    35    36    31    1
    36    29    24   ar
    37     9     1    1
    38     9     4    1
    39    20    11    1
    40    20    15   ar
    41    14    21    1
@<TRIPOS>MOLECULE
*****
 36 41 0 0 0
SMALL
GASTEIGER

@<TRIPOS>ATOM
      1 C           0.1607    1.5892   29.8988 C.2     1  UNL1        0.1040
      2 N          -0.2497    0.1494   29.8071 N.2     1  UNL1       -0.1483
      3 N          -0.5368   -0.1600   28.3677 N.2     1  UNL1       -0.1520
      4 C          -0.3040    1.0887   27.5698 C.2     1  UNL1        0.0864
      5 C          -0.4288    1.3810   26.1039 C.3     1  UNL1        0.0739
      6 C          -0.1225    2.7543   25.5843 C.2     1  UNL1       -0.0160
      7 C           0.3085    3.8354   26.5306 C.2     1  UNL1       -0.0038
      8 C           0.4333    3.5432   27.9965 C.2     1  UNL1        0.0025
      9 C           0.1271    2.1698   28.5161 C.2     1  UNL1        0.0350
     10 C          -0.2473    3.0467   24.1183 C.2     1  UNL1        0.0007
     11 C          -1.5445    3.5551   23.5627 C.2     1  UNL1        0.0546
     12 C          -1.8176    3.8895   22.1262 C.2     1  UNL1        0.2495
     13 O          -0.8415    3.7743   20.9931 O.2     1  UNL1       -0.2698
     14 N          -3.2383    4.3594   22.0217 N.am    1  UNL1       -0.2804
     15 C          -3.8432    4.3154   23.3937 C.ar    1  UNL1        0.0506
     16 C          -5.2120    4.6638   23.8986 C.ar    1  UNL1        0.0147
     17 C          -5.5340    4.5151   25.3561 C.ar    1  UNL1        0.0013
     18 C          -4.4871    4.0179   26.3086 C.ar    1  UNL1        0.0001
     19 C          -3.1183    3.6696   25.8035 C.ar    1  UNL1        0.0014
     20 C          -2.7964    3.8183   24.3460 C.ar    1  UNL1        0.0179
     21 H          -3.6937    4.6464   21.1974 H       1  UNL1        0.1552
     22 C           1.6518    1.8042   32.0155 C.2     1  UNL1        0.0031
     23 C           0.5383    2.3203   31.1530 C.2     1  UNL1        0.0210
     24 C           2.7846    3.9972   35.7781 C.ar    1  UNL1        0.1318
     25 C           3.2539    2.5893   35.5605 C.ar    1  UNL1        0.0343
     26 C           2.8763    1.8582   34.3063 C.ar    1  UNL1        0.0044
     27 C           2.0294    2.5353   33.2698 C.ar    1  UNL1        0.0193
     28 C           1.5602    3.9432   33.4874 C.ar    1  UNL1        0.1003
     29 N           1.9378    4.6743   34.7416 N.ar    1  UNL1       -0.2292
     30 C           4.2951    6.9213   40.7950 C.3     1  UNL1        0.0897
     31 N           3.9175    6.1902   39.5408 N.3     1  UNL1       -0.2686
     32 C           3.4043    6.9515   38.3546 C.3     1  UNL1        0.0939
     33 C           3.0267    6.2205   37.1004 C.3     1  UNL1        0.1095
     34 N           3.1623    4.7282   37.0324 N.pl3   1  UNL1       -0.2904
     35 C           3.6755    3.9669   38.2186 C.3     1  UNL1        0.1095
     36 C           4.0531    4.6979   39.4728 C.3     1  UNL1        0.0939
@<TRIPOS>BOND
     1    30    31    1
     2    31    32    1
     3    32    33    1
     4    33    34    1
     5    34    24    1
     6    24    25   ar
     7    25    26   ar
     8    26    27   ar
     9    27    22    1
    10    22    23    2
    11    23     1    1
    12     1     2    2
    13     2     3    1
    14     3     4    2
    15     4     5    1
    16     5     6    1
    17     6    10    1
    18    10    11    2
    19    11    12    1
    20    12    13    2
    21    12    14   am
    22    14    15    1
    23    15    16   ar
    24    16    17   ar
    25    17    18   ar
    26    18    19   ar
    27    19    20   ar
    28     6     7    2
    29     7     8    1
    30     8     9    2
    31    27    28   ar
    32    28    29   ar
    33    34    35    1
    34    35    36    1
    35    36    31    1
    36    29    24   ar
    37     9     1    1
    38     9     4    1
    39    20    11    1
    40    20    15   ar
    41    14    21    1
