@<TRIPOS>MOLECULE
*****
 16 17 0 0 0
SMALL
GASTEIGER

@<TRIPOS>ATOM
      1 C         -10.0143  -20.0166   24.6309 C.3     1  UNL1        0.0899
      2 N          -9.7604  -19.8598   23.1608 N.3     1  UNL1       -0.2674
      3 C         -10.9819  -19.7961   22.2925 C.3     1  UNL1        0.0986
      4 C         -11.0632  -19.6443   20.8025 C.2     1  UNL1       -0.0134
      5 C          -9.9431  -19.5187   19.8126 C.2     1  UNL1       -0.0289
      6 C          -8.4651  -19.5139   20.0684 C.3     1  UNL1        0.0315
      7 C          -7.7422  -19.6335   21.3773 C.3     1  UNL1        0.0427
      8 C          -8.3185  -19.7874   22.7534 C.3     1  UNL1        0.0771
      9 C          -6.2447  -19.5939   21.2995 C.ar    1  UNL1       -0.0199
     10 C          -5.5266  -20.3922   20.2520 C.ar    1  UNL1       -0.0033
     11 C          -4.0291  -20.3527   20.1743 C.ar    1  UNL1        0.0119
     12 C          -3.2497  -19.5148   21.1440 C.ar    1  UNL1        0.0682
     13 CL         -1.7523  -19.4753   21.0663 Cl      1  UNL1       -0.0814
     14 C          -3.9677  -18.7165   22.1916 C.ar    1  UNL1        0.0679
     15 CL         -3.1883  -17.8787   23.1613 Cl      1  UNL1       -0.0814
     16 C          -5.4652  -18.7561   22.2693 C.ar    1  UNL1        0.0080
@<TRIPOS>BOND
     1     1     2    1
     2     2     3    1
     3     3     4    1
     4     4     5    2
     5     5     6    1
     6     6     7    1
     7     7     9    1
     8     9    10   ar
     9    10    11   ar
    10    11    12   ar
    11    12    13    1
    12    12    14   ar
    13    14    15    1
    14    14    16   ar
    15     7     8    1
    16     8     2    1
    17    16     9   ar
@<TRIPOS>MOLECULE
*****
 16 17 0 0 0
SMALL
GASTEIGER

@<TRIPOS>ATOM
      1 C         -11.1586  -15.5547   19.4146 C.3     1  UNL1        0.0899
      2 N         -11.2875  -16.2968   20.7118 N.3     1  UNL1       -0.2674
      3 C         -12.5073  -17.1588   20.8502 C.3     1  UNL1        0.0986
      4 C         -12.9204  -18.0156   22.0099 C.2     1  UNL1       -0.0134
      5 C         -12.2158  -18.2221   23.3180 C.2     1  UNL1       -0.0289
      6 C         -10.9240  -17.6227   23.7892 C.3     1  UNL1        0.0315
      7 C         -10.0178  -16.6688   23.0688 C.3     1  UNL1        0.0427
      8 C         -10.1795  -16.0788   21.6993 C.3     1  UNL1        0.0771
      9 C          -8.7871  -16.2496   23.8169 C.ar    1  UNL1       -0.0199
     10 C          -7.5321  -15.9128   23.0675 C.ar    1  UNL1       -0.0033
     11 C          -6.3014  -15.4935   23.8155 C.ar    1  UNL1        0.0119
     12 C          -6.3257  -15.4112   25.3131 C.ar    1  UNL1        0.0682
     13 CL         -5.0950  -14.9920   26.0612 Cl      1  UNL1       -0.0814
     14 C          -7.5807  -15.7480   26.0626 C.ar    1  UNL1        0.0679
     15 CL         -7.6049  -15.6657   27.5600 Cl      1  UNL1       -0.0814
     16 C          -8.8114  -16.1672   25.3145 C.ar    1  UNL1        0.0080
@<TRIPOS>BOND
     1     1     2    1
     2     2     3    1
     3     3     4    1
     4     4     5    2
     5     5     6    1
     6     6     7    1
     7     7     9    1
     8     9    10   ar
     9    10    11   ar
    10    11    12   ar
    11    12    13    1
    12    12    14   ar
    13    14    15    1
    14    14    16   ar
    15     7     8    1
    16     8     2    1
    17    16     9   ar
@<TRIPOS>MOLECULE
*****
 16 17 0 0 0
SMALL
GASTEIGER

@<TRIPOS>ATOM
      1 C         -10.5970  -15.9981   21.1482 C.3     1  UNL1        0.0899
      2 N         -10.2594  -17.2693   21.8692 N.3     1  UNL1       -0.2674
      3 C         -11.3713  -17.8775   22.6717 C.3     1  UNL1        0.0986
      4 C         -11.3529  -19.1307   23.4955 C.2     1  UNL1       -0.0134
      5 C         -10.2182  -20.0856   23.7205 C.2     1  UNL1       -0.0289
      6 C          -8.8215  -20.0229   23.1771 C.3     1  UNL1        0.0315
      7 C          -8.2146  -18.9899   22.2745 C.3     1  UNL1        0.0427
      8 C          -8.8545  -17.7645   21.6925 C.3     1  UNL1        0.0771
      9 C          -6.7778  -19.2116   21.9052 C.ar    1  UNL1       -0.0199
     10 C          -6.4238  -20.1866   20.8215 C.ar    1  UNL1       -0.0033
     11 C          -4.9870  -20.4083   20.4522 C.ar    1  UNL1        0.0119
     12 C          -3.9042  -19.6552   21.1665 C.ar    1  UNL1        0.0682
     13 CL         -2.4674  -19.8770   20.7972 Cl      1  UNL1       -0.0814
     14 C          -4.2581  -18.6803   22.2502 C.ar    1  UNL1        0.0679
     15 CL         -3.1754  -17.9272   22.9645 Cl      1  UNL1       -0.0814
     16 C          -5.6950  -18.4585   22.6195 C.ar    1  UNL1        0.0080
@<TRIPOS>BOND
     1     1     2    1
     2     2     3    1
     3     3     4    1
     4     4     5    2
     5     5     6    1
     6     6     7    1
     7     7     9    1
     8     9    10   ar
     9    10    11   ar
    10    11    12   ar
    11    12    13    1
    12    12    14   ar
    13    14    15    1
    14    14    16   ar
    15     7     8    1
    16     8     2    1
    17    16     9   ar
@<TRIPOS>MOLECULE
*****
 16 17 0 0 0
SMALL
GASTEIGER

@<TRIPOS>ATOM
      1 C          -3.4385  -17.3970   22.8972 C.3     1  UNL1        0.0899
      2 N          -4.2605  -18.3964   22.1386 N.3     1  UNL1       -0.2674
      3 C          -3.5120  -19.2346   21.1448 C.3     1  UNL1        0.0986
      4 C          -4.0405  -20.3087   20.2411 C.2     1  UNL1       -0.0134
      5 C          -5.4478  -20.8103   20.1078 C.2     1  UNL1       -0.0289
      6 C          -6.6744  -20.3614   20.8454 C.3     1  UNL1        0.0315
      7 C          -6.7965  -19.3001   21.8984 C.3     1  UNL1        0.0427
      8 C          -5.7223  -18.4257   22.4739 C.3     1  UNL1        0.0771
      9 C          -8.1752  -19.0849   22.4487 C.ar    1  UNL1       -0.0199
     10 C          -8.8226  -20.1472   23.2869 C.ar    1  UNL1       -0.0033
     11 C         -10.2013  -19.9319   23.8372 C.ar    1  UNL1        0.0119
     12 C         -10.9327  -18.6544   23.5493 C.ar    1  UNL1        0.0682
     13 CL        -12.3114  -18.4391   24.0995 Cl      1  UNL1       -0.0814
     14 C         -10.2854  -17.5920   22.7111 C.ar    1  UNL1        0.0679
     15 CL        -11.0167  -16.3145   22.4233 Cl      1  UNL1       -0.0814
     16 C          -8.9066  -17.8073   22.1608 C.ar    1  UNL1        0.0080
@<TRIPOS>BOND
     1     1     2    1
     2     2     3    1
     3     3     4    1
     4     4     5    2
     5     5     6    1
     6     6     7    1
     7     7     9    1
     8     9    10   ar
     9    10    11   ar
    10    11    12   ar
    11    12    13    1
    12    12    14   ar
    13    14    15    1
    14    14    16   ar
    15     7     8    1
    16     8     2    1
    17    16     9   ar
@<TRIPOS>MOLECULE
*****
 16 17 0 0 0
SMALL
GASTEIGER

@<TRIPOS>ATOM
      1 C          -9.4248  -19.4174   19.6819 C.3     1  UNL1        0.0899
      2 N         -10.1476  -18.5455   20.6654 N.3     1  UNL1       -0.2674
      3 C         -11.6338  -18.4529   20.4838 C.3     1  UNL1        0.0986
      4 C         -12.6280  -17.6735   21.2923 C.2     1  UNL1       -0.0134
      5 C         -12.3818  -16.7940   22.4823 C.2     1  UNL1       -0.0289
      6 C         -11.0805  -16.4769   23.1575 C.3     1  UNL1        0.0315
      7 C          -9.7040  -16.9609   22.8096 C.3     1  UNL1        0.0427
      8 C          -9.2888  -17.8814   21.7006 C.3     1  UNL1        0.0771
      9 C          -8.5961  -16.4577   23.6868 C.ar    1  UNL1       -0.0199
     10 C          -8.9105  -15.8791   25.0346 C.ar    1  UNL1       -0.0033
     11 C          -7.8027  -15.3759   25.9118 C.ar    1  UNL1        0.0119
     12 C          -6.3804  -15.4512   25.4412 C.ar    1  UNL1        0.0682
     13 CL         -5.2726  -14.9480   26.3184 Cl      1  UNL1       -0.0814
     14 C          -6.0660  -16.0297   24.0934 C.ar    1  UNL1        0.0679
     15 CL         -4.6438  -16.1050   23.6229 Cl      1  UNL1       -0.0814
     16 C          -7.1738  -16.5329   23.2162 C.ar    1  UNL1        0.0080
@<TRIPOS>BOND
     1     1     2    1
     2     2     3    1
     3     3     4    1
     4     4     5    2
     5     5     6    1
     6     6     7    1
     7     7     9    1
     8     9    10   ar
     9    10    11   ar
    10    11    12   ar
    11    12    13    1
    12    12    14   ar
    13    14    15    1
    14    14    16   ar
    15     7     8    1
    16     8     2    1
    17    16     9   ar
@<TRIPOS>MOLECULE
*****
 16 17 0 0 0
SMALL
GASTEIGER

@<TRIPOS>ATOM
      1 C         -11.5970  -15.9160   19.6674 C.3     1  UNL1        0.0899
      2 N         -11.4040  -16.6478   20.9625 N.3     1  UNL1       -0.2674
      3 C         -12.6595  -17.0957   21.6505 C.3     1  UNL1        0.0986
      4 C         -12.8020  -17.8412   22.9441 C.2     1  UNL1       -0.0134
      5 C         -11.7243  -18.3232   23.8695 C.2     1  UNL1       -0.0289
      6 C         -10.2379  -18.1786   23.7296 C.3     1  UNL1        0.0315
      7 C          -9.4621  -17.5163   22.6299 C.3     1  UNL1        0.0427
      8 C          -9.9809  -16.8351   21.3985 C.3     1  UNL1        0.0771
      9 C          -7.9699  -17.5382   22.7817 C.ar    1  UNL1       -0.0199
     10 C          -7.1695  -18.6476   22.1663 C.ar    1  UNL1       -0.0033
     11 C          -5.6774  -18.6694   22.3181 C.ar    1  UNL1        0.0119
     12 C          -4.9856  -17.5819   23.0854 C.ar    1  UNL1        0.0682
     13 CL         -3.4935  -17.6038   23.2372 Cl      1  UNL1       -0.0814
     14 C          -5.7859  -16.4725   23.7009 C.ar    1  UNL1        0.0679
     15 CL         -5.0942  -15.3851   24.4681 Cl      1  UNL1       -0.0814
     16 C          -7.2781  -16.4506   23.5490 C.ar    1  UNL1        0.0080
@<TRIPOS>BOND
     1     1     2    1
     2     2     3    1
     3     3     4    1
     4     4     5    2
     5     5     6    1
     6     6     7    1
     7     7     9    1
     8     9    10   ar
     9    10    11   ar
    10    11    12   ar
    11    12    13    1
    12    12    14   ar
    13    14    15    1
    14    14    16   ar
    15     7     8    1
    16     8     2    1
    17    16     9   ar
@<TRIPOS>MOLECULE
*****
 16 17 0 0 0
SMALL
GASTEIGER

@<TRIPOS>ATOM
      1 C          -4.8963  -19.6615   21.3003 C.3     1  UNL1        0.0899
      2 N          -5.3270  -18.4982   22.1436 N.3     1  UNL1       -0.2674
      3 C          -4.2221  -17.6280   22.6652 C.3     1  UNL1        0.0986
      4 C          -4.3230  -16.4037   23.5258 C.2     1  UNL1       -0.0134
      5 C          -5.5537  -15.7470   24.0774 C.2     1  UNL1       -0.0289
      6 C          -6.9874  -16.1525   23.9045 C.3     1  UNL1        0.0315
      7 C          -7.5446  -17.3149   23.1374 C.3     1  UNL1        0.0427
      8 C          -6.8057  -18.3588   22.3538 C.3     1  UNL1        0.0771
      9 C          -9.0383  -17.4514   23.1566 C.ar    1  UNL1       -0.0199
     10 C          -9.7049  -18.2469   24.2396 C.ar    1  UNL1       -0.0033
     11 C         -11.1986  -18.3834   24.2588 C.ar    1  UNL1        0.0119
     12 C         -12.0256  -17.7244   23.1949 C.ar    1  UNL1        0.0682
     13 CL        -13.5192  -17.8609   23.2141 Cl      1  UNL1       -0.0814
     14 C         -11.3590  -16.9289   22.1119 C.ar    1  UNL1        0.0679
     15 CL        -12.1860  -16.2700   21.0481 Cl      1  UNL1       -0.0814
     16 C          -9.8653  -16.7924   22.0927 C.ar    1  UNL1        0.0080
@<TRIPOS>BOND
     1     1     2    1
     2     2     3    1
     3     3     4    1
     4     4     5    2
     5     5     6    1
     6     6     7    1
     7     7     9    1
     8     9    10   ar
     9    10    11   ar
    10    11    12   ar
    11    12    13    1
    12    12    14   ar
    13    14    15    1
    14    14    16   ar
    15     7     8    1
    16     8     2    1
    17    16     9   ar
@<TRIPOS>MOLECULE
*****
 16 17 0 0 0
SMALL
GASTEIGER

@<TRIPOS>ATOM
      1 C         -10.5836  -16.5470   22.9602 C.3     1  UNL1        0.0899
      2 N         -10.1333  -17.4999   21.8928 N.3     1  UNL1       -0.2674
      3 C         -11.2100  -18.0163   20.9849 C.3     1  UNL1        0.0986
      4 C         -11.0851  -18.9706   19.8345 C.2     1  UNL1       -0.0134
      5 C          -9.8528  -19.6444   19.3076 C.2     1  UNL1       -0.0289
      6 C          -8.4410  -19.5301   19.8012 C.3     1  UNL1        0.0315
      7 C          -7.9128  -18.7139   20.9435 C.3     1  UNL1        0.0427
      8 C          -8.6659  -17.8104   21.8743 C.3     1  UNL1        0.0771
      9 C          -6.4362  -18.8145   21.1872 C.ar    1  UNL1       -0.0199
     10 C          -5.8698  -18.4436   22.5259 C.ar    1  UNL1       -0.0033
     11 C          -4.3932  -18.5443   22.7696 C.ar    1  UNL1        0.0119
     12 C          -3.4828  -19.0158   21.6746 C.ar    1  UNL1        0.0682
     13 CL         -2.0062  -19.1165   21.9183 Cl      1  UNL1       -0.0814
     14 C          -4.0491  -19.3867   20.3360 C.ar    1  UNL1        0.0679
     15 CL         -3.1387  -19.8582   19.2412 Cl      1  UNL1       -0.0814
     16 C          -5.5257  -19.2860   20.0923 C.ar    1  UNL1        0.0080
@<TRIPOS>BOND
     1     1     2    1
     2     2     3    1
     3     3     4    1
     4     4     5    2
     5     5     6    1
     6     6     7    1
     7     7     9    1
     8     9    10   ar
     9    10    11   ar
    10    11    12   ar
    11    12    13    1
    12    12    14   ar
    13    14    15    1
    14    14    16   ar
    15     7     8    1
    16     8     2    1
    17    16     9   ar
@<TRIPOS>MOLECULE
*****
 16 17 0 0 0
SMALL
GASTEIGER

@<TRIPOS>ATOM
      1 C         -11.7977  -16.0657   20.0514 C.3     1  UNL1        0.0899
      2 N         -11.4761  -16.9279   21.2360 N.3     1  UNL1       -0.2674
      3 C         -12.6078  -17.1717   22.1900 C.3     1  UNL1        0.0986
      4 C         -12.6082  -17.9800   23.4534 C.2     1  UNL1       -0.0134
      5 C         -11.4771  -18.7443   24.0752 C.2     1  UNL1       -0.0289
      6 C         -10.0662  -18.8890   23.5869 C.3     1  UNL1        0.0315
      7 C          -9.4380  -18.3051   22.3562 C.3     1  UNL1        0.0427
      8 C         -10.0654  -17.4324   21.3101 C.3     1  UNL1        0.0771
      9 C          -7.9909  -18.6380   22.1438 C.ar    1  UNL1       -0.0199
     10 C          -6.9266  -17.8127   22.8043 C.ar    1  UNL1       -0.0033
     11 C          -5.4795  -18.1456   22.5919 C.ar    1  UNL1        0.0119
     12 C          -5.0967  -19.3038   21.7189 C.ar    1  UNL1        0.0682
     13 CL         -3.6496  -19.6367   21.5064 Cl      1  UNL1       -0.0814
     14 C          -6.1610  -20.1290   21.0583 C.ar    1  UNL1        0.0679
     15 CL         -5.7782  -21.2871   20.1854 Cl      1  UNL1       -0.0814
     16 C          -7.6081  -19.7961   21.2708 C.ar    1  UNL1        0.0080
@<TRIPOS>BOND
     1     1     2    1
     2     2     3    1
     3     3     4    1
     4     4     5    2
     5     5     6    1
     6     6     7    1
     7     7     9    1
     8     9    10   ar
     9    10    11   ar
    10    11    12   ar
    11    12    13    1
    12    12    14   ar
    13    14    15    1
    14    14    16   ar
    15     7     8    1
    16     8     2    1
    17    16     9   ar
